REMARK  2 active torsions:
REMARK  status: ('A' for Active; 'I' for Inactive)
REMARK    1  A    between atoms: N1_5  and  N2_6 
REMARK       I    between atoms: C5_11  and  N2_6 
REMARK    2  A    between atoms: C5_11  and  C6_12 
ROOT
HETATM    1  O2  UNK     1       0.945   0.816  -2.603  1.00  0.00    -0.274 OA
HETATM    2  O4  UNK     1      -1.125   0.049  -2.014  1.00  0.00    -0.259 OA
HETATM    3  C6  UNK     1       0.332   0.645  -0.242  1.00  0.00     0.109 A 
HETATM    4  C7  UNK     1       2.526   1.458  -0.871  1.00  0.00    -0.001 A 
HETATM    5  C8  UNK     1       1.531   1.108   0.131  1.00  0.00     0.037 A 
HETATM    6  C9  UNK     1       2.209   1.304  -2.217  1.00  0.00     0.089 A 
HETATM    7  C10 UNK     1      -0.027   0.472  -1.668  1.00  0.00     0.304 A 
HETATM    8  C11 UNK     1       3.789   1.944  -0.527  1.00  0.00     0.014 A 
HETATM    9  C12 UNK     1       3.117   1.621  -3.225  1.00  0.00     0.038 A 
HETATM   10  C13 UNK     1       4.710   2.267  -1.528  1.00  0.00     0.001 A 
HETATM   11  C14 UNK     1       4.374   2.106  -2.874  1.00  0.00     0.003 A 
ENDROOT
BRANCH   3  12
HETATM   12  C5  UNK     1      -0.604   0.319   0.841  1.00  0.00     0.272 C 
HETATM   13  O3  UNK     1      -0.567   0.926   1.910  1.00  0.00    -0.266 OA
HETATM   14  N2  UNK     1      -1.473  -0.699   0.505  1.00  0.00    -0.285 N 
HETATM   15  H9  UNK     1      -1.442  -1.182  -0.388  1.00  0.00     0.184 HD
BRANCH  14  16
HETATM   16  N1  UNK     1      -2.413  -1.114   1.429  1.00  0.00    -0.225 NA
HETATM   17  C1  UNK     1      -2.221  -2.533   1.749  1.00  0.00     0.140 C 
HETATM   18  C3  UNK     1      -3.284  -2.985   2.746  1.00  0.00     0.183 C 
HETATM   19  O1  UNK     1      -4.592  -2.762   2.215  1.00  0.00    -0.389 OA
HETATM   20  C4  UNK     1      -4.795  -1.377   1.931  1.00  0.00     0.183 C 
HETATM   21  C2  UNK     1      -3.768  -0.887   0.914  1.00  0.00     0.140 C 
ENDBRANCH  14  16
ENDBRANCH   3  12
TORSDOF 2
