REMARK  5 active torsions:
REMARK  status: ('A' for Active; 'I' for Inactive)
REMARK    1  A    between atoms: C8_11  and  O1_1 
REMARK    2  A    between atoms: C14_17  and  O2_2 
REMARK    3  A    between atoms: C1_4  and  C5_8 
REMARK    4  A    between atoms: C10_13  and  C5_8 
REMARK    5  A    between atoms: C11_14  and  C6_9 
ROOT
HETATM    1  O3  UNK     1      -0.935   0.943  -0.668  1.00  0.00    -0.288 OA
HETATM    2  C5  UNK     1      -1.047  -0.242  -0.375  1.00  0.00     0.182 C 
ENDROOT
BRANCH   2   3
HETATM    3  C1  UNK     1      -1.872  -0.636   0.792  1.00  0.00     0.020 A 
HETATM    4  C2  UNK     1      -3.224  -0.301   0.866  1.00  0.00    -0.045 A 
HETATM    5  C4  UNK     1      -3.979  -0.685   1.975  1.00  0.00     0.044 A 
HETATM    6  C7  UNK     1      -3.890   0.466  -0.229  1.00  0.00     0.049 C 
HETATM    7  C8  UNK     1      -3.381  -1.403   3.010  1.00  0.00     0.066 A 
HETATM    8  C9  UNK     1      -2.028  -1.738   2.937  1.00  0.00     0.037 A 
HETATM    9  C3  UNK     1      -1.274  -1.354   1.828  1.00  0.00     0.019 A 
BRANCH   7  10
HETATM   10  O1  UNK     1      -4.117  -1.778   4.092  1.00  0.00    -0.361 OA
HETATM   11  H13 UNK     1      -3.544  -2.267   4.708  1.00  0.00     0.217 HD
ENDBRANCH   7  10
ENDBRANCH   2   3
BRANCH   2  12
HETATM   12  C10 UNK     1      -0.409  -1.329  -1.169  1.00  0.00     0.056 C 
HETATM   13  C11 UNK     1       0.747  -1.102  -1.832  1.00  0.00     0.015 C 
BRANCH  13  14
HETATM   14  C6  UNK     1       1.469   0.161  -1.851  1.00  0.00    -0.036 A 
HETATM   15  C12 UNK     1       1.693   0.818  -3.061  1.00  0.00     0.014 A 
HETATM   16  C15 UNK     1       2.387   2.028  -3.080  1.00  0.00     0.037 A 
HETATM   17  C14 UNK     1       2.856   2.580  -1.888  1.00  0.00     0.068 A 
HETATM   18  C16 UNK     1       2.632   1.923  -0.678  1.00  0.00     0.037 A 
HETATM   19  C13 UNK     1       1.938   0.714  -0.660  1.00  0.00     0.014 A 
BRANCH  17  20
HETATM   20  O2  UNK     1       3.534   3.761  -1.906  1.00  0.00    -0.356 OA
HETATM   21  C17 UNK     1       3.986   4.269  -0.652  1.00  0.00     0.210 C 
ENDBRANCH  17  20
ENDBRANCH  13  14
ENDBRANCH   2  12
TORSDOF 5
