REMARK  7 active torsions:
REMARK  status: ('A' for Active; 'I' for Inactive)
REMARK    1  A    between atoms: C2_7  and  O1_1 
REMARK    2  A    between atoms: C7_12  and  O2_2 
REMARK    3  A    between atoms: C13_18  and  O3_3 
REMARK    4  A    between atoms: C8_13  and  O4_4 
REMARK    5  A    between atoms: C1_6  and  C5_10 
REMARK    6  A    between atoms: C3_8  and  C9_14 
REMARK    7  A    between atoms: C11_16  and  C9_14 
ROOT
HETATM    1  O5  UNK     1      -0.142   1.419   0.653  1.00  0.00    -0.287 OA
HETATM    2  C9  UNK     1      -1.141   0.878   0.192  1.00  0.00     0.184 C 
ENDROOT
BRANCH   2   3
HETATM    3  C11 UNK     1      -1.641   1.152  -1.184  1.00  0.00     0.056 C 
HETATM    4  C5  UNK     1      -0.778   1.494  -2.166  1.00  0.00     0.018 C 
BRANCH   4   5
HETATM    5  C1  UNK     1       0.664   1.628  -2.005  1.00  0.00    -0.003 A 
HETATM    6  C2  UNK     1       1.512   0.535  -2.187  1.00  0.00     0.081 A 
HETATM    7  C6  UNK     1       2.889   0.688  -2.028  1.00  0.00     0.074 A 
HETATM    8  C7  UNK     1       3.419   1.933  -1.688  1.00  0.00     0.070 A 
HETATM    9  C10 UNK     1       2.570   3.025  -1.506  1.00  0.00     0.038 A 
HETATM   10  C4  UNK     1       1.193   2.873  -1.665  1.00  0.00     0.017 A 
BRANCH   6  11
HETATM   11  O1  UNK     1       1.021  -0.693  -2.520  1.00  0.00    -0.355 OA
HETATM   12  C16 UNK     1       0.898  -0.985  -3.910  1.00  0.00     0.210 C 
ENDBRANCH   6  11
BRANCH   8  13
HETATM   13  O2  UNK     1       4.763   2.082  -1.533  1.00  0.00    -0.356 OA
HETATM   14  C17 UNK     1       5.236   3.382  -1.185  1.00  0.00     0.210 C 
ENDBRANCH   8  13
ENDBRANCH   4   5
ENDBRANCH   2   3
BRANCH   2  15
HETATM   15  C3  UNK     1      -1.918  -0.067   1.030  1.00  0.00     0.047 A 
HETATM   16  C12 UNK     1      -2.630  -1.096   0.412  1.00  0.00     0.021 A 
HETATM   17  C15 UNK     1      -3.367  -1.995   1.183  1.00  0.00     0.038 A 
HETATM   18  C13 UNK     1      -3.392  -1.866   2.572  1.00  0.00     0.070 A 
HETATM   19  C14 UNK     1      -2.681  -0.837   3.190  1.00  0.00     0.074 A 
HETATM   20  C8  UNK     1      -1.944   0.062   2.419  1.00  0.00     0.082 A 
BRANCH  18  21
HETATM   21  O3  UNK     1      -4.112  -2.743   3.323  1.00  0.00    -0.356 OA
HETATM   22  C18 UNK     1      -4.816  -3.770   2.626  1.00  0.00     0.210 C 
ENDBRANCH  18  21
BRANCH  20  23
HETATM   23  O4  UNK     1      -1.256   1.060   3.041  1.00  0.00    -0.360 OA
HETATM   24  H12 UNK     1      -0.866   1.665   2.391  1.00  0.00     0.217 HD
ENDBRANCH  20  23
ENDBRANCH   2  15
TORSDOF 7
