REMARK  3 active torsions:
REMARK  status: ('A' for Active; 'I' for Inactive)
REMARK       I    between atoms: C5_9  and  N1_4 
REMARK    1  A    between atoms: C5_9  and  C6_10 
REMARK    2  A    between atoms: C6_10  and  C7_11 
REMARK    3  A    between atoms: C8_12  and  C9_13 
ROOT
HETATM    1  C6  UNK     1      -0.075  -0.503  -0.237  1.00  0.00     0.043 C 
HETATM    2  C8  UNK     1       0.933  -0.122   0.568  1.00  0.00     0.031 C 
ENDROOT
BRANCH   1   3
HETATM    3  C5  UNK     1      -0.914  -1.599   0.287  1.00  0.00     0.254 C 
HETATM    4  O2  UNK     1      -0.581  -2.752   0.009  1.00  0.00    -0.267 OA
HETATM    5  N1  UNK     1      -2.023  -1.261   1.055  1.00  0.00    -0.344 N 
HETATM    6  C1  UNK     1      -2.466   0.092   1.417  1.00  0.00     0.152 C 
HETATM    7  C2  UNK     1      -2.961  -2.310   1.461  1.00  0.00     0.152 C 
HETATM    8  C3  UNK     1      -2.830   0.145   2.895  1.00  0.00     0.187 C 
HETATM    9  O1  UNK     1      -3.809  -0.852   3.202  1.00  0.00    -0.388 OA
HETATM   10  C4  UNK     1      -3.307  -2.165   2.936  1.00  0.00     0.187 C 
ENDBRANCH   1   3
BRANCH   1  11
HETATM   11  C7  UNK     1      -0.382   0.080  -1.551  1.00  0.00    -0.021 A 
HETATM   12  C10 UNK     1       0.202  -0.458  -2.688  1.00  0.00     0.012 A 
HETATM   13  C14 UNK     1      -0.090   0.095  -3.935  1.00  0.00     0.001 A 
HETATM   14  C16 UNK     1      -0.962   1.179  -4.031  1.00  0.00     0.000 A 
HETATM   15  C15 UNK     1      -1.543   1.711  -2.880  1.00  0.00     0.001 A 
HETATM   16  C11 UNK     1      -1.251   1.158  -1.633  1.00  0.00     0.012 A 
ENDBRANCH   1  11
BRANCH   2  17
HETATM   17  C9  UNK     1       1.927   0.920   0.270  1.00  0.00    -0.013 A 
HETATM   18  C12 UNK     1       3.126   0.626  -0.366  1.00  0.00     0.044 A 
HETATM   19 Cl1  UNK     1       3.544  -0.979  -0.855  1.00  0.00    -0.083 Cl
HETATM   20  C17 UNK     1       4.036   1.650  -0.626  1.00  0.00     0.024 A 
HETATM   21  C19 UNK     1       3.739   2.960  -0.248  1.00  0.00     0.002 A 
HETATM   22  C18 UNK     1       2.531   3.245   0.390  1.00  0.00     0.001 A 
HETATM   23  C13 UNK     1       1.621   2.220   0.650  1.00  0.00     0.013 A 
ENDBRANCH   2  17
TORSDOF 3
