REMARK  6 active torsions:
REMARK  status: ('A' for Active; 'I' for Inactive)
REMARK    1  A    between atoms: C5_12  and  N1_5 
REMARK    2  A    between atoms: C6_13  and  N2_6 
REMARK    3  A    between atoms: C18_25  and  N3_7 
REMARK       I    between atoms: C9_16  and  N3_7 
REMARK    4  A    between atoms: C5_12  and  C7_14 
REMARK    5  A    between atoms: C6_13  and  C9_16 
REMARK    6  A    between atoms: C13_20  and  C17_24 
ROOT
HETATM    1  N1  UNK     1       1.581  -0.303  -0.610  1.00  0.00     0.096 N 
HETATM    2  N2  UNK     1      -0.354  -1.315   1.284  1.00  0.00     0.100 N 
HETATM    3  C1  UNK     1       0.233  -0.700  -1.036  1.00  0.00     0.303 C 
HETATM    4  C2  UNK     1       1.998  -1.079   0.564  1.00  0.00     0.303 C 
HETATM    5  C3  UNK     1      -0.771  -0.538   0.111  1.00  0.00     0.303 C 
HETATM    6  C4  UNK     1       0.993  -0.916   1.710  1.00  0.00     0.303 C 
ENDROOT
BRANCH   1   7
HETATM    7  C5  UNK     1       2.538  -0.462  -1.703  1.00  0.00     0.312 C 
BRANCH   7   8
HETATM    8  C7  UNK     1       2.483   0.672  -2.668  1.00  0.00    -0.011 A 
HETATM    9  C10 UNK     1       1.664   0.638  -3.729  1.00  0.00     0.092 A 
HETATM   10  C14 UNK     1       1.574   1.733  -4.709  1.00  0.00     0.288 A 
HETATM   11  O1  UNK     1       2.389   2.833  -4.491  1.00  0.00    -0.275 OA
HETATM   12  O3  UNK     1       0.812   1.668  -5.667  1.00  0.00    -0.260 OA
HETATM   13  C11 UNK     1       3.259   2.897  -3.384  1.00  0.00     0.090 A 
HETATM   14  C8  UNK     1       3.334   1.851  -2.464  1.00  0.00     0.007 A 
HETATM   15  C15 UNK     1       4.033   4.053  -3.265  1.00  0.00     0.039 A 
HETATM   16  C12 UNK     1       4.226   1.992  -1.391  1.00  0.00     0.022 A 
HETATM   17  C13 UNK     1       5.008   3.144  -1.258  1.00  0.00    -0.058 A 
HETATM   18  C16 UNK     1       4.912   4.173  -2.193  1.00  0.00     0.010 A 
BRANCH  17  19
HETATM   19  C17 UNK     1       5.951   3.272  -0.108  1.00  0.00     0.034 C 
HETATM   20  C19 UNK     1       5.297   3.925   1.107  1.00  0.00     0.010 C 
ENDBRANCH  17  19
ENDBRANCH   7   8
ENDBRANCH   1   7
BRANCH   2  21
HETATM   21  C6  UNK     1      -1.312  -1.158   2.377  1.00  0.00     0.375 C 
BRANCH  21  22
HETATM   22  C9  UNK     1      -2.507  -2.064   2.136  1.00  0.00     0.250 C 
HETATM   23  O2  UNK     1      -2.418  -3.130   1.536  1.00  0.00    -0.271 OA
HETATM   24  N3  UNK     1      -3.656  -1.504   2.691  1.00  0.00    -0.323 N 
HETATM   25  H16 UNK     1      -3.566  -0.611   3.170  1.00  0.00     0.169 HD
BRANCH  24  26
HETATM   26  C18 UNK     1      -4.967  -2.036   2.681  1.00  0.00     0.073 A 
HETATM   27  C20 UNK     1      -6.011  -1.338   3.288  1.00  0.00     0.143 A 
HETATM   28  F1  UNK     1      -5.784  -0.159   3.886  1.00  0.00    -0.204 F 
HETATM   29  C22 UNK     1      -7.303  -1.864   3.275  1.00  0.00     0.044 A 
HETATM   30  C24 UNK     1      -7.551  -3.088   2.654  1.00  0.00     0.003 A 
HETATM   31  C23 UNK     1      -6.507  -3.787   2.047  1.00  0.00     0.002 A 
HETATM   32  C21 UNK     1      -5.215  -3.261   2.060  1.00  0.00     0.033 A 
ENDBRANCH  24  26
ENDBRANCH  21  22
ENDBRANCH   2  21
TORSDOF 6
