REMARK  1 active torsions:
REMARK  status: ('A' for Active; 'I' for Inactive)
REMARK    1  A    between atoms: C12_15  and  C7_10 
ROOT
HETATM    1  O1  UNK     1       0.534   0.412  -0.115  1.00  0.00    -0.307 OA
HETATM    2  O2  UNK     1      -1.474  -0.133  -3.609  1.00  0.00    -0.287 OA
HETATM    3  C1  UNK     1      -0.712  -0.174  -0.090  1.00  0.00     0.101 A 
HETATM    4  C2  UNK     1      -1.230  -0.562   1.167  1.00  0.00     0.009 A 
HETATM    5  C3  UNK     1      -1.448  -0.384  -1.258  1.00  0.00     0.049 A 
HETATM    6  C4  UNK     1      -2.511  -1.168   1.216  1.00  0.00    -0.023 A 
HETATM    7  C5  UNK     1      -2.706  -0.979  -1.204  1.00  0.00     0.019 A 
HETATM    8  C6  UNK     1      -3.232  -1.367   0.028  1.00  0.00     0.013 A 
HETATM    9  C7  UNK     1       1.069   0.808  -1.329  1.00  0.00     0.097 A 
HETATM   10  C8  UNK     1      -0.880   0.028  -2.552  1.00  0.00     0.187 A 
HETATM   11  C9  UNK     1      -0.531  -0.377   2.379  1.00  0.00     0.015 A 
HETATM   12  C10 UNK     1       0.457   0.650  -2.512  1.00  0.00     0.094 A 
HETATM   13  C11 UNK     1      -3.047  -1.563   2.453  1.00  0.00     0.012 A 
HETATM   14  C13 UNK     1      -1.079  -0.775   3.599  1.00  0.00     0.001 A 
HETATM   15  C14 UNK     1      -2.335  -1.368   3.636  1.00  0.00     0.001 A 
ENDROOT
BRANCH   9  16
HETATM   16  C12 UNK     1       2.411   1.415  -1.221  1.00  0.00     0.038 A 
HETATM   17  S1  UNK     1       3.144   1.592   0.322  1.00  0.00    -0.099 SA
HETATM   18  C17 UNK     1       4.544   2.308  -0.355  1.00  0.00     0.050 A 
HETATM   19  C16 UNK     1       4.461   2.413  -1.726  1.00  0.00     0.008 A 
HETATM   20  C15 UNK     1       3.230   1.898  -2.227  1.00  0.00     0.022 A 
ENDBRANCH   9  16
TORSDOF 1
