REMARK  1 active torsions:
REMARK  status: ('A' for Active; 'I' for Inactive)
REMARK    1  A    between atoms: C1_6  and  C4_9 
ROOT
HETATM    1  N1  UNK     1       1.161   1.188   0.395  1.00  0.00    -0.261 N 
HETATM    2  N2  UNK     1       1.572   1.145   1.682  1.00  0.00    -0.300 N 
HETATM    3  N3  UNK     1      -0.268   1.723  -1.553  1.00  0.00    -0.256 NA
HETATM    4  C1  UNK     1      -0.116   1.657  -0.082  1.00  0.00     0.269 C 
HETATM    5  C2  UNK     1       2.244   1.017  -0.449  1.00  0.00     0.068 A 
HETATM    6  C3  UNK     1       2.167   1.124  -1.780  1.00  0.00     0.021 A 
HETATM    7  C5  UNK     1       0.780   1.481  -2.277  1.00  0.00     0.066 A 
HETATM    8  C6  UNK     1       3.382   0.748   0.432  1.00  0.00     0.058 A 
HETATM    9  C7  UNK     1       2.924   0.830   1.704  1.00  0.00     0.024 A 
HETATM   10  C9  UNK     1       3.247   0.950  -2.723  1.00  0.00     0.016 A 
HETATM   11  C11 UNK     1       0.652   1.559  -3.765  1.00  0.00     0.032 A 
HETATM   12  C13 UNK     1       3.661   0.603   2.969  1.00  0.00     0.070 C 
HETATM   13  C15 UNK     1       3.026   1.064  -4.039  1.00  0.00     0.001 A 
HETATM   14  C16 UNK     1       1.713   1.361  -4.557  1.00  0.00     0.002 A 
HETATM   15  H2  UNK     1       0.963   0.952   2.466  1.00  0.00     0.187 HD
ENDROOT
BRANCH   4  16
HETATM   16  C4  UNK     1      -1.192   0.764   0.452  1.00  0.00     0.061 A 
HETATM   17  C10 UNK     1      -2.176   1.180   1.260  1.00  0.00     0.157 A 
HETATM   18  O1  UNK     1      -3.190   0.416   1.781  1.00  0.00    -0.321 OA
HETATM   19  C14 UNK     1      -3.215  -0.916   1.451  1.00  0.00     0.089 A 
HETATM   20  C12 UNK     1      -2.262  -1.504   0.619  1.00  0.00     0.049 A 
HETATM   21  C18 UNK     1      -4.249  -1.687   1.984  1.00  0.00     0.038 A 
HETATM   22  C17 UNK     1      -2.337  -2.866   0.316  1.00  0.00     0.018 A 
HETATM   23  C8  UNK     1      -1.178  -0.670   0.067  1.00  0.00     0.197 A 
HETATM   24  C19 UNK     1      -3.372  -3.635   0.851  1.00  0.00     0.001 A 
HETATM   25  C20 UNK     1      -4.326  -3.047   1.683  1.00  0.00     0.003 A 
HETATM   26  O2  UNK     1      -0.319  -1.139  -0.666  1.00  0.00    -0.287 OA
ENDBRANCH   4  16
TORSDOF 1
