REMARK  3 active torsions:
REMARK  status: ('A' for Active; 'I' for Inactive)
REMARK    1  A    between atoms: C5_10  and  O2_3 
REMARK    2  A    between atoms: C8_13  and  O3_4 
REMARK    3  A    between atoms: C3_8  and  C6_11 
ROOT
HETATM    1  O1  UNK     1       0.206  -0.177   2.050  1.00  0.00    -0.321 OA
HETATM    2  O4  UNK     1      -0.589   0.465  -1.901  1.00  0.00    -0.286 OA
HETATM    3  C1  UNK     1      -1.327  -0.359   0.177  1.00  0.00     0.082 A 
HETATM    4  C2  UNK     1      -1.005  -0.544   1.521  1.00  0.00     0.094 A 
HETATM    5  C3  UNK     1       0.974   0.623  -0.111  1.00  0.00     0.048 A 
HETATM    6  C4  UNK     1      -0.334   0.258  -0.721  1.00  0.00     0.200 A 
HETATM    7  C5  UNK     1      -2.579  -0.751  -0.306  1.00  0.00     0.087 A 
HETATM    8  C7  UNK     1      -1.931  -1.123   2.390  1.00  0.00     0.075 A 
HETATM    9  C8  UNK     1      -3.180  -1.516   1.909  1.00  0.00     0.073 A 
HETATM   10  C9  UNK     1      -3.503  -1.331   0.565  1.00  0.00     0.074 A 
HETATM   11  C10 UNK     1       1.131   0.377   1.199  1.00  0.00     0.159 A 
ENDROOT
BRANCH   5  12
HETATM   12  C6  UNK     1       2.067   1.210  -0.904  1.00  0.00    -0.020 A 
HETATM   13  C11 UNK     1       2.996   0.382  -1.538  1.00  0.00     0.014 A 
HETATM   14  C13 UNK     1       4.031   0.938  -2.289  1.00  0.00     0.024 A 
HETATM   15  C15 UNK     1       4.140   2.324  -2.407  1.00  0.00     0.034 A 
HETATM   16  C14 UNK     1       3.214   3.153  -1.775  1.00  0.00     0.024 A 
HETATM   17 Cl1  UNK     1       5.418   3.010  -3.334  1.00  0.00    -0.084 Cl
HETATM   18  C12 UNK     1       2.178   2.596  -1.024  1.00  0.00     0.014 A 
ENDBRANCH   5  12
BRANCH   7  19
HETATM   19  O2  UNK     1      -2.946  -0.593  -1.608  1.00  0.00    -0.355 OA
HETATM   20  C16 UNK     1      -2.656  -1.667  -2.499  1.00  0.00     0.210 C 
ENDBRANCH   7  19
BRANCH   9  21
HETATM   21  O3  UNK     1      -4.085  -2.083   2.754  1.00  0.00    -0.356 OA
HETATM   22  C17 UNK     1      -3.689  -2.245   4.115  1.00  0.00     0.210 C 
ENDBRANCH   9  21
TORSDOF 3
