REMARK  3 active torsions:
REMARK  status: ('A' for Active; 'I' for Inactive)
REMARK    1  A    between atoms: C14_19  and  O3_3 
REMARK    2  A    between atoms: C3_8  and  N1_5 
REMARK    3  A    between atoms: C3_8  and  C6_11 
ROOT
HETATM    1  O2  UNK     1       0.528   0.413  -2.793  1.00  0.00    -0.275 OA
HETATM    2  O4  UNK     1      -1.344  -0.261  -3.920  1.00  0.00    -0.260 OA
HETATM    3  C6  UNK     1      -1.069   0.627  -0.468  1.00  0.00    -0.011 A 
HETATM    4  C7  UNK     1       0.364   0.948  -0.416  1.00  0.00     0.006 A 
HETATM    5  C8  UNK     1      -1.604   0.232  -1.632  1.00  0.00     0.092 A 
HETATM    6  C9  UNK     1       1.119   0.830  -1.584  1.00  0.00     0.093 A 
HETATM    7  C10 UNK     1       1.025   1.368   0.746  1.00  0.00     0.017 A 
HETATM    8  C11 UNK     1      -0.820   0.102  -2.873  1.00  0.00     0.288 A 
HETATM    9  C12 UNK     1       2.485   1.115  -1.621  1.00  0.00     0.075 A 
HETATM   10  C13 UNK     1       2.395   1.657   0.725  1.00  0.00     0.038 A 
HETATM   11  C14 UNK     1       3.123   1.530  -0.457  1.00  0.00     0.070 A 
ENDROOT
BRANCH   3  12
HETATM   12  C3  UNK     1      -1.908   0.745   0.770  1.00  0.00     0.312 C 
BRANCH  12  13
HETATM   13  N1  UNK     1      -1.893  -0.532   1.481  1.00  0.00     0.096 N 
HETATM   14  C1  UNK     1      -2.435  -1.605   0.636  1.00  0.00     0.299 C 
HETATM   15  C4  UNK     1      -2.421  -2.925   1.403  1.00  0.00     0.198 C 
HETATM   16  O1  UNK     1      -3.177  -2.808   2.608  1.00  0.00    -0.388 OA
HETATM   17  C5  UNK     1      -2.637  -1.788   3.450  1.00  0.00     0.198 C 
HETATM   18  C2  UNK     1      -2.658  -0.442   2.733  1.00  0.00     0.299 C 
ENDBRANCH  12  13
ENDBRANCH   3  12
BRANCH  11  19
HETATM   19  O3  UNK     1       4.454   1.811  -0.471  1.00  0.00    -0.356 OA
HETATM   20  C15 UNK     1       5.137   1.661  -1.715  1.00  0.00     0.210 C 
ENDBRANCH  11  19
TORSDOF 3
