REMARK  3 active torsions:
REMARK  status: ('A' for Active; 'I' for Inactive)
REMARK    1  A    between atoms: C12_22  and  N3_9 
REMARK    2  A    between atoms: C14_24  and  N4_10 
REMARK    3  A    between atoms: C1_11  and  C2_12 
ROOT
HETATM    1  O1  UNK     1       2.498   1.485   0.926  1.00  0.00    -0.274 OA
HETATM    2  O2  UNK     1       0.852   0.781   2.340  1.00  0.00    -0.259 OA
HETATM    3  C2  UNK     1       0.417   0.565   0.009  1.00  0.00     0.086 A 
HETATM    4  C5  UNK     1       2.175   1.345  -1.477  1.00  0.00     0.001 A 
HETATM    5  C6  UNK     1       0.865   0.762  -1.240  1.00  0.00     0.035 A 
HETATM    6  C7  UNK     1       2.964   1.692  -0.386  1.00  0.00     0.089 A 
HETATM    7  C9  UNK     1       1.244   0.938   1.189  1.00  0.00     0.302 A 
HETATM    8  C11 UNK     1       2.670   1.567  -2.765  1.00  0.00     0.050 A 
HETATM    9  C13 UNK     1       4.229   2.254  -0.544  1.00  0.00     0.041 A 
HETATM   10  C14 UNK     1       3.938   2.129  -2.940  1.00  0.00     0.103 A 
HETATM   11  C16 UNK     1       4.716   2.472  -1.832  1.00  0.00     0.039 A 
ENDROOT
BRANCH   3  12
HETATM   12  C1  UNK     1      -0.874  -0.018   0.207  1.00  0.00     0.145 A 
HETATM   13  N1  UNK     1      -1.060  -0.762   1.338  1.00  0.00    -0.338 N 
HETATM   14  C3  UNK     1      -2.353  -1.221   1.330  1.00  0.00     0.065 A 
HETATM   15  H1  UNK     1      -0.376  -0.960   2.056  1.00  0.00     0.167 HD
HETATM   16  C8  UNK     1      -3.073  -2.015   2.223  1.00  0.00     0.068 A 
HETATM   17  C4  UNK     1      -2.894  -0.710   0.153  1.00  0.00     0.086 A 
HETATM   18  C12 UNK     1      -4.403  -2.292   1.888  1.00  0.00     0.105 A 
HETATM   19  C15 UNK     1      -4.973  -1.793   0.715  1.00  0.00     0.038 A 
HETATM   20  C10 UNK     1      -4.231  -0.998  -0.167  1.00  0.00     0.036 A 
HETATM   21  N2  UNK     1      -1.961   0.035  -0.531  1.00  0.00    -0.228 NA
BRANCH  18  22
HETATM   22  N3  UNK     1      -5.186  -3.097   2.759  1.00  0.00    -0.116 N 
HETATM   23  O3  UNK     1      -6.377  -3.342   2.452  1.00  0.00    -0.532 OA
HETATM   24  O4  UNK     1      -4.663  -3.540   3.810  1.00  0.00    -0.532 OA
ENDBRANCH  18  22
ENDBRANCH   3  12
BRANCH  10  25
HETATM   25  N4  UNK     1       4.438   2.352  -4.250  1.00  0.00    -0.116 N 
HETATM   26  O5  UNK     1       5.579   2.857  -4.387  1.00  0.00    -0.532 OA
HETATM   27  O6  UNK     1       3.726   2.038  -5.234  1.00  0.00    -0.532 OA
ENDBRANCH  10  25
TORSDOF 3
