REMARK  6 active torsions:
REMARK  status: ('A' for Active; 'I' for Inactive)
REMARK    1  A    between atoms: C19_27  and  O4_5 
REMARK    2  A    between atoms: C5_13  and  N1_6 
REMARK    3  A    between atoms: C6_14  and  N2_7 
REMARK    4  A    between atoms: C17_25  and  N3_8 
REMARK       I    between atoms: C9_17  and  N3_8 
REMARK    5  A    between atoms: C5_13  and  C7_15 
REMARK    6  A    between atoms: C6_14  and  C9_17 
ROOT
HETATM    1  N1  UNK     1       1.246   0.332  -1.663  1.00  0.00     0.096 N 
HETATM    2  N2  UNK     1      -1.450  -0.113  -0.718  1.00  0.00     0.100 N 
HETATM    3  C1  UNK     1       0.905  -0.849  -0.860  1.00  0.00     0.303 C 
HETATM    4  C2  UNK     1       0.082   0.779  -2.439  1.00  0.00     0.303 C 
HETATM    5  C3  UNK     1      -0.286  -0.558   0.059  1.00  0.00     0.303 C 
HETATM    6  C4  UNK     1      -1.109   1.068  -1.520  1.00  0.00     0.303 C 
ENDROOT
BRANCH   2   7
HETATM    7  C6  UNK     1      -2.585   0.165   0.160  1.00  0.00     0.375 C 
BRANCH   7   8
HETATM    8  C9  UNK     1      -3.222  -1.144   0.593  1.00  0.00     0.250 C 
HETATM    9  O2  UNK     1      -3.204  -2.151  -0.108  1.00  0.00    -0.271 OA
HETATM   10  N3  UNK     1      -3.793  -1.007   1.857  1.00  0.00    -0.323 N 
HETATM   11  H15 UNK     1      -3.722  -0.101   2.314  1.00  0.00     0.169 HD
BRANCH  10  12
HETATM   12  C17 UNK     1      -4.479  -1.993   2.605  1.00  0.00     0.070 A 
HETATM   13  C19 UNK     1      -4.995  -1.697   3.866  1.00  0.00     0.095 A 
HETATM   14  C21 UNK     1      -5.669  -2.679   4.593  1.00  0.00     0.041 A 
HETATM   15  C23 UNK     1      -5.826  -3.958   4.058  1.00  0.00     0.026 A 
HETATM   16  C22 UNK     1      -5.309  -4.254   2.797  1.00  0.00     0.036 A 
HETATM   17  C20 UNK     1      -4.636  -3.272   2.070  1.00  0.00     0.056 A 
HETATM   18 Cl1  UNK     1      -5.503  -5.832   2.137  1.00  0.00    -0.084 Cl
BRANCH  13  19
HETATM   19  O4  UNK     1      -4.853  -0.454   4.407  1.00  0.00    -0.354 OA
HETATM   20  C24 UNK     1      -5.881   0.494   4.131  1.00  0.00     0.210 C 
ENDBRANCH  13  19
ENDBRANCH  10  12
ENDBRANCH   7   8
ENDBRANCH   2   7
BRANCH   1  21
HETATM   21  C5  UNK     1       2.380   0.052  -2.542  1.00  0.00     0.312 C 
BRANCH  21  22
HETATM   22  C7  UNK     1       3.096   1.293  -2.948  1.00  0.00    -0.011 A 
HETATM   23  C10 UNK     1       2.744   1.967  -4.052  1.00  0.00     0.092 A 
HETATM   24  C13 UNK     1       3.422   3.198  -4.492  1.00  0.00     0.288 A 
HETATM   25  O1  UNK     1       4.468   3.649  -3.703  1.00  0.00    -0.275 OA
HETATM   26  O3  UNK     1       3.072   3.788  -5.508  1.00  0.00    -0.260 OA
HETATM   27  C11 UNK     1       4.861   2.962  -2.537  1.00  0.00     0.090 A 
HETATM   28  C8  UNK     1       4.209   1.796  -2.132  1.00  0.00     0.006 A 
HETATM   29  C14 UNK     1       5.928   3.508  -1.819  1.00  0.00     0.045 A 
HETATM   30  C12 UNK     1       4.661   1.172  -0.961  1.00  0.00     0.015 A 
HETATM   31  C16 UNK     1       5.728   1.707  -0.231  1.00  0.00     0.007 A 
HETATM   32  C15 UNK     1       6.361   2.873  -0.660  1.00  0.00    -0.059 A 
HETATM   33  C18 UNK     1       7.498   3.437   0.123  1.00  0.00     0.048 C 
ENDBRANCH  21  22
ENDBRANCH   1  21
TORSDOF 6
