REMARK  6 active torsions:
REMARK  status: ('A' for Active; 'I' for Inactive)
REMARK    1  A    between atoms: C13_16  and  O2_2 
REMARK    2  A    between atoms: C15_18  and  O2_2 
REMARK    3  A    between atoms: C1_4  and  C2_5 
REMARK    4  A    between atoms: C1_4  and  C3_6 
REMARK    5  A    between atoms: C3_6  and  C6_9 
REMARK    6  A    between atoms: C15_18  and  C16_19 
ROOT
HETATM    1  O1  UNK     1       0.717  -0.472   1.095  1.00  0.00    -0.274 OA
HETATM    2  O3  UNK     1      -0.409  -1.449   2.806  1.00  0.00    -0.259 OA
HETATM    3  C2  UNK     1      -1.580  -1.268   0.740  1.00  0.00     0.024 A 
HETATM    4  C4  UNK     1      -1.569  -0.826  -0.536  1.00  0.00    -0.037 A 
HETATM    5  C5  UNK     1      -0.346  -0.197  -1.076  1.00  0.00     0.005 A 
HETATM    6  C7  UNK     1       0.755  -0.040  -0.239  1.00  0.00     0.092 A 
HETATM    7  C8  UNK     1      -0.401  -1.084   1.634  1.00  0.00     0.295 A 
HETATM    8  C9  UNK     1      -2.754  -0.920  -1.465  1.00  0.00     0.050 C 
HETATM    9  C10 UNK     1      -0.213   0.253  -2.399  1.00  0.00     0.017 A 
HETATM   10  C11 UNK     1       1.949   0.544  -0.670  1.00  0.00     0.075 A 
HETATM   11  C13 UNK     1       2.056   0.988  -1.982  1.00  0.00     0.071 A 
HETATM   12  C14 UNK     1       0.976   0.840  -2.848  1.00  0.00     0.038 A 
ENDROOT
BRANCH   3  13
HETATM   13  C1  UNK     1      -2.735  -1.982   1.394  1.00  0.00     0.045 C 
BRANCH  13  14
HETATM   14  C3  UNK     1      -3.688  -1.000   2.062  1.00  0.00     0.004 C 
BRANCH  14  15
HETATM   15  C6  UNK     1      -4.869  -1.737   2.695  1.00  0.00    -0.004 C 
HETATM   16  C12 UNK     1      -5.852  -0.769   3.334  1.00  0.00     0.005 C 
ENDBRANCH  14  15
ENDBRANCH  13  14
ENDBRANCH   3  13
BRANCH  11  17
HETATM   17  O2  UNK     1       3.210   1.559  -2.421  1.00  0.00    -0.347 OA
BRANCH  17  18
HETATM   18  C15 UNK     1       3.990   2.269  -1.460  1.00  0.00     0.202 C 
BRANCH  18  19
HETATM   19  C16 UNK     1       4.769   3.330  -2.164  1.00  0.00    -0.011 C 
HETATM   20  C17 UNK     1       4.658   4.637  -1.900  1.00  0.00     0.009 C 
ENDBRANCH  18  19
ENDBRANCH  17  18
ENDBRANCH  11  17
TORSDOF 6
