REMARK  5 active torsions:
REMARK  status: ('A' for Active; 'I' for Inactive)
REMARK    1  A    between atoms: C21_26  and  O3_3 
REMARK    2  A    between atoms: C5_10  and  N1_4 
REMARK    3  A    between atoms: C6_11  and  N2_5 
REMARK    4  A    between atoms: C5_10  and  C7_12 
REMARK    5  A    between atoms: C6_11  and  C8_13 
ROOT
HETATM    1  N1  UNK     1      -0.198  -0.458   0.373  1.00  0.00     0.096 N 
HETATM    2  N2  UNK     1       1.695   1.601  -0.360  1.00  0.00     0.096 N 
HETATM    3  C1  UNK     1       0.540   0.298   1.393  1.00  0.00     0.303 C 
HETATM    4  C2  UNK     1       0.589  -0.550  -0.863  1.00  0.00     0.303 C 
HETATM    5  C3  UNK     1       0.910   1.693   0.878  1.00  0.00     0.303 C 
HETATM    6  C4  UNK     1       0.958   0.845  -1.380  1.00  0.00     0.303 C 
ENDROOT
BRANCH   1   7
HETATM    7  C5  UNK     1      -0.549  -1.788   0.865  1.00  0.00     0.312 C 
BRANCH   7   8
HETATM    8  C7  UNK     1      -1.748  -1.763   1.747  1.00  0.00    -0.011 A 
HETATM    9  C10 UNK     1      -1.631  -1.591   3.072  1.00  0.00     0.092 A 
HETATM   10  C15 UNK     1      -2.788  -1.558   3.983  1.00  0.00     0.288 A 
HETATM   11  O1  UNK     1      -4.039  -1.716   3.407  1.00  0.00    -0.275 OA
HETATM   12  O2  UNK     1      -2.642  -1.399   5.190  1.00  0.00    -0.260 OA
HETATM   13  C11 UNK     1      -4.194  -1.899   2.018  1.00  0.00     0.090 A 
HETATM   14  C16 UNK     1      -5.500  -2.048   1.549  1.00  0.00     0.045 A 
HETATM   15  C9  UNK     1      -3.088  -1.927   1.167  1.00  0.00     0.006 A 
HETATM   16  C17 UNK     1      -5.715  -2.231   0.188  1.00  0.00    -0.059 A 
HETATM   17  C18 UNK     1      -4.630  -2.264  -0.686  1.00  0.00     0.007 A 
HETATM   18  C22 UNK     1      -7.102  -2.392  -0.336  1.00  0.00     0.048 C 
HETATM   19  C14 UNK     1      -3.326  -2.114  -0.201  1.00  0.00     0.015 A 
ENDBRANCH   7   8
ENDBRANCH   1   7
BRANCH   2  20
HETATM   20  C6  UNK     1       2.044   2.933  -0.852  1.00  0.00     0.311 C 
BRANCH  20  21
HETATM   21  C8  UNK     1       3.207   2.823  -1.785  1.00  0.00    -0.030 A 
HETATM   22  C12 UNK     1       3.197   3.514  -2.997  1.00  0.00     0.011 A 
HETATM   23  C19 UNK     1       4.282   3.410  -3.868  1.00  0.00     0.037 A 
HETATM   24  C21 UNK     1       5.376   2.615  -3.527  1.00  0.00     0.068 A 
HETATM   25  C20 UNK     1       5.386   1.925  -2.315  1.00  0.00     0.037 A 
HETATM   26  C13 UNK     1       4.301   2.028  -1.444  1.00  0.00     0.011 A 
BRANCH  24  27
HETATM   27  O3  UNK     1       6.436   2.515  -4.375  1.00  0.00    -0.356 OA
HETATM   28  C23 UNK     1       6.360   3.248  -5.597  1.00  0.00     0.210 C 
ENDBRANCH  24  27
ENDBRANCH  20  21
ENDBRANCH   2  20
TORSDOF 5
