REMARK  5 active torsions:
REMARK  status: ('A' for Active; 'I' for Inactive)
REMARK    1  A    between atoms: C14_19  and  O3_3 
REMARK    2  A    between atoms: C1_6  and  N1_5 
REMARK    3  A    between atoms: C2_7  and  N1_5 
REMARK    4  A    between atoms: C3_8  and  N1_5 
REMARK    5  A    between atoms: C12_17  and  C14_19 
ROOT
HETATM    1  O1  UNK     1      -1.676  -0.281  -0.993  1.00  0.00    -0.274 OA
HETATM    2  O2  UNK     1      -3.740  -1.179  -0.597  1.00  0.00    -0.259 OA
HETATM    3  C1  UNK     1       1.754   1.035  -0.963  1.00  0.00     0.032 A 
HETATM    4  C4  UNK     1       0.488   0.662  -1.411  1.00  0.00     0.067 A 
HETATM    5  C5  UNK     1      -0.405   0.085  -0.510  1.00  0.00     0.091 A 
HETATM    6  C6  UNK     1      -0.066  -0.127   0.822  1.00  0.00    -0.001 A 
HETATM    7  C7  UNK     1       2.111   0.830   0.371  1.00  0.00     0.030 A 
HETATM    8  C8  UNK     1       1.205   0.251   1.263  1.00  0.00     0.016 A 
HETATM    9  C11 UNK     1      -1.047  -0.733   1.710  1.00  0.00     0.039 A 
HETATM   10  C12 UNK     1      -2.253  -1.079   1.246  1.00  0.00     0.114 A 
HETATM   11  C13 UNK     1      -2.635  -0.863  -0.168  1.00  0.00     0.305 A 
ENDROOT
BRANCH   3  12
HETATM   12  N1  UNK     1       2.675   1.619  -1.858  1.00  0.00    -0.382 N 
BRANCH  12  13
HETATM   13  C2  UNK     1       3.993   2.010  -1.401  1.00  0.00     0.118 C 
HETATM   14  C9  UNK     1       3.960   3.338  -0.717  1.00  0.00     0.026 C 
ENDBRANCH  12  13
BRANCH  12  15
HETATM   15  C3  UNK     1       2.319   1.824  -3.248  1.00  0.00     0.118 C 
HETATM   16  C10 UNK     1       2.489   0.569  -4.042  1.00  0.00     0.026 C 
ENDBRANCH  12  15
ENDBRANCH   3  12
BRANCH  10  17
HETATM   17  C14 UNK     1      -3.173  -1.684   2.217  1.00  0.00     0.182 C 
HETATM   18  O4  UNK     1      -2.823  -2.348   3.173  1.00  0.00    -0.646 OA
BRANCH  17  19
HETATM   19  O3  UNK     1      -4.444  -1.386   1.878  1.00  0.00    -0.772 OA
HETATM   20  H15 UNK     1      -5.093  -1.773   2.504  1.00  0.00     0.167 HD
ENDBRANCH  17  19
ENDBRANCH  10  17
TORSDOF 5
