REMARK  4 active torsions:
REMARK  status: ('A' for Active; 'I' for Inactive)
REMARK    1  A    between atoms: C5_13  and  N1_7 
REMARK       I    between atoms: C7_15  and  N1_7 
REMARK    2  A    between atoms: C9_17  and  N2_8 
REMARK    3  A    between atoms: C3_11  and  C7_15 
REMARK    4  A    between atoms: C11_19  and  C5_13 
ROOT
HETATM    1  O1  UNK     1      -0.161   0.255  -2.367  1.00  0.00    -0.274 OA
HETATM    2  O3  UNK     1      -1.895  -0.902  -1.433  1.00  0.00    -0.259 OA
HETATM    3  C1  UNK     1       1.688   0.984  -0.966  1.00  0.00     0.001 A 
HETATM    4  C2  UNK     1       1.078   0.909  -2.214  1.00  0.00     0.089 A 
HETATM    5  C3  UNK     1      -0.150  -0.242   0.028  1.00  0.00     0.108 A 
HETATM    6  C4  UNK     1       1.027   0.377   0.179  1.00  0.00     0.037 A 
HETATM    7  C6  UNK     1       2.916   1.640  -0.855  1.00  0.00     0.050 A 
HETATM    8  C8  UNK     1       1.658   1.470  -3.350  1.00  0.00     0.041 A 
HETATM    9  C9  UNK     1       3.511   2.208  -1.986  1.00  0.00     0.103 A 
HETATM   10  C10 UNK     1      -0.817  -0.335  -1.290  1.00  0.00     0.304 A 
HETATM   11  C12 UNK     1       2.883   2.122  -3.231  1.00  0.00     0.039 A 
ENDROOT
BRANCH   5  12
HETATM   12  C7  UNK     1      -0.737  -0.823   1.241  1.00  0.00     0.258 C 
HETATM   13  O2  UNK     1      -0.524  -0.327   2.345  1.00  0.00    -0.267 OA
HETATM   14  N1  UNK     1      -1.513  -1.938   0.982  1.00  0.00    -0.352 N 
HETATM   15  H6  UNK     1      -1.614  -2.282   0.032  1.00  0.00     0.163 HD
BRANCH  14  16
HETATM   16  C5  UNK     1      -2.193  -2.683   2.017  1.00  0.00     0.169 C 
BRANCH  16  17
HETATM   17  C11 UNK     1      -3.594  -2.190   2.237  1.00  0.00     0.000 A 
HETATM   18  S1  UNK     1      -4.028  -1.609   3.776  1.00  0.00    -0.105 SA
HETATM   19  C15 UNK     1      -5.620  -1.278   3.241  1.00  0.00     0.050 A 
HETATM   20  C14 UNK     1      -5.799  -1.610   1.915  1.00  0.00     0.008 A 
HETATM   21  C13 UNK     1      -4.613  -2.142   1.332  1.00  0.00     0.017 A 
ENDBRANCH  16  17
ENDBRANCH  14  16
ENDBRANCH   5  12
BRANCH   9  22
HETATM   22  N2  UNK     1       4.760   2.874  -1.869  1.00  0.00    -0.116 N 
HETATM   23  O4  UNK     1       5.278   3.378  -2.895  1.00  0.00    -0.532 OA
HETATM   24  O5  UNK     1       5.310   2.942  -0.744  1.00  0.00    -0.532 OA
ENDBRANCH   9  22
TORSDOF 4
