REMARK  4 active torsions:
REMARK  status: ('A' for Active; 'I' for Inactive)
REMARK    1  A    between atoms: C12_16  and  O2_2 
REMARK    2  A    between atoms: C6_10  and  O2_2 
REMARK    3  A    between atoms: C11_15  and  C13_17 
REMARK    4  A    between atoms: C12_16  and  C14_18 
ROOT
HETATM    1  O1  UNK     1      -3.718  -2.030   0.043  1.00  0.00    -0.275 OA
HETATM    2  O3  UNK     1      -5.879  -2.780   0.024  1.00  0.00    -0.260 OA
HETATM    3  C1  UNK     1      -2.712  -1.338   2.158  1.00  0.00     0.004 A 
HETATM    4  C2  UNK     1      -3.974  -1.664   2.836  1.00  0.00    -0.043 A 
HETATM    5  C3  UNK     1      -2.625  -1.532   0.779  1.00  0.00     0.092 A 
HETATM    6  C4  UNK     1      -1.580  -0.840   2.818  1.00  0.00     0.017 A 
HETATM    7  C5  UNK     1      -1.464  -1.248   0.058  1.00  0.00     0.075 A 
HETATM    8  C6  UNK     1      -0.351  -0.754   0.731  1.00  0.00     0.082 A 
HETATM    9  C7  UNK     1      -0.409  -0.550   2.108  1.00  0.00     0.038 A 
HETATM   10  C8  UNK     1      -4.998  -2.136   2.111  1.00  0.00     0.090 A 
HETATM   11  C9  UNK     1      -4.100  -1.467   4.319  1.00  0.00     0.049 C 
HETATM   12  C10 UNK     1      -4.921  -2.346   0.655  1.00  0.00     0.288 A 
ENDROOT
BRANCH   8  13
HETATM   13  O2  UNK     1       0.791  -0.471   0.047  1.00  0.00    -0.276 OA
BRANCH  13  14
HETATM   14  C12 UNK     1       0.858   0.843  -0.434  1.00  0.00     0.288 C 
HETATM   15  O4  UNK     1       0.007   1.708  -0.291  1.00  0.00    -0.260 OA
BRANCH  14  16
HETATM   16  C14 UNK     1       2.143   1.011  -1.153  1.00  0.00     0.083 C 
HETATM   17  C13 UNK     1       2.433   2.191  -1.719  1.00  0.00     0.017 C 
BRANCH  17  18
HETATM   18  C11 UNK     1       3.670   2.478  -2.466  1.00  0.00    -0.036 A 
HETATM   19  C15 UNK     1       4.780   1.672  -2.276  1.00  0.00     0.011 A 
HETATM   20  C17 UNK     1       5.951   1.944  -2.984  1.00  0.00     0.001 A 
HETATM   21  C19 UNK     1       5.995   3.018  -3.873  1.00  0.00     0.000 A 
HETATM   22  C18 UNK     1       4.869   3.821  -4.053  1.00  0.00     0.001 A 
HETATM   23  C16 UNK     1       3.698   3.549  -3.345  1.00  0.00     0.011 A 
ENDBRANCH  17  18
ENDBRANCH  14  16
ENDBRANCH  13  14
ENDBRANCH   8  13
TORSDOF 4
