REMARK  2 active torsions:
REMARK  status: ('A' for Active; 'I' for Inactive)
REMARK       I    between atoms: C6_11  and  N1_5 
REMARK    1  A    between atoms: C9_14  and  N1_5 
REMARK    2  A    between atoms: C2_7  and  C6_11 
ROOT
HETATM    1  O1  UNK     1       1.277   0.569  -2.648  1.00  0.00    -0.274 OA
HETATM    2  O3  UNK     1      -0.492  -0.746  -2.049  1.00  0.00    -0.259 OA
HETATM    3  C1  UNK     1       2.608   1.650  -0.923  1.00  0.00    -0.001 A 
HETATM    4  C2  UNK     1       0.732   0.256  -0.285  1.00  0.00     0.108 A 
HETATM    5  C3  UNK     1       2.351   1.398  -2.267  1.00  0.00     0.089 A 
HETATM    6  C4  UNK     1       1.750   1.042   0.083  1.00  0.00     0.037 A 
HETATM    7  C5  UNK     1       3.681   2.478  -0.585  1.00  0.00     0.014 A 
HETATM    8  C7  UNK     1       0.440  -0.026  -1.708  1.00  0.00     0.304 A 
HETATM    9  C8  UNK     1       3.133   1.950  -3.280  1.00  0.00     0.038 A 
HETATM   10  C10 UNK     1       4.475   3.038  -1.590  1.00  0.00     0.001 A 
HETATM   11  C11 UNK     1       4.202   2.774  -2.934  1.00  0.00     0.003 A 
ENDROOT
BRANCH   4  12
HETATM   12  C6  UNK     1      -0.075  -0.311   0.803  1.00  0.00     0.262 C 
HETATM   13  O2  UNK     1       0.449  -0.539   1.891  1.00  0.00    -0.267 OA
HETATM   14  N1  UNK     1      -1.392  -0.516   0.416  1.00  0.00    -0.320 N 
HETATM   15  H4  UNK     1      -1.679  -0.253  -0.523  1.00  0.00     0.169 HD
BRANCH  14  16
HETATM   16  C9  UNK     1      -2.414  -1.040   1.215  1.00  0.00     0.073 A 
HETATM   17  C12 UNK     1      -3.697  -1.191   0.695  1.00  0.00     0.143 A 
HETATM   18  F1  UNK     1      -3.968  -0.839  -0.570  1.00  0.00    -0.204 F 
HETATM   19  C14 UNK     1      -4.714  -1.713   1.494  1.00  0.00     0.044 A 
HETATM   20  C16 UNK     1      -4.446  -2.082   2.812  1.00  0.00     0.003 A 
HETATM   21  C15 UNK     1      -3.159  -1.930   3.331  1.00  0.00     0.002 A 
HETATM   22  C13 UNK     1      -2.143  -1.408   2.531  1.00  0.00     0.033 A 
ENDBRANCH  14  16
ENDBRANCH   4  12
TORSDOF 2
