REMARK  3 active torsions:
REMARK  status: ('A' for Active; 'I' for Inactive)
REMARK    1  A    between atoms: C12_16  and  O3_4 
REMARK    2  A    between atoms: C14_18  and  O3_4 
REMARK    3  A    between atoms: C14_18  and  C15_19 
ROOT
HETATM    1 Cl1  UNK     1      -0.445   1.153  -3.093  1.00  0.00    -0.081 Cl
HETATM    2  O1  UNK     1      -0.866  -0.515   2.543  1.00  0.00    -0.274 OA
HETATM    3  O2  UNK     1      -1.970  -1.552   4.240  1.00  0.00    -0.259 OA
HETATM    4  C1  UNK     1      -3.963  -1.814  -0.202  1.00  0.00     0.040 C 
HETATM    5  C2  UNK     1      -4.913  -2.880   0.349  1.00  0.00     0.005 C 
HETATM    6  C3  UNK     1      -2.911  -1.351   0.783  1.00  0.00    -0.033 A 
HETATM    7  C4  UNK     1      -5.343  -2.544   1.767  1.00  0.00     0.005 C 
HETATM    8  C5  UNK     1      -4.127  -2.448   2.685  1.00  0.00     0.045 C 
HETATM    9  C6  UNK     1      -2.980  -1.666   2.091  1.00  0.00     0.025 A 
HETATM   10  C7  UNK     1      -1.789  -0.536   0.288  1.00  0.00     0.007 A 
HETATM   11  C8  UNK     1      -0.799  -0.148   1.187  1.00  0.00     0.093 A 
HETATM   12  C9  UNK     1      -1.923  -1.253   3.051  1.00  0.00     0.295 A 
HETATM   13  C10 UNK     1      -1.655  -0.111  -1.041  1.00  0.00     0.041 A 
HETATM   14  C11 UNK     1       0.301   0.623   0.804  1.00  0.00     0.076 A 
HETATM   15  C12 UNK     1       0.419   1.029  -0.520  1.00  0.00     0.093 A 
HETATM   16  C13 UNK     1      -0.560   0.664  -1.442  1.00  0.00     0.068 A 
ENDROOT
BRANCH  15  17
HETATM   17  O3  UNK     1       1.497   1.776  -0.887  1.00  0.00    -0.345 OA
BRANCH  17  18
HETATM   18  C14 UNK     1       2.785   1.192  -0.697  1.00  0.00     0.214 C 
BRANCH  18  19
HETATM   19  C15 UNK     1       3.731   1.750  -1.719  1.00  0.00    -0.034 A 
HETATM   20  C16 UNK     1       3.873   1.112  -2.946  1.00  0.00     0.009 A 
HETATM   21  C18 UNK     1       4.753   1.631  -3.896  1.00  0.00     0.001 A 
HETATM   22  C20 UNK     1       5.486   2.783  -3.613  1.00  0.00     0.000 A 
HETATM   23  C19 UNK     1       5.338   3.418  -2.379  1.00  0.00     0.001 A 
HETATM   24  C17 UNK     1       4.458   2.899  -1.429  1.00  0.00     0.009 A 
ENDBRANCH  18  19
ENDBRANCH  17  18
ENDBRANCH  15  17
TORSDOF 3
