REMARK  5 active torsions:
REMARK  status: ('A' for Active; 'I' for Inactive)
REMARK    1  A    between atoms: C12_23  and  O2_8 
REMARK    2  A    between atoms: C1_12  and  N1_11 
REMARK       I    between atoms: C11_22  and  N1_11 
REMARK    3  A    between atoms: C15_26  and  C3_14 
REMARK    4  A    between atoms: C16_27  and  C4_15 
REMARK    5  A    between atoms: C11_22  and  C5_16 
ROOT
HETATM    1  O3  UNK     1       0.877   0.673   1.681  1.00  0.00    -0.267 OA
HETATM    2  N1  UNK     1      -0.479  -0.016  -0.117  1.00  0.00    -0.323 N 
HETATM    3  C11 UNK     1       0.624   0.578   0.481  1.00  0.00     0.262 C 
HETATM    4  H5  UNK     1      -0.529  -0.030  -1.133  1.00  0.00     0.169 HD
ENDROOT
BRANCH   2   5
HETATM    5  C1  UNK     1      -1.571  -0.651   0.523  1.00  0.00     0.036 A 
HETATM    6  C7  UNK     1      -2.587  -1.189  -0.248  1.00  0.00     0.045 A 
HETATM    7  C3  UNK     1      -3.664  -1.814   0.382  1.00  0.00     0.050 A 
HETATM    8  C9  UNK     1      -3.707  -1.891   1.774  1.00  0.00     0.032 A 
HETATM    9  C4  UNK     1      -2.675  -1.344   2.536  1.00  0.00     0.050 A 
HETATM   10  C6  UNK     1      -1.599  -0.719   1.906  1.00  0.00     0.045 A 
BRANCH   7  11
HETATM   11  C15 UNK     1      -4.767  -2.399  -0.431  1.00  0.00     0.417 C 
HETATM   12  F1  UNK     1      -5.752  -2.978   0.317  1.00  0.00    -0.166 F 
HETATM   13  F2  UNK     1      -5.410  -1.487  -1.219  1.00  0.00    -0.166 F 
HETATM   14  F3  UNK     1      -4.333  -3.375  -1.282  1.00  0.00    -0.166 F 
ENDBRANCH   7  11
BRANCH   9  15
HETATM   15  C16 UNK     1      -2.722  -1.426   4.024  1.00  0.00     0.417 C 
HETATM   16  F4  UNK     1      -3.831  -2.064   4.503  1.00  0.00    -0.166 F 
HETATM   17  F5  UNK     1      -1.664  -2.098   4.569  1.00  0.00    -0.166 F 
HETATM   18  F6  UNK     1      -2.720  -0.198   4.619  1.00  0.00    -0.166 F 
ENDBRANCH   9  15
ENDBRANCH   2   5
BRANCH   3  19
HETATM   19  C5  UNK     1       1.556   1.135  -0.506  1.00  0.00     0.108 A 
HETATM   20  C10 UNK     1       2.847   1.155  -0.155  1.00  0.00     0.037 A 
HETATM   21  C2  UNK     1       3.847   1.688  -1.067  1.00  0.00     0.002 A 
HETATM   22  C13 UNK     1       5.206   1.728  -0.743  1.00  0.00     0.014 A 
HETATM   23  C8  UNK     1       3.438   2.175  -2.304  1.00  0.00     0.123 A 
HETATM   24  C18 UNK     1       6.127   2.250  -1.655  1.00  0.00     0.004 A 
HETATM   25  C17 UNK     1       5.698   2.735  -2.892  1.00  0.00     0.040 A 
HETATM   26  C12 UNK     1       4.345   2.699  -3.223  1.00  0.00     0.102 A 
HETATM   27  O1  UNK     1       2.078   2.152  -2.668  1.00  0.00    -0.271 OA
HETATM   28  C14 UNK     1       1.098   1.647  -1.817  1.00  0.00     0.304 A 
HETATM   29  O4  UNK     1      -0.084   1.630  -2.143  1.00  0.00    -0.259 OA
BRANCH  26  30
HETATM   30  O2  UNK     1       3.931   3.173  -4.429  1.00  0.00    -0.353 OA
HETATM   31  C19 UNK     1       3.888   2.244  -5.512  1.00  0.00     0.210 C 
ENDBRANCH  26  30
ENDBRANCH   3  19
TORSDOF 5
