REMARK  3 active torsions:
REMARK  status: ('A' for Active; 'I' for Inactive)
REMARK    1  A    between atoms: C14_19  and  O3_3 
REMARK    2  A    between atoms: C8_13  and  O3_3 
REMARK    3  A    between atoms: C3_8  and  C9_14 
ROOT
HETATM    1  N1  UNK     1      -6.151  -2.107   2.988  1.00  0.00    -0.195 NA
HETATM    2  C14 UNK     1      -3.553  -1.776   2.843  1.00  0.00     0.299 C 
HETATM    3  C15 UNK     1      -5.002  -1.961   2.923  1.00  0.00     0.085 C 
ENDROOT
BRANCH   2   4
HETATM    4  O3  UNK     1      -3.093  -2.011   1.513  1.00  0.00    -0.338 OA
BRANCH   4   5
HETATM    5  C8  UNK     1      -1.980  -1.336   1.114  1.00  0.00     0.071 A 
HETATM    6  C10 UNK     1      -1.006  -0.987   2.051  1.00  0.00     0.039 A 
HETATM    7  C7  UNK     1       0.137  -0.296   1.649  1.00  0.00     0.041 A 
HETATM    8  C2  UNK     1       0.304   0.046   0.306  1.00  0.00     0.090 A 
HETATM    9  C1  UNK     1      -0.670  -0.304  -0.628  1.00  0.00     0.051 A 
HETATM   10  O1  UNK     1       1.448   0.725  -0.029  1.00  0.00    -0.307 OA
HETATM   11  C4  UNK     1      -0.469   0.071  -2.036  1.00  0.00     0.187 A 
HETATM   12  C5  UNK     1      -1.815  -0.996  -0.229  1.00  0.00     0.055 A 
HETATM   13  O4  UNK     1      -1.283  -0.201  -2.908  1.00  0.00    -0.287 OA
HETATM   14  C6  UNK     1       0.778   0.799  -2.346  1.00  0.00     0.095 A 
HETATM   15  C3  UNK     1       1.644   1.073  -1.357  1.00  0.00     0.113 A 
BRANCH  15  16
HETATM   16  C9  UNK     1       2.901   1.807  -1.606  1.00  0.00     0.108 A 
HETATM   17  C11 UNK     1       3.875   2.153  -0.686  1.00  0.00     0.042 A 
HETATM   18  C12 UNK     1       4.879   2.846  -1.404  1.00  0.00     0.027 A 
HETATM   19  C13 UNK     1       4.459   2.880  -2.713  1.00  0.00     0.142 A 
HETATM   20  O2  UNK     1       3.260   2.253  -2.846  1.00  0.00    -0.320 OA
ENDBRANCH  15  16
ENDBRANCH   4   5
ENDBRANCH   2   4
TORSDOF 3
