REMARK  10 active torsions:
REMARK  status: ('A' for Active; 'I' for Inactive)
REMARK    1  A    between atoms: C12_18  and  O1_1 
REMARK    2  A    between atoms: C16_22  and  O1_1 
REMARK    3  A    between atoms: C13_19  and  O2_2 
REMARK    4  A    between atoms: C21_27  and  O2_2 
REMARK    5  A    between atoms: C20_26  and  O4_4 
REMARK    6  A    between atoms: C25_31  and  O4_4 
REMARK    7  A    between atoms: C1_7  and  C2_8 
REMARK    8  A    between atoms: C6_12  and  C9_15 
REMARK    9  A    between atoms: C13_19  and  C9_15 
REMARK   10  A    between atoms: C21_27  and  C25_31 
ROOT
HETATM    1  O3  UNK     1       1.252  -1.557   1.089  1.00  0.00    -0.319 OA
HETATM    2  O5  UNK     1      -2.045   0.114   2.824  1.00  0.00    -0.284 OA
HETATM    3  C16 UNK     1      -0.825  -1.843   2.294  1.00  0.00     0.149 A 
HETATM    4  C17 UNK     1      -0.021   0.439   1.645  1.00  0.00     0.051 A 
HETATM    5  C18 UNK     1       1.083  -0.194   1.070  1.00  0.00     0.092 A 
HETATM    6  C19 UNK     1      -1.055  -0.381   2.303  1.00  0.00     0.220 A 
HETATM    7  C20 UNK     1       1.955   1.952   0.391  1.00  0.00     0.072 A 
HETATM    8  C22 UNK     1       2.073   0.562   0.442  1.00  0.00     0.075 A 
HETATM    9  C23 UNK     1       0.280  -2.309   1.704  1.00  0.00     0.184 A 
HETATM   10  C24 UNK     1      -0.141   1.830   1.595  1.00  0.00     0.021 A 
HETATM   11  C26 UNK     1       0.851   2.583   0.967  1.00  0.00     0.038 A 
ENDROOT
BRANCH   3  12
HETATM   12  O1  UNK     1      -1.743  -2.678   2.886  1.00  0.00    -0.305 OA
BRANCH  12  13
HETATM   13  C12 UNK     1      -3.018  -2.650   2.392  1.00  0.00     0.076 A 
HETATM   14  C10 UNK     1      -4.103  -2.611   3.267  1.00  0.00     0.038 A 
HETATM   15  C7  UNK     1      -5.404  -2.583   2.764  1.00  0.00     0.011 A 
HETATM   16  C2  UNK     1      -5.619  -2.594   1.386  1.00  0.00    -0.050 A 
HETATM   17  C8  UNK     1      -4.533  -2.634   0.511  1.00  0.00     0.011 A 
HETATM   18  C11 UNK     1      -3.233  -2.661   1.014  1.00  0.00     0.038 A 
BRANCH  16  19
HETATM   19  C1  UNK     1      -7.009  -2.564   0.847  1.00  0.00    -0.024 C 
HETATM   20  C3  UNK     1      -7.766  -1.279   1.305  1.00  0.00     0.019 C 
HETATM   21  C4  UNK     1      -7.833  -3.795   1.338  1.00  0.00     0.019 C 
HETATM   22  C5  UNK     1      -7.125  -2.582  -0.713  1.00  0.00     0.019 C 
ENDBRANCH  16  19
ENDBRANCH  12  13
ENDBRANCH   3  12
BRANCH   7  23
HETATM   23  O4  UNK     1       2.920   2.693  -0.220  1.00  0.00    -0.341 OA
BRANCH  23  24
HETATM   24  C25 UNK     1       3.621   2.081  -1.301  1.00  0.00     0.286 C 
BRANCH  24  25
HETATM   25  C21 UNK     1       4.062   3.152  -2.263  1.00  0.00     0.283 C 
HETATM   26  O6  UNK     1       3.831   4.347  -2.136  1.00  0.00    -0.263 OA
BRANCH  25  27
HETATM   27  O2  UNK     1       4.755   2.572  -3.286  1.00  0.00    -0.320 OA
BRANCH  27  28
HETATM   28  C13 UNK     1       5.243   3.471  -4.288  1.00  0.00     0.179 C 
BRANCH  28  29
HETATM   29  C9  UNK     1       5.987   2.666  -5.346  1.00  0.00     0.031 C 
BRANCH  29  30
HETATM   30  C6  UNK     1       6.580   3.525  -6.474  1.00  0.00    -0.021 C 
HETATM   31  C14 UNK     1       7.266   2.682  -7.550  1.00  0.00     0.009 C 
HETATM   32  C15 UNK     1       7.576   4.531  -5.892  1.00  0.00     0.009 C 
ENDBRANCH  29  30
ENDBRANCH  28  29
ENDBRANCH  27  28
ENDBRANCH  25  27
ENDBRANCH  24  25
ENDBRANCH  23  24
ENDBRANCH   7  23
TORSDOF 10
