REMARK  4 active torsions:
REMARK  status: ('A' for Active; 'I' for Inactive)
REMARK    1  A    between atoms: C1_8  and  N1_5 
REMARK       I    between atoms: C10_17  and  N2_6 
REMARK    2  A    between atoms: C3_10  and  N2_6 
REMARK    3  A    between atoms: C1_8  and  C2_9 
REMARK    4  A    between atoms: C10_17  and  C6_13 
ROOT
HETATM    1  O2  UNK     1       0.838  -0.639  -2.664  1.00  0.00    -0.267 OA
HETATM    2  N2  UNK     1      -0.066   0.561  -0.849  1.00  0.00    -0.320 N 
HETATM    3  C10 UNK     1       0.899   0.219  -1.785  1.00  0.00     0.262 C 
HETATM    4  H4  UNK     1       0.122   1.313  -0.191  1.00  0.00     0.169 HD
ENDROOT
BRANCH   2   5
HETATM    5  C3  UNK     1      -1.339  -0.007  -0.700  1.00  0.00     0.071 A 
HETATM    6  C4  UNK     1      -2.261   0.352   0.228  1.00  0.00     0.143 A 
HETATM    7  N1  UNK     1      -3.330  -0.462  -0.007  1.00  0.00    -0.275 N 
HETATM    8  N3  UNK     1      -3.147  -1.317  -1.027  1.00  0.00    -0.183 NA
HETATM    9  C9  UNK     1      -1.913  -1.027  -1.449  1.00  0.00     0.169 A 
BRANCH   7  10
HETATM   10  C1  UNK     1      -4.576  -0.470   0.720  1.00  0.00     0.189 C 
BRANCH  10  11
HETATM   11  C2  UNK     1      -4.525  -1.419   1.887  1.00  0.00    -0.038 A 
HETATM   12  C11 UNK     1      -4.095  -0.960   3.124  1.00  0.00     0.010 A 
HETATM   13  C16 UNK     1      -4.048  -1.840   4.206  1.00  0.00     0.024 A 
HETATM   14  C20 UNK     1      -4.433  -3.170   4.039  1.00  0.00     0.034 A 
HETATM   15  C17 UNK     1      -4.864  -3.621   2.791  1.00  0.00     0.024 A 
HETATM   16 Cl1  UNK     1      -4.377  -4.256   5.373  1.00  0.00    -0.084 Cl
HETATM   17  C12 UNK     1      -4.910  -2.741   1.710  1.00  0.00     0.010 A 
ENDBRANCH  10  11
ENDBRANCH   7  10
ENDBRANCH   2   5
BRANCH   3  18
HETATM   18  C6  UNK     1       2.116   1.029  -1.642  1.00  0.00     0.108 A 
HETATM   19  C13 UNK     1       2.551   1.569  -0.335  1.00  0.00     0.304 A 
HETATM   20  O1  UNK     1       3.722   2.321  -0.328  1.00  0.00    -0.274 OA
HETATM   21  O3  UNK     1       1.916   1.365   0.695  1.00  0.00    -0.259 OA
HETATM   22  C7  UNK     1       4.459   2.560  -1.504  1.00  0.00     0.089 A 
HETATM   23  C15 UNK     1       5.619   3.325  -1.397  1.00  0.00     0.038 A 
HETATM   24  C5  UNK     1       4.032   2.043  -2.723  1.00  0.00    -0.001 A 
HETATM   25  C19 UNK     1       6.369   3.578  -2.544  1.00  0.00     0.003 A 
HETATM   26  C18 UNK     1       5.956   3.068  -3.776  1.00  0.00     0.001 A 
HETATM   27  C14 UNK     1       4.790   2.302  -3.868  1.00  0.00     0.014 A 
HETATM   28  C8  UNK     1       2.812   1.252  -2.763  1.00  0.00     0.037 A 
ENDBRANCH   3  18
TORSDOF 4
