REMARK  7 active torsions:
REMARK  status: ('A' for Active; 'I' for Inactive)
REMARK    1  A    between atoms: C5_11  and  O2_2 
REMARK    2  A    between atoms: C9_15  and  O2_2 
REMARK    3  A    between atoms: C10_16  and  O3_3 
REMARK    4  A    between atoms: C18_24  and  O3_3 
REMARK    5  A    between atoms: C19_25  and  O5_5 
REMARK    6  A    between atoms: C3_9  and  C6_12 
REMARK    7  A    between atoms: C18_24  and  C19_25 
ROOT
HETATM    1  O1  UNK     1       0.960   1.289   1.319  1.00  0.00    -0.319 OA
HETATM    2  O4  UNK     1      -0.891  -2.125   0.057  1.00  0.00    -0.284 OA
HETATM    3  C1  UNK     1       0.460  -0.262  -0.486  1.00  0.00     0.051 A 
HETATM    4  C2  UNK     1       1.069   0.894   0.008  1.00  0.00     0.092 A 
HETATM    5  C4  UNK     1      -0.335  -1.101   0.430  1.00  0.00     0.220 A 
HETATM    6  C5  UNK     1      -0.418  -0.630   1.830  1.00  0.00     0.149 A 
HETATM    7  C7  UNK     1       0.606  -0.616  -1.830  1.00  0.00     0.021 A 
HETATM    8  C8  UNK     1       1.826   1.702  -0.841  1.00  0.00     0.075 A 
HETATM    9  C10 UNK     1       1.972   1.350  -2.183  1.00  0.00     0.072 A 
HETATM   10  C11 UNK     1       1.364   0.195  -2.676  1.00  0.00     0.038 A 
HETATM   11  C16 UNK     1       0.217   0.498   2.161  1.00  0.00     0.184 A 
ENDROOT
BRANCH   6  12
HETATM   12  O2  UNK     1      -1.140  -1.356   2.748  1.00  0.00    -0.305 OA
BRANCH  12  13
HETATM   13  C9  UNK     1      -2.472  -1.533   2.492  1.00  0.00     0.076 A 
HETATM   14  C14 UNK     1      -3.045  -2.791   2.656  1.00  0.00     0.038 A 
HETATM   15  C12 UNK     1      -4.403  -2.972   2.394  1.00  0.00     0.010 A 
HETATM   16  C3  UNK     1      -5.181  -1.896   1.969  1.00  0.00    -0.058 A 
HETATM   17  C13 UNK     1      -4.602  -0.637   1.806  1.00  0.00     0.010 A 
HETATM   18  C15 UNK     1      -3.244  -0.456   2.068  1.00  0.00     0.038 A 
BRANCH  16  19
HETATM   19  C6  UNK     1      -6.633  -2.089   1.689  1.00  0.00     0.034 C 
HETATM   20  C17 UNK     1      -6.899  -2.477   0.237  1.00  0.00     0.010 C 
ENDBRANCH  16  19
ENDBRANCH  12  13
ENDBRANCH   6  12
BRANCH   9  21
HETATM   21  O3  UNK     1       2.710   2.137  -3.015  1.00  0.00    -0.341 OA
BRANCH  21  22
HETATM   22  C18 UNK     1       3.792   2.861  -2.432  1.00  0.00     0.286 C 
BRANCH  22  23
HETATM   23  C19 UNK     1       4.863   3.056  -3.472  1.00  0.00     0.282 C 
HETATM   24  O6  UNK     1       4.810   2.636  -4.620  1.00  0.00    -0.263 OA
BRANCH  23  25
HETATM   25  O5  UNK     1       5.890   3.770  -2.925  1.00  0.00    -0.325 OA
HETATM   26  C20 UNK     1       6.990   4.037  -3.800  1.00  0.00     0.213 C 
ENDBRANCH  23  25
ENDBRANCH  22  23
ENDBRANCH  21  22
ENDBRANCH   9  21
TORSDOF 7
