REMARK  3 active torsions:
REMARK  status: ('A' for Active; 'I' for Inactive)
REMARK    1  A    between atoms: C15_22  and  O5_6 
REMARK       I    between atoms: C6_13  and  N1_7 
REMARK    2  A    between atoms: C5_12  and  C6_13 
REMARK    3  A    between atoms: C5_12  and  C7_14 
ROOT
HETATM    1 Cl1  UNK     1       3.056   1.962  -4.793  1.00  0.00    -0.081 Cl
HETATM    2  O2  UNK     1       2.045   0.802   0.891  1.00  0.00    -0.274 OA
HETATM    3  O4  UNK     1       0.854  -0.201   2.543  1.00  0.00    -0.259 OA
HETATM    4  C7  UNK     1       0.103  -0.591   0.316  1.00  0.00     0.033 A 
HETATM    5  C8  UNK     1       0.264  -0.327  -0.998  1.00  0.00    -0.036 A 
HETATM    6  C9  UNK     1       1.392   0.521  -1.436  1.00  0.00     0.006 A 
HETATM    7  C10 UNK     1       2.244   1.056  -0.474  1.00  0.00     0.093 A 
HETATM    8  C11 UNK     1       1.010  -0.000   1.343  1.00  0.00     0.295 A 
HETATM    9  C12 UNK     1      -0.664  -0.838  -2.072  1.00  0.00     0.050 C 
HETATM   10  C13 UNK     1       1.675   0.819  -2.778  1.00  0.00     0.041 A 
HETATM   11  C14 UNK     1       3.335   1.866  -0.802  1.00  0.00     0.076 A 
HETATM   12  C15 UNK     1       3.592   2.154  -2.137  1.00  0.00     0.092 A 
HETATM   13  C16 UNK     1       2.763   1.629  -3.125  1.00  0.00     0.068 A 
ENDROOT
BRANCH   4  14
HETATM   14  C5  UNK     1      -0.964  -1.487   0.890  1.00  0.00     0.148 C 
BRANCH  14  15
HETATM   15  C6  UNK     1      -2.160  -0.615   1.175  1.00  0.00     0.224 C 
HETATM   16  O3  UNK     1      -2.113   0.587   0.902  1.00  0.00    -0.273 OA
HETATM   17  N1  UNK     1      -3.268  -1.245   1.739  1.00  0.00    -0.348 N 
HETATM   18  C1  UNK     1      -4.473  -0.473   2.044  1.00  0.00     0.152 C 
HETATM   19  C2  UNK     1      -3.315  -2.639   2.194  1.00  0.00     0.152 C 
HETATM   20  C3  UNK     1      -5.714  -1.224   1.583  1.00  0.00     0.187 C 
HETATM   21  O1  UNK     1      -5.738  -2.535   2.155  1.00  0.00    -0.388 OA
HETATM   22  C4  UNK     1      -4.607  -3.300   1.732  1.00  0.00     0.187 C 
ENDBRANCH  14  15
ENDBRANCH   4  14
BRANCH  12  23
HETATM   23  O5  UNK     1       4.657   2.943  -2.449  1.00  0.00    -0.354 OA
HETATM   24  C17 UNK     1       4.423   4.348  -2.521  1.00  0.00     0.210 C 
ENDBRANCH  12  23
TORSDOF 3
