REMARK  5 active torsions:
REMARK  status: ('A' for Active; 'I' for Inactive)
REMARK    1  A    between atoms: C5_12  and  N1_5 
REMARK    2  A    between atoms: C6_13  and  N2_6 
REMARK    3  A    between atoms: C17_24  and  N3_7 
REMARK       I    between atoms: C9_16  and  N3_7 
REMARK    4  A    between atoms: C5_12  and  C7_14 
REMARK    5  A    between atoms: C6_13  and  C9_16 
ROOT
HETATM    1  N1  UNK     1       0.753  -0.163  -1.934  1.00  0.00     0.096 N 
HETATM    2  N2  UNK     1      -1.919  -1.030  -1.250  1.00  0.00     0.100 N 
HETATM    3  C1  UNK     1      -0.169  -0.671  -2.957  1.00  0.00     0.303 C 
HETATM    4  C2  UNK     1       0.460  -0.773  -0.631  1.00  0.00     0.303 C 
HETATM    5  C3  UNK     1      -1.626  -0.420  -2.552  1.00  0.00     0.303 C 
HETATM    6  C4  UNK     1      -0.997  -0.521  -0.227  1.00  0.00     0.303 C 
ENDROOT
BRANCH   1   7
HETATM    7  C5  UNK     1       2.142  -0.407  -2.320  1.00  0.00     0.312 C 
BRANCH   7   8
HETATM    8  C7  UNK     1       3.092   0.478  -1.591  1.00  0.00    -0.011 A 
HETATM    9  C10 UNK     1       3.627   0.105  -0.420  1.00  0.00     0.092 A 
HETATM   10  C13 UNK     1       4.570   0.947   0.336  1.00  0.00     0.288 A 
HETATM   11  O1  UNK     1       4.895   2.174  -0.221  1.00  0.00    -0.275 OA
HETATM   12  O3  UNK     1       5.041   0.572   1.404  1.00  0.00    -0.260 OA
HETATM   13  C11 UNK     1       4.348   2.593  -1.450  1.00  0.00     0.090 A 
HETATM   14  C8  UNK     1       3.455   1.785  -2.156  1.00  0.00     0.006 A 
HETATM   15  C14 UNK     1       4.745   3.848  -1.915  1.00  0.00     0.045 A 
HETATM   16  C12 UNK     1       2.956   2.275  -3.370  1.00  0.00     0.015 A 
HETATM   17  C16 UNK     1       3.345   3.531  -3.849  1.00  0.00     0.007 A 
HETATM   18  C15 UNK     1       4.238   4.316  -3.123  1.00  0.00    -0.059 A 
HETATM   19  C18 UNK     1       4.649   5.653  -3.640  1.00  0.00     0.048 C 
ENDBRANCH   7   8
ENDBRANCH   1   7
BRANCH   2  20
HETATM   20  C6  UNK     1      -3.307  -0.788  -0.864  1.00  0.00     0.375 C 
BRANCH  20  21
HETATM   21  C9  UNK     1      -3.723  -1.802   0.188  1.00  0.00     0.250 C 
HETATM   22  O2  UNK     1      -3.704  -3.012  -0.015  1.00  0.00    -0.271 OA
HETATM   23  N3  UNK     1      -4.101  -1.152   1.361  1.00  0.00    -0.323 N 
HETATM   24  H15 UNK     1      -4.058  -0.135   1.381  1.00  0.00     0.169 HD
BRANCH  23  25
HETATM   25  C17 UNK     1      -4.551  -1.739   2.568  1.00  0.00     0.073 A 
HETATM   26  C19 UNK     1      -4.893  -0.933   3.654  1.00  0.00     0.143 A 
HETATM   27  F1  UNK     1      -4.801   0.402   3.567  1.00  0.00    -0.204 F 
HETATM   28  C21 UNK     1      -5.338  -1.515   4.841  1.00  0.00     0.044 A 
HETATM   29  C23 UNK     1      -5.439  -2.902   4.943  1.00  0.00     0.003 A 
HETATM   30  C22 UNK     1      -5.097  -3.708   3.857  1.00  0.00     0.002 A 
HETATM   31  C20 UNK     1      -4.653  -3.126   2.670  1.00  0.00     0.033 A 
ENDBRANCH  23  25
ENDBRANCH  20  21
ENDBRANCH   2  20
TORSDOF 5
