REMARK  3 active torsions:
REMARK  status: ('A' for Active; 'I' for Inactive)
REMARK    1  A    between atoms: C10_13  and  O2_2 
REMARK    2  A    between atoms: C4_7  and  O2_2 
REMARK    3  A    between atoms: C10_13  and  C13_16 
ROOT
HETATM    1  O1  UNK     1      -3.064  -1.013  -0.298  1.00  0.00    -0.274 OA
HETATM    2  O3  UNK     1      -5.028  -2.183  -0.346  1.00  0.00    -0.260 OA
HETATM    3  C1  UNK     1      -1.765  -0.945   1.770  1.00  0.00     0.005 A 
HETATM    4  C2  UNK     1      -1.937  -0.585   0.432  1.00  0.00     0.099 A 
HETATM    5  C3  UNK     1      -1.015   0.209  -0.251  1.00  0.00     0.006 A 
HETATM    6  C4  UNK     1       0.118   0.662   0.418  1.00  0.00     0.077 A 
HETATM    7  C5  UNK     1      -2.787  -1.784   2.410  1.00  0.00    -0.043 A 
HETATM    8  C6  UNK     1      -0.617  -0.479   2.426  1.00  0.00     0.017 A 
HETATM    9  C7  UNK     1       0.316   0.318   1.754  1.00  0.00     0.038 A 
HETATM   10  C8  UNK     1      -1.235   0.572  -1.683  1.00  0.00     0.054 C 
HETATM   11  C9  UNK     1      -3.848  -2.176   1.691  1.00  0.00     0.090 A 
HETATM   12  C11 UNK     1      -2.631  -2.188   3.847  1.00  0.00     0.049 C 
HETATM   13  C12 UNK     1      -4.044  -1.805   0.280  1.00  0.00     0.288 A 
ENDROOT
BRANCH   6  14
HETATM   14  O2  UNK     1       1.041   1.438  -0.215  1.00  0.00    -0.346 OA
BRANCH  14  15
HETATM   15  C10 UNK     1       2.371   0.927  -0.297  1.00  0.00     0.214 C 
BRANCH  15  16
HETATM   16  C13 UNK     1       3.102   1.468  -1.479  1.00  0.00    -0.034 A 
HETATM   17  C15 UNK     1       3.841   2.645  -1.363  1.00  0.00     0.009 A 
HETATM   18  C17 UNK     1       4.525   3.151  -2.468  1.00  0.00     0.001 A 
HETATM   19  C18 UNK     1       4.471   2.480  -3.689  1.00  0.00     0.000 A 
HETATM   20  C16 UNK     1       3.733   1.302  -3.805  1.00  0.00     0.001 A 
HETATM   21  C14 UNK     1       3.048   0.796  -2.700  1.00  0.00     0.009 A 
ENDBRANCH  15  16
ENDBRANCH  14  15
ENDBRANCH   6  14
TORSDOF 3
