REMARK  7 active torsions:
REMARK  status: ('A' for Active; 'I' for Inactive)
REMARK    1  A    between atoms: C11_19  and  O2_2 
REMARK    2  A    between atoms: C14_22  and  O3_3 
REMARK    3  A    between atoms: C2_10  and  N1_7 
REMARK    4  A    between atoms: C3_11  and  N1_7 
REMARK    5  A    between atoms: C6_14  and  N2_8 
REMARK    6  A    between atoms: C1_9  and  C2_10 
REMARK    7  A    between atoms: C1_9  and  C4_12 
ROOT
HETATM    1  O1  UNK     1       4.266   1.744  -1.314  1.00  0.00    -0.273 OA
HETATM    2  O4  UNK     1       4.445   1.642  -3.586  1.00  0.00    -0.257 OA
HETATM    3  C3  UNK     1       1.438   1.367  -1.597  1.00  0.00     0.081 A 
HETATM    4  C5  UNK     1       2.062   1.530  -0.259  1.00  0.00     0.027 A 
HETATM    5  C6  UNK     1       2.281   1.413  -2.643  1.00  0.00     0.205 A 
HETATM    6  C7  UNK     1       3.447   1.710  -0.168  1.00  0.00     0.092 A 
HETATM    7  C10 UNK     1       1.347   1.519   0.951  1.00  0.00     0.017 A 
HETATM    8  C12 UNK     1       3.737   1.606  -2.586  1.00  0.00     0.324 A 
HETATM    9  C15 UNK     1       4.110   1.870   1.053  1.00  0.00     0.038 A 
HETATM   10  C16 UNK     1       1.997   1.679   2.182  1.00  0.00     0.001 A 
HETATM   11  C17 UNK     1       3.377   1.854   2.233  1.00  0.00     0.003 A 
ENDROOT
BRANCH   3  12
HETATM   12  N1  UNK     1       0.080   1.185  -1.658  1.00  0.00    -0.387 N 
HETATM   13  H5  UNK     1      -0.381   1.239  -2.557  1.00  0.00     0.159 HD
BRANCH  12  14
HETATM   14  C2  UNK     1      -0.703   0.734  -0.541  1.00  0.00     0.124 C 
BRANCH  14  15
HETATM   15  C1  UNK     1      -1.882  -0.118  -1.009  1.00  0.00     0.058 C 
BRANCH  15  16
HETATM   16  C4  UNK     1      -2.713  -0.656   0.131  1.00  0.00    -0.054 A 
HETATM   17  C8  UNK     1      -2.391  -1.884   0.686  1.00  0.00     0.046 A 
HETATM   18  C11 UNK     1      -3.158  -2.380   1.739  1.00  0.00     0.102 A 
HETATM   19  C14 UNK     1      -4.238  -1.642   2.224  1.00  0.00     0.101 A 
HETATM   20  C13 UNK     1      -4.550  -0.408   1.655  1.00  0.00     0.040 A 
HETATM   21  C9  UNK     1      -3.783   0.089   0.601  1.00  0.00     0.010 A 
BRANCH  18  22
HETATM   22  O2  UNK     1      -2.844  -3.587   2.287  1.00  0.00    -0.353 OA
HETATM   23  C18 UNK     1      -1.725  -4.278   1.734  1.00  0.00     0.210 C 
ENDBRANCH  18  22
BRANCH  19  24
HETATM   24  O3  UNK     1      -4.995  -2.116   3.252  1.00  0.00    -0.353 OA
HETATM   25  C19 UNK     1      -6.123  -2.919   2.910  1.00  0.00     0.210 C 
ENDBRANCH  19  24
ENDBRANCH  15  16
ENDBRANCH  14  15
ENDBRANCH  12  14
ENDBRANCH   3  12
BRANCH   5  26
HETATM   26  N2  UNK     1       1.718   1.261  -3.947  1.00  0.00    -0.107 N 
HETATM   27  O5  UNK     1       0.495   1.097  -4.014  1.00  0.00    -0.531 OA
HETATM   28  O6  UNK     1       2.499   1.304  -4.903  1.00  0.00    -0.531 OA
ENDBRANCH   5  26
TORSDOF 7
