REMARK  5 active torsions:
REMARK  status: ('A' for Active; 'I' for Inactive)
REMARK    1  A    between atoms: C13_17  and  O2_2 
REMARK    2  A    between atoms: C8_12  and  O2_2 
REMARK    3  A    between atoms: C3_7  and  C5_9 
REMARK    4  A    between atoms: C13_17  and  C14_18 
REMARK    5  A    between atoms: C14_18  and  C15_19 
ROOT
HETATM    1  O1  UNK     1      -1.355  -1.333  -0.502  1.00  0.00    -0.274 OA
HETATM    2  O3  UNK     1      -3.344  -2.397  -0.842  1.00  0.00    -0.259 OA
HETATM    3  C1  UNK     1      -0.847  -0.379   1.671  1.00  0.00    -0.001 A 
HETATM    4  C2  UNK     1      -0.479  -0.645   0.358  1.00  0.00     0.092 A 
HETATM    5  C3  UNK     1      -2.990  -1.479   1.325  1.00  0.00     0.051 A 
HETATM    6  C4  UNK     1      -2.152  -0.818   2.138  1.00  0.00     0.032 A 
HETATM    7  C6  UNK     1       0.755  -0.250  -0.154  1.00  0.00     0.075 A 
HETATM    8  C7  UNK     1       0.049   0.305   2.497  1.00  0.00     0.017 A 
HETATM    9  C8  UNK     1       1.643   0.431   0.676  1.00  0.00     0.072 A 
HETATM   10  C9  UNK     1       1.291   0.708   1.999  1.00  0.00     0.038 A 
HETATM   11  C10 UNK     1      -2.605  -1.779  -0.081  1.00  0.00     0.299 A 
ENDROOT
BRANCH   9  12
HETATM   12  O2  UNK     1       2.854   0.827   0.197  1.00  0.00    -0.344 OA
BRANCH  12  13
HETATM   13  C13 UNK     1       2.934   1.133  -1.194  1.00  0.00     0.259 C 
BRANCH  13  14
HETATM   14  C14 UNK     1       4.002   2.182  -1.435  1.00  0.00     0.183 C 
HETATM   15  O4  UNK     1       4.640   2.677  -0.510  1.00  0.00    -0.290 OA
BRANCH  14  16
HETATM   16  C15 UNK     1       4.275   2.618  -2.835  1.00  0.00     0.012 A 
HETATM   17  C19 UNK     1       3.547   2.051  -3.857  1.00  0.00     0.015 A 
HETATM   18  C21 UNK     1       3.803   2.459  -5.166  1.00  0.00     0.001 A 
HETATM   19  C23 UNK     1       4.779   3.423  -5.419  1.00  0.00     0.000 A 
HETATM   20  C22 UNK     1       5.500   3.979  -4.362  1.00  0.00     0.001 A 
HETATM   21  C20 UNK     1       5.245   3.571  -3.053  1.00  0.00     0.015 A 
ENDBRANCH  14  16
ENDBRANCH  13  14
ENDBRANCH  12  13
ENDBRANCH   9  12
BRANCH   5  22
HETATM   22  C5  UNK     1      -4.310  -1.890   1.840  1.00  0.00    -0.020 A 
HETATM   23  C11 UNK     1      -5.404  -1.034   1.714  1.00  0.00     0.012 A 
HETATM   24  C16 UNK     1      -6.652  -1.423   2.201  1.00  0.00     0.001 A 
HETATM   25  C18 UNK     1      -6.806  -2.666   2.814  1.00  0.00     0.000 A 
HETATM   26  C17 UNK     1      -5.711  -3.522   2.939  1.00  0.00     0.001 A 
HETATM   27  C12 UNK     1      -4.463  -3.134   2.452  1.00  0.00     0.012 A 
ENDBRANCH   5  22
TORSDOF 5
