REMARK  1 active torsions:
REMARK  status: ('A' for Active; 'I' for Inactive)
REMARK       I    between atoms: C5_10  and  N1_4 
REMARK    1  A    between atoms: C2_7  and  C5_10 
ROOT
HETATM    1  O1  UNK     1       1.556   1.529   0.635  1.00  0.00    -0.274 OA
HETATM    2  O3  UNK     1       0.415   0.660   2.413  1.00  0.00    -0.259 OA
HETATM    3  C1  UNK     1       1.323   0.504  -1.558  1.00  0.00    -0.001 A 
HETATM    4  C2  UNK     1       0.111  -0.419   0.326  1.00  0.00     0.110 A 
HETATM    5  C3  UNK     1       1.876   1.482  -0.736  1.00  0.00     0.089 A 
HETATM    6  C4  UNK     1       0.411  -0.468  -0.978  1.00  0.00     0.037 A 
HETATM    7  C6  UNK     1       1.664   0.491  -2.912  1.00  0.00     0.014 A 
HETATM    8  C7  UNK     1       0.686   0.612   1.218  1.00  0.00     0.304 A 
HETATM    9  C8  UNK     1       2.757   2.442  -1.229  1.00  0.00     0.038 A 
HETATM   10  C9  UNK     1       2.547   1.448  -3.421  1.00  0.00     0.001 A 
HETATM   11  C10 UNK     1       3.092   2.421  -2.581  1.00  0.00     0.003 A 
ENDROOT
BRANCH   4  12
HETATM   12  C5  UNK     1      -0.820  -1.445   0.817  1.00  0.00     0.284 C 
HETATM   13  O2  UNK     1      -0.461  -2.531   1.248  1.00  0.00    -0.265 OA
HETATM   14  N1  UNK     1      -2.181  -1.139   0.781  1.00  0.00    -0.208 N 
HETATM   15  C11 UNK     1      -3.217  -1.951   1.191  1.00  0.00     0.123 A 
HETATM   16  N2  UNK     1      -2.628   0.052   0.314  1.00  0.00    -0.177 NA
HETATM   17  C12 UNK     1      -4.378  -1.251   0.977  1.00  0.00     0.040 A 
HETATM   18  C13 UNK     1      -3.954  -0.028   0.437  1.00  0.00     0.141 A 
ENDBRANCH   4  12
TORSDOF 1
