REMARK  6 active torsions:
REMARK  status: ('A' for Active; 'I' for Inactive)
REMARK    1  A    between atoms: C2_8  and  O1_1 
REMARK    2  A    between atoms: C7_13  and  O1_1 
REMARK       I    between atoms: C22_28  and  N1_5 
REMARK    3  A    between atoms: N1_5  and  N2_6 
REMARK    4  A    between atoms: C1_7  and  C2_8 
REMARK    5  A    between atoms: C12_18  and  C21_27 
REMARK    6  A    between atoms: C16_22  and  C22_28 
ROOT
HETATM    1  O4  UNK     1      -0.457   0.272  -2.677  1.00  0.00    -0.266 OA
HETATM    2  N1  UNK     1       0.250   0.443  -0.479  1.00  0.00    -0.243 N 
HETATM    3  C22 UNK     1       0.374   0.626  -1.843  1.00  0.00     0.271 C 
HETATM    4  H22 UNK     1       0.968   0.690   0.195  1.00  0.00     0.192 HD
ENDROOT
BRANCH   2   5
HETATM    5  N2  UNK     1      -0.862  -0.170  -0.006  1.00  0.00    -0.183 NA
HETATM    6  C21 UNK     1      -0.872  -0.325   1.278  1.00  0.00     0.156 C 
BRANCH   6   7
HETATM    7  C12 UNK     1      -1.982  -0.966   1.983  1.00  0.00     0.056 A 
HETATM    8  C10 UNK     1      -3.188  -1.492   1.305  1.00  0.00     0.198 A 
HETATM    9  O3  UNK     1      -3.335  -1.424   0.093  1.00  0.00    -0.286 OA
HETATM   10  C5  UNK     1      -4.204  -2.105   2.181  1.00  0.00     0.049 A 
HETATM   11  C6  UNK     1      -3.976  -2.151   3.557  1.00  0.00     0.089 A 
HETATM   12  C9  UNK     1      -5.381  -2.633   1.644  1.00  0.00     0.025 A 
HETATM   13  C11 UNK     1      -4.924  -2.726   4.403  1.00  0.00     0.039 A 
HETATM   14  O2  UNK     1      -2.839  -1.648   4.139  1.00  0.00    -0.321 OA
HETATM   15  C13 UNK     1      -6.100  -3.254   3.869  1.00  0.00     0.009 A 
HETATM   16  C8  UNK     1      -6.327  -3.208   2.493  1.00  0.00    -0.061 A 
HETATM   17  C20 UNK     1      -7.587  -3.775   1.928  1.00  0.00     0.048 C 
HETATM   18  C19 UNK     1      -1.898  -1.079   3.313  1.00  0.00     0.159 A 
ENDBRANCH   6   7
ENDBRANCH   2   5
BRANCH   3  19
HETATM   19  C16 UNK     1       1.626   1.285  -2.296  1.00  0.00     0.033 A 
HETATM   20  C17 UNK     1       2.097   1.018  -3.565  1.00  0.00     0.020 A 
HETATM   21  C14 UNK     1       3.272   1.637  -3.991  1.00  0.00     0.038 A 
HETATM   22  C7  UNK     1       3.950   2.509  -3.140  1.00  0.00     0.068 A 
HETATM   23  C15 UNK     1       3.452   2.762  -1.861  1.00  0.00     0.038 A 
HETATM   24  C18 UNK     1       2.277   2.143  -1.435  1.00  0.00     0.020 A 
BRANCH  22  25
HETATM   25  O1  UNK     1       5.095   3.114  -3.556  1.00  0.00    -0.351 OA
BRANCH  25  26
HETATM   26  C2  UNK     1       6.064   3.429  -2.557  1.00  0.00     0.179 C 
BRANCH  26  27
HETATM   27  C1  UNK     1       7.469   3.398  -3.165  1.00  0.00     0.002 C 
HETATM   28  C3  UNK     1       8.522   3.641  -2.085  1.00  0.00     0.011 C 
HETATM   29  C4  UNK     1       7.613   4.427  -4.288  1.00  0.00     0.011 C 
ENDBRANCH  26  27
ENDBRANCH  25  26
ENDBRANCH  22  25
ENDBRANCH   3  19
TORSDOF 6
