REMARK  3 active torsions:
REMARK  status: ('A' for Active; 'I' for Inactive)
REMARK    1  A    between atoms: C10_16  and  O2_3 
REMARK    2  A    between atoms: C1_7  and  N1_6 
REMARK       I    between atoms: C8_14  and  N1_6 
REMARK    3  A    between atoms: C6_12  and  C8_14 
ROOT
HETATM    1  O3  UNK     1       0.639  -0.215  -2.471  1.00  0.00    -0.267 OA
HETATM    2  N1  UNK     1       0.439   0.377  -0.226  1.00  0.00    -0.323 N 
HETATM    3  C8  UNK     1       1.061   0.395  -1.491  1.00  0.00     0.259 C 
HETATM    4  H3  UNK     1       0.843   0.952   0.509  1.00  0.00     0.169 HD
ENDROOT
BRANCH   2   5
HETATM    5  C1  UNK     1      -0.719  -0.297   0.162  1.00  0.00     0.035 A 
HETATM    6  C4  UNK     1      -1.180  -0.188   1.477  1.00  0.00     0.043 A 
HETATM    7  C2  UNK     1      -2.339  -0.861   1.869  1.00  0.00     0.000 A 
HETATM    8  C3  UNK     1      -3.017  -1.635   0.930  1.00  0.00     0.089 A 
HETATM    9  C9  UNK     1      -2.863  -0.782   3.222  1.00  0.00     0.020 A 
HETATM   10  O1  UNK     1      -4.190  -2.331   1.287  1.00  0.00    -0.275 OA
HETATM   11  C7  UNK     1      -2.569  -1.753  -0.384  1.00  0.00     0.040 A 
HETATM   12  C15 UNK     1      -4.710  -2.270   2.576  1.00  0.00     0.288 A 
HETATM   13  C13 UNK     1      -3.975  -1.444   3.551  1.00  0.00     0.083 A 
HETATM   14  O4  UNK     1      -5.730  -2.872   2.894  1.00  0.00    -0.260 OA
HETATM   15  C5  UNK     1      -1.412  -1.078  -0.766  1.00  0.00     0.032 A 
ENDBRANCH   2   5
BRANCH   3  16
HETATM   16  C6  UNK     1       2.306   1.179  -1.564  1.00  0.00     0.067 A 
HETATM   17  C10 UNK     1       2.675   1.796  -2.750  1.00  0.00     0.084 A 
HETATM   18  C12 UNK     1       3.858   2.534  -2.799  1.00  0.00     0.039 A 
HETATM   19  C16 UNK     1       4.656   2.647  -1.661  1.00  0.00     0.022 A 
HETATM   20  C14 UNK     1       4.273   2.022  -0.474  1.00  0.00     0.012 A 
HETATM   21 Br1  UNK     1       5.355   2.178   1.067  1.00  0.00    -0.051 Br
HETATM   22  C11 UNK     1       3.091   1.283  -0.426  1.00  0.00     0.039 A 
BRANCH  17  23
HETATM   23  O2  UNK     1       1.908   1.699  -3.872  1.00  0.00    -0.355 OA
HETATM   24  C17 UNK     1       0.907   2.697  -4.060  1.00  0.00     0.210 C 
ENDBRANCH  17  23
ENDBRANCH   3  16
TORSDOF 3
