REMARK  2 active torsions:
REMARK  status: ('A' for Active; 'I' for Inactive)
REMARK    1  A    between atoms: C5_10  and  N1_4 
REMARK       I    between atoms: C6_11  and  N2_5 
REMARK    2  A    between atoms: C6_11  and  C8_13 
ROOT
HETATM    1  O2  UNK     1       1.076   2.102  -2.300  1.00  0.00    -0.274 OA
HETATM    2  O3  UNK     1      -1.022   1.363  -2.822  1.00  0.00    -0.259 OA
HETATM    3  C8  UNK     1       0.242   0.012  -1.342  1.00  0.00     0.108 A 
HETATM    4  C9  UNK     1       1.388  -0.171  -0.676  1.00  0.00     0.037 A 
HETATM    5  C10 UNK     1       0.027   1.192  -2.211  1.00  0.00     0.304 A 
HETATM    6  C11 UNK     1       2.466   0.799  -0.790  1.00  0.00    -0.001 A 
HETATM    7  C12 UNK     1       2.284   1.915  -1.601  1.00  0.00     0.089 A 
HETATM    8  C13 UNK     1       3.679   0.648  -0.113  1.00  0.00     0.014 A 
HETATM    9  C14 UNK     1       3.276   2.881  -1.753  1.00  0.00     0.038 A 
HETATM   10  C15 UNK     1       4.684   1.609  -0.256  1.00  0.00     0.001 A 
HETATM   11  C16 UNK     1       4.483   2.723  -1.074  1.00  0.00     0.003 A 
ENDROOT
BRANCH   3  12
HETATM   12  C6  UNK     1      -0.791  -1.027  -1.161  1.00  0.00     0.260 C 
HETATM   13  O1  UNK     1      -0.788  -1.977  -1.946  1.00  0.00    -0.267 OA
HETATM   14  N2  UNK     1      -1.704  -0.859  -0.122  1.00  0.00    -0.344 N 
HETATM   15  C3  UNK     1      -2.745  -1.868   0.079  1.00  0.00     0.156 C 
HETATM   16  C4  UNK     1      -1.823   0.322   0.742  1.00  0.00     0.156 C 
HETATM   17  C1  UNK     1      -2.922  -2.216   1.555  1.00  0.00     0.292 C 
HETATM   18  N1  UNK     1      -3.171  -1.002   2.343  1.00  0.00     0.091 N 
HETATM   19  C2  UNK     1      -2.045  -0.069   2.205  1.00  0.00     0.292 C 
BRANCH  18  20
HETATM   20  C5  UNK     1      -3.389  -1.339   3.750  1.00  0.00     0.268 C 
HETATM   21  C7  UNK     1      -4.605  -2.226   3.926  1.00  0.00     0.037 C 
ENDBRANCH  18  20
ENDBRANCH   3  12
TORSDOF 2
