REMARK  5 active torsions:
REMARK  status: ('A' for Active; 'I' for Inactive)
REMARK    1  A    between atoms: C12_20  and  O2_3 
REMARK    2  A    between atoms: C13_21  and  O3_4 
REMARK       I    between atoms: C10_18  and  N1_8 
REMARK    3  A    between atoms: C3_11  and  N1_8 
REMARK    4  A    between atoms: C13_21  and  C2_10 
REMARK    5  A    between atoms: C10_18  and  C6_14 
ROOT
HETATM    1  O4  UNK     1       0.736  -0.121   2.346  1.00  0.00    -0.267 OA
HETATM    2  N1  UNK     1      -0.924  -0.459   0.704  1.00  0.00    -0.316 N 
HETATM    3  C10 UNK     1       0.318  -0.076   1.190  1.00  0.00     0.262 C 
HETATM    4  H1  UNK     1      -1.133  -0.343  -0.284  1.00  0.00     0.169 HD
ENDROOT
BRANCH   3   5
HETATM    5  C6  UNK     1       1.188   0.437   0.125  1.00  0.00     0.108 A 
HETATM    6  C15 UNK     1       1.081  -0.037  -1.273  1.00  0.00     0.304 A 
HETATM    7  O1  UNK     1       1.962   0.527  -2.193  1.00  0.00    -0.271 OA
HETATM    8  O6  UNK     1       0.260  -0.883  -1.610  1.00  0.00    -0.259 OA
HETATM    9  C7  UNK     1       2.908   1.499  -1.816  1.00  0.00     0.123 A 
HETATM   10  C12 UNK     1       3.747   2.004  -2.808  1.00  0.00     0.102 A 
HETATM   11  C5  UNK     1       2.992   1.930  -0.496  1.00  0.00     0.002 A 
HETATM   12  C16 UNK     1       4.695   2.966  -2.465  1.00  0.00     0.040 A 
HETATM   13  C17 UNK     1       4.794   3.411  -1.145  1.00  0.00     0.004 A 
HETATM   14  C14 UNK     1       3.945   2.895  -0.161  1.00  0.00     0.014 A 
HETATM   15  C9  UNK     1       2.085   1.361   0.489  1.00  0.00     0.037 A 
BRANCH  10  16
HETATM   16  O2  UNK     1       3.654   1.574  -4.094  1.00  0.00    -0.353 OA
HETATM   17  C18 UNK     1       2.767   2.286  -4.956  1.00  0.00     0.210 C 
ENDBRANCH  10  16
ENDBRANCH   3   5
BRANCH   2  18
HETATM   18  C3  UNK     1      -1.978  -0.986   1.457  1.00  0.00     0.094 A 
HETATM   19  C2  UNK     1      -3.219  -1.386   1.077  1.00  0.00     0.080 A 
HETATM   20  C1  UNK     1      -3.968  -1.863   2.190  1.00  0.00    -0.030 A 
HETATM   21  C4  UNK     1      -3.250  -1.798   3.364  1.00  0.00    -0.012 A 
HETATM   22  C8  UNK     1      -5.360  -2.372   2.100  1.00  0.00     0.050 C 
HETATM   23  C11 UNK     1      -3.662  -2.194   4.729  1.00  0.00     0.057 C 
HETATM   24  S1  UNK     1      -1.678  -1.164   3.120  1.00  0.00    -0.076 SA
BRANCH  19  25
HETATM   25  C13 UNK     1      -3.690  -1.326  -0.285  1.00  0.00     0.296 C 
HETATM   26  O5  UNK     1      -4.519  -2.113  -0.765  1.00  0.00    -0.259 OA
BRANCH  25  27
HETATM   27  O3  UNK     1      -3.133  -0.305  -1.024  1.00  0.00    -0.322 OA
HETATM   28  C19 UNK     1      -3.556  -0.188  -2.387  1.00  0.00     0.213 C 
ENDBRANCH  25  27
ENDBRANCH  19  25
ENDBRANCH   2  18
TORSDOF 5
