REMARK  4 active torsions:
REMARK  status: ('A' for Active; 'I' for Inactive)
REMARK    1  A    between atoms: C3_8  and  N1_4 
REMARK       I    between atoms: C8_13  and  N2_5 
REMARK    2  A    between atoms: C3_8  and  C6_11 
REMARK    3  A    between atoms: C3_8  and  C7_12 
REMARK    4  A    between atoms: C13_18  and  C8_13 
ROOT
HETATM    1  O1  UNK     1       0.372   0.396  -4.140  1.00  0.00    -0.267 OA
HETATM    2  N1  UNK     1      -1.763  -0.590   0.275  1.00  0.00     0.105 N 
HETATM    3  N2  UNK     1      -0.273   0.533  -1.909  1.00  0.00    -0.344 N 
HETATM    4  C1  UNK     1      -1.801  -1.218  -1.052  1.00  0.00     0.293 C 
HETATM    5  C2  UNK     1      -0.445   0.014   0.512  1.00  0.00     0.293 C 
HETATM    6  C4  UNK     1      -1.528  -0.183  -2.141  1.00  0.00     0.156 C 
HETATM    7  C5  UNK     1      -0.117   1.067  -0.550  1.00  0.00     0.156 C 
HETATM    8  C8  UNK     1       0.586   0.759  -2.982  1.00  0.00     0.260 C 
ENDROOT
BRANCH   2   9
HETATM    9  C3  UNK     1      -2.073  -1.570   1.316  1.00  0.00     0.289 C 
BRANCH   9  10
HETATM   10  C6  UNK     1      -3.452  -2.183   1.145  1.00  0.00    -0.021 A 
HETATM   11  C11 UNK     1      -4.451  -1.431   0.556  1.00  0.00     0.010 A 
HETATM   12  C16 UNK     1      -5.717  -1.995   0.399  1.00  0.00     0.001 A 
HETATM   13  C19 UNK     1      -5.960  -3.298   0.834  1.00  0.00     0.000 A 
HETATM   14  C14 UNK     1      -4.937  -4.037   1.425  1.00  0.00     0.001 A 
HETATM   15  C9  UNK     1      -3.670  -3.474   1.583  1.00  0.00     0.010 A 
ENDBRANCH   9  10
BRANCH   9  16
HETATM   16  C7  UNK     1      -1.865  -1.016   2.716  1.00  0.00    -0.021 A 
HETATM   17  C10 UNK     1      -0.628  -1.156   3.314  1.00  0.00     0.010 A 
HETATM   18  C15 UNK     1      -0.437  -0.648   4.599  1.00  0.00     0.001 A 
HETATM   19  C20 UNK     1      -1.487  -0.011   5.260  1.00  0.00     0.000 A 
HETATM   20  C17 UNK     1      -2.728   0.118   4.637  1.00  0.00     0.001 A 
HETATM   21  C12 UNK     1      -2.919  -0.389   3.352  1.00  0.00     0.010 A 
ENDBRANCH   9  16
ENDBRANCH   2   9
BRANCH   8  22
HETATM   22  C13 UNK     1       1.840   1.492  -2.716  1.00  0.00     0.108 A 
HETATM   23  C18 UNK     1       2.901   0.747  -2.381  1.00  0.00     0.037 A 
HETATM   24  C22 UNK     1       4.181   1.379  -2.100  1.00  0.00    -0.001 A 
HETATM   25  C23 UNK     1       4.281   2.764  -2.185  1.00  0.00     0.089 A 
HETATM   26  C24 UNK     1       5.313   0.641  -1.746  1.00  0.00     0.014 A 
HETATM   27  O2  UNK     1       3.161   3.542  -2.538  1.00  0.00    -0.274 OA
HETATM   28  C25 UNK     1       5.477   3.430  -1.927  1.00  0.00     0.038 A 
HETATM   29  C21 UNK     1       1.924   2.966  -2.813  1.00  0.00     0.304 A 
HETATM   30  O3  UNK     1       0.954   3.652  -3.119  1.00  0.00    -0.259 OA
HETATM   31  C27 UNK     1       6.602   2.687  -1.576  1.00  0.00     0.003 A 
HETATM   32  C26 UNK     1       6.521   1.296  -1.485  1.00  0.00     0.001 A 
ENDBRANCH   8  22
TORSDOF 4
