REMARK  3 active torsions:
REMARK  status: ('A' for Active; 'I' for Inactive)
REMARK    1  A    between atoms: C5_9  and  O2_2 
REMARK    2  A    between atoms: C15_19  and  O4_4 
REMARK    3  A    between atoms: C1_5  and  C4_8 
ROOT
HETATM    1  O1  UNK     1      -0.859  -0.404  -0.654  1.00  0.00    -0.306 OA
HETATM    2  O3  UNK     1      -1.389   0.793   3.205  1.00  0.00    -0.284 OA
HETATM    3  C1  UNK     1      -0.036   0.548  -0.073  1.00  0.00     0.123 A 
HETATM    4  C2  UNK     1      -2.092  -0.589   1.428  1.00  0.00     0.051 A 
HETATM    5  C3  UNK     1      -1.861  -0.953   0.104  1.00  0.00     0.090 A 
HETATM    6  C5  UNK     1      -0.159   0.993   1.191  1.00  0.00     0.152 A 
HETATM    7  C6  UNK     1      -1.230   0.429   2.047  1.00  0.00     0.220 A 
HETATM    8  C7  UNK     1      -3.129  -1.183   2.152  1.00  0.00     0.018 A 
HETATM    9  C8  UNK     1      -2.667  -1.915  -0.507  1.00  0.00     0.038 A 
HETATM   10  C11 UNK     1      -3.934  -2.145   1.539  1.00  0.00     0.001 A 
HETATM   11  C12 UNK     1      -3.703  -2.510   0.212  1.00  0.00     0.003 A 
ENDROOT
BRANCH   3  12
HETATM   12  C4  UNK     1       0.996   1.056  -0.995  1.00  0.00     0.001 A 
HETATM   13  C10 UNK     1       0.724   2.156  -1.808  1.00  0.00     0.017 A 
HETATM   14  C14 UNK     1       1.700   2.638  -2.680  1.00  0.00     0.037 A 
HETATM   15  C15 UNK     1       2.948   2.018  -2.740  1.00  0.00     0.065 A 
HETATM   16  C13 UNK     1       3.220   0.918  -1.928  1.00  0.00     0.037 A 
HETATM   17  C9  UNK     1       2.244   0.437  -1.055  1.00  0.00     0.017 A 
BRANCH  15  18
HETATM   18  O4  UNK     1       3.901   2.488  -3.591  1.00  0.00    -0.361 OA
HETATM   19  H10 UNK     1       4.700   1.942  -3.501  1.00  0.00     0.217 HD
ENDBRANCH  15  18
ENDBRANCH   3  12
BRANCH   6  20
HETATM   20  O2  UNK     1       0.657   1.965   1.729  1.00  0.00    -0.355 OA
HETATM   21  H9  UNK     1       1.309   2.250   1.069  1.00  0.00     0.218 HD
ENDBRANCH   6  20
TORSDOF 3
