REMARK  10 active torsions:
REMARK  status: ('A' for Active; 'I' for Inactive)
REMARK    1  A    between atoms: C2_12  and  O1_1 
REMARK    2  A    between atoms: C5_15  and  O1_1 
REMARK    3  A    between atoms: C12_22  and  O2_2 
REMARK    4  A    between atoms: C8_18  and  O2_2 
REMARK    5  A    between atoms: C3_13  and  O3_3 
REMARK    6  A    between atoms: C15_25  and  N1_8 
REMARK    7  A    between atoms: C20_30  and  N2_9 
REMARK    8  A    between atoms: C1_11  and  C9_19 
REMARK    9  A    between atoms: C5_15  and  C8_18 
REMARK   10  A    between atoms: C10_20  and  C11_21 
ROOT
HETATM    1  N3  UNK     1       2.187   2.111   0.665  1.00  0.00    -0.191 NA
HETATM    2  C9  UNK     1       2.383   1.052  -2.611  1.00  0.00     0.035 C 
HETATM    3  C11 UNK     1       3.106   1.816  -1.749  1.00  0.00     0.055 C 
HETATM    4  C24 UNK     1       2.589   1.974  -0.415  1.00  0.00     0.100 C 
ENDROOT
BRANCH   3   5
HETATM    5  C10 UNK     1       4.359   2.466  -2.100  1.00  0.00    -0.015 A 
HETATM    6  C13 UNK     1       5.527   2.153  -1.404  1.00  0.00     0.015 A 
HETATM    7  C16 UNK     1       6.728   2.775  -1.741  1.00  0.00     0.037 A 
HETATM    8  C15 UNK     1       6.762   3.712  -2.774  1.00  0.00     0.102 A 
HETATM    9  C17 UNK     1       5.595   4.026  -3.470  1.00  0.00     0.037 A 
HETATM   10  C14 UNK     1       4.393   3.403  -3.133  1.00  0.00     0.015 A 
BRANCH   8  11
HETATM   11  N1  UNK     1       7.986   4.346  -3.118  1.00  0.00    -0.116 N 
HETATM   12  O4  UNK     1       9.025   4.050  -2.480  1.00  0.00    -0.532 OA
HETATM   13  O5  UNK     1       7.994   5.185  -4.051  1.00  0.00    -0.532 OA
ENDBRANCH   8  11
ENDBRANCH   3   5
BRANCH   2  14
HETATM   14  C1  UNK     1       1.118   0.371  -2.297  1.00  0.00    -0.032 A 
HETATM   15  C4  UNK     1      -0.095   1.031  -2.492  1.00  0.00     0.051 A 
HETATM   16  C3  UNK     1      -1.295   0.386  -2.195  1.00  0.00     0.102 A 
HETATM   17  C2  UNK     1      -1.282  -0.919  -1.703  1.00  0.00     0.102 A 
HETATM   18  C7  UNK     1      -0.069  -1.579  -1.508  1.00  0.00     0.040 A 
HETATM   19  C6  UNK     1       1.132  -0.934  -1.805  1.00  0.00     0.014 A 
BRANCH  16  20
HETATM   20  O3  UNK     1      -2.474   1.040  -2.389  1.00  0.00    -0.353 OA
HETATM   21  C23 UNK     1      -2.400   2.372  -2.895  1.00  0.00     0.210 C 
ENDBRANCH  16  20
BRANCH  17  22
HETATM   22  O1  UNK     1      -2.448  -1.561  -1.409  1.00  0.00    -0.346 OA
BRANCH  22  23
HETATM   23  C5  UNK     1      -2.408  -2.531  -0.365  1.00  0.00     0.202 C 
BRANCH  23  24
HETATM   24  C8  UNK     1      -3.756  -2.567   0.329  1.00  0.00     0.202 C 
BRANCH  24  25
HETATM   25  O2  UNK     1      -3.723  -3.550   1.357  1.00  0.00    -0.349 OA
BRANCH  25  26
HETATM   26  C12 UNK     1      -4.504  -3.317   2.458  1.00  0.00     0.069 A 
HETATM   27  C18 UNK     1      -5.689  -2.592   2.332  1.00  0.00     0.039 A 
HETATM   28  C21 UNK     1      -6.484  -2.354   3.453  1.00  0.00     0.039 A 
HETATM   29  C20 UNK     1      -6.095  -2.842   4.700  1.00  0.00     0.103 A 
HETATM   30  C22 UNK     1      -4.910  -3.568   4.826  1.00  0.00     0.039 A 
HETATM   31  C19 UNK     1      -4.115  -3.806   3.705  1.00  0.00     0.039 A 
BRANCH  29  32
HETATM   32  N2  UNK     1      -6.905  -2.601   5.841  1.00  0.00    -0.116 N 
HETATM   33  O6  UNK     1      -7.966  -1.946   5.706  1.00  0.00    -0.532 OA
HETATM   34  O7  UNK     1      -6.537  -3.049   6.954  1.00  0.00    -0.532 OA
ENDBRANCH  29  32
ENDBRANCH  25  26
ENDBRANCH  24  25
ENDBRANCH  23  24
ENDBRANCH  22  23
ENDBRANCH  17  22
ENDBRANCH   2  14
TORSDOF 10
