REMARK  5 active torsions:
REMARK  status: ('A' for Active; 'I' for Inactive)
REMARK    1  A    between atoms: C10_17  and  O2_3 
REMARK    2  A    between atoms: C7_14  and  O2_3 
REMARK    3  A    between atoms: C13_20  and  O3_4 
REMARK    4  A    between atoms: C6_13  and  O3_4 
REMARK    5  A    between atoms: C13_20  and  C14_21 
ROOT
HETATM    1  O1  UNK     1      -1.301   1.163   0.402  1.00  0.00    -0.319 OA
HETATM    2  O4  UNK     1      -2.025  -2.437  -1.384  1.00  0.00    -0.284 OA
HETATM    3  C1  UNK     1      -0.683  -0.494  -1.268  1.00  0.00     0.051 A 
HETATM    4  C2  UNK     1      -0.489   0.726  -0.616  1.00  0.00     0.092 A 
HETATM    5  C3  UNK     1      -1.804  -1.358  -0.852  1.00  0.00     0.220 A 
HETATM    6  C4  UNK     1       0.175  -0.888  -2.297  1.00  0.00     0.021 A 
HETATM    7  C5  UNK     1       0.565   1.558  -0.993  1.00  0.00     0.075 A 
HETATM    8  C6  UNK     1       1.424   1.167  -2.021  1.00  0.00     0.082 A 
HETATM    9  C7  UNK     1      -2.646  -0.840   0.249  1.00  0.00     0.149 A 
HETATM   10  C8  UNK     1       1.229  -0.053  -2.671  1.00  0.00     0.038 A 
HETATM   11  C9  UNK     1      -2.340   0.348   0.779  1.00  0.00     0.184 A 
ENDROOT
BRANCH   8  12
HETATM   12  O3  UNK     1       2.454   1.977  -2.391  1.00  0.00    -0.273 OA
BRANCH  12  13
HETATM   13  C13 UNK     1       3.645   1.746  -1.700  1.00  0.00     0.322 C 
HETATM   14  O6  UNK     1       3.812   0.900  -0.834  1.00  0.00    -0.257 OA
BRANCH  13  15
HETATM   15  C14 UNK     1       4.718   2.665  -2.157  1.00  0.00     0.150 A 
HETATM   16  O5  UNK     1       5.897   2.512  -1.559  1.00  0.00    -0.317 OA
HETATM   17  C20 UNK     1       6.692   3.448  -2.141  1.00  0.00     0.143 A 
HETATM   18  C19 UNK     1       5.988   4.159  -3.085  1.00  0.00     0.027 A 
HETATM   19  C18 UNK     1       4.678   3.625  -3.083  1.00  0.00     0.045 A 
ENDBRANCH  13  15
ENDBRANCH  12  13
ENDBRANCH   8  12
BRANCH   9  20
HETATM   20  O2  UNK     1      -3.712  -1.585   0.696  1.00  0.00    -0.303 OA
BRANCH  20  21
HETATM   21  C10 UNK     1      -3.698  -1.966   2.009  1.00  0.00     0.093 A 
HETATM   22  C11 UNK     1      -4.709  -1.579   2.885  1.00  0.00     0.044 A 
HETATM   23 Br1  UNK     1      -6.159  -0.506   2.304  1.00  0.00    -0.048 Br
HETATM   24  C15 UNK     1      -4.665  -1.985   4.219  1.00  0.00     0.022 A 
HETATM   25  C17 UNK     1      -3.609  -2.775   4.673  1.00  0.00     0.002 A 
HETATM   26  C16 UNK     1      -2.598  -3.161   3.793  1.00  0.00     0.003 A 
HETATM   27  C12 UNK     1      -2.642  -2.755   2.459  1.00  0.00     0.039 A 
ENDBRANCH  20  21
ENDBRANCH   9  20
TORSDOF 5
