REMARK  3 active torsions:
REMARK  status: ('A' for Active; 'I' for Inactive)
REMARK    1  A    between atoms: C5_11  and  N1_5 
REMARK       I    between atoms: C6_12  and  N1_5 
REMARK       I    between atoms: C17_23  and  N2_6 
REMARK    2  A    between atoms: C2_8  and  C6_12 
REMARK    3  A    between atoms: C13_19  and  C17_23 
ROOT
HETATM    1  O2  UNK     1       0.415   0.943   1.507  1.00  0.00    -0.267 OA
HETATM    2  N1  UNK     1      -0.769  -0.239  -0.150  1.00  0.00    -0.323 N 
HETATM    3  C6  UNK     1       0.235   0.581   0.345  1.00  0.00     0.262 C 
HETATM    4  H3  UNK     1      -0.765  -0.463  -1.143  1.00  0.00     0.169 HD
ENDROOT
BRANCH   2   5
HETATM    5  C5  UNK     1      -1.822  -0.850   0.574  1.00  0.00     0.035 A 
HETATM    6  C10 UNK     1      -1.914  -0.642   1.940  1.00  0.00     0.030 A 
HETATM    7  C15 UNK     1      -2.951  -1.243   2.653  1.00  0.00     0.019 A 
HETATM    8  C13 UNK     1      -3.880  -2.044   1.989  1.00  0.00     0.032 A 
HETATM    9  C16 UNK     1      -3.773  -2.243   0.613  1.00  0.00     0.019 A 
HETATM   10  C11 UNK     1      -2.736  -1.642  -0.100  1.00  0.00     0.030 A 
BRANCH   8  11
HETATM   11  C17 UNK     1      -4.962  -2.671   2.732  1.00  0.00     0.249 C 
HETATM   12  O4  UNK     1      -5.796  -3.403   2.169  1.00  0.00    -0.268 OA
HETATM   13  N2  UNK     1      -5.025  -2.440   4.103  1.00  0.00    -0.366 N 
HETATM   14  H11 UNK     1      -4.389  -1.864   4.639  1.00  0.00     0.159 HD
HETATM   15  H12 UNK     1      -5.767  -2.871   4.645  1.00  0.00     0.159 HD
ENDBRANCH   8  11
ENDBRANCH   2   5
BRANCH   3  16
HETATM   16  C2  UNK     1       1.155   1.028  -0.708  1.00  0.00     0.108 A 
HETATM   17  C4  UNK     1       2.417   1.261  -0.330  1.00  0.00     0.037 A 
HETATM   18  C1  UNK     1       3.403   1.708  -1.303  1.00  0.00    -0.001 A 
HETATM   19  C3  UNK     1       3.010   1.888  -2.625  1.00  0.00     0.089 A 
HETATM   20  C7  UNK     1       4.731   1.963  -0.953  1.00  0.00     0.014 A 
HETATM   21  O1  UNK     1       1.680   1.640  -3.016  1.00  0.00    -0.274 OA
HETATM   22  C9  UNK     1       3.905   2.314  -3.605  1.00  0.00     0.038 A 
HETATM   23  C8  UNK     1       0.715   1.212  -2.109  1.00  0.00     0.304 A 
HETATM   24  O3  UNK     1      -0.441   1.000  -2.459  1.00  0.00    -0.259 OA
HETATM   25  C14 UNK     1       5.227   2.566  -3.248  1.00  0.00     0.003 A 
HETATM   26  C12 UNK     1       5.640   2.391  -1.925  1.00  0.00     0.001 A 
ENDBRANCH   3  16
TORSDOF 3
