REMARK  3 active torsions:
REMARK  status: ('A' for Active; 'I' for Inactive)
REMARK    1  A    between atoms: C11_14  and  C4_7 
REMARK    2  A    between atoms: C11_14  and  C13_16 
REMARK    3  A    between atoms: C14_17  and  C15_18 
ROOT
HETATM    1  N1  UNK     1      -3.310  -2.567   2.862  1.00  0.00    -0.350 N 
HETATM    2  N2  UNK     1      -3.770  -3.034   0.554  1.00  0.00    -0.243 NA
HETATM    3  C1  UNK     1      -2.302  -1.153   1.191  1.00  0.00     0.031 A 
HETATM    4  C2  UNK     1      -1.484  -0.063   0.824  1.00  0.00    -0.007 A 
HETATM    5  C3  UNK     1      -2.486  -1.472   2.551  1.00  0.00     0.046 A 
HETATM    6  C4  UNK     1      -1.320   0.231  -0.538  1.00  0.00     0.025 A 
HETATM    7  C5  UNK     1      -2.944  -1.934   0.204  1.00  0.00     0.071 A 
HETATM    8  C6  UNK     1      -0.863   0.689   1.835  1.00  0.00     0.013 A 
HETATM    9  C7  UNK     1      -1.954  -0.542  -1.513  1.00  0.00     0.018 A 
HETATM   10  C8  UNK     1      -2.762  -1.618  -1.145  1.00  0.00     0.033 A 
HETATM   11  C9  UNK     1      -1.860  -0.712   3.541  1.00  0.00     0.030 A 
HETATM   12  C10 UNK     1      -1.051   0.365   3.181  1.00  0.00     0.003 A 
HETATM   13  C12 UNK     1      -3.887  -3.261   1.828  1.00  0.00     0.208 A 
HETATM   14  H5  UNK     1      -3.457  -2.814   3.833  1.00  0.00     0.166 HD
ENDROOT
BRANCH   6  15
HETATM   15  C11 UNK     1      -0.491   1.339  -1.003  1.00  0.00     0.183 C 
HETATM   16  O1  UNK     1      -0.984   2.458  -1.192  1.00  0.00    -0.288 OA
BRANCH  15  17
HETATM   17  C13 UNK     1       0.963   1.079  -1.276  1.00  0.00     0.056 C 
HETATM   18  C14 UNK     1       1.762   2.060  -1.726  1.00  0.00     0.015 C 
BRANCH  18  19
HETATM   19  C15 UNK     1       3.168   1.963  -2.041  1.00  0.00    -0.036 A 
HETATM   20  C16 UNK     1       3.941   0.920  -1.517  1.00  0.00     0.011 A 
HETATM   21  C18 UNK     1       5.299   0.827  -1.821  1.00  0.00     0.001 A 
HETATM   22  C20 UNK     1       5.894   1.776  -2.652  1.00  0.00     0.000 A 
HETATM   23  C19 UNK     1       5.132   2.819  -3.178  1.00  0.00     0.001 A 
HETATM   24  C17 UNK     1       3.774   2.912  -2.874  1.00  0.00     0.011 A 
ENDBRANCH  18  19
ENDBRANCH  15  17
ENDBRANCH   6  15
TORSDOF 3
