REMARK  2 active torsions:
REMARK  status: ('A' for Active; 'I' for Inactive)
REMARK    1  A    between atoms: C1_5  and  N1_4 
REMARK       I    between atoms: C6_10  and  N1_4 
REMARK    2  A    between atoms: C2_6  and  C6_10 
ROOT
HETATM    1  O1  UNK     1       0.180   0.429  -2.182  1.00  0.00    -0.274 OA
HETATM    2  O3  UNK     1      -1.681  -0.771  -1.621  1.00  0.00    -0.259 OA
HETATM    3  C2  UNK     1      -0.183  -0.249   0.139  1.00  0.00     0.108 A 
HETATM    4  C3  UNK     1       1.789   1.025  -0.459  1.00  0.00    -0.001 A 
HETATM    5  C7  UNK     1       0.956   0.341   0.519  1.00  0.00     0.037 A 
HETATM    6  C8  UNK     1       1.380   1.052  -1.788  1.00  0.00     0.089 A 
HETATM    7  C9  UNK     1      -0.637  -0.232  -1.269  1.00  0.00     0.304 A 
HETATM    8  C10 UNK     1       2.986   1.654  -0.108  1.00  0.00     0.014 A 
HETATM    9  C11 UNK     1       2.132   1.690  -2.774  1.00  0.00     0.038 A 
HETATM   10  C12 UNK     1       3.750   2.298  -1.085  1.00  0.00     0.001 A 
HETATM   11  C13 UNK     1       3.324   2.316  -2.415  1.00  0.00     0.003 A 
ENDROOT
BRANCH   3  12
HETATM   12  C6  UNK     1      -0.954  -0.912   1.198  1.00  0.00     0.258 C 
HETATM   13  O2  UNK     1      -0.392  -1.401   2.176  1.00  0.00    -0.267 OA
HETATM   14  N1  UNK     1      -2.315  -0.910   0.954  1.00  0.00    -0.353 N 
HETATM   15  H2  UNK     1      -2.683  -0.410   0.150  1.00  0.00     0.163 HD
BRANCH  14  16
HETATM   16  C1  UNK     1      -3.278  -1.506   1.852  1.00  0.00     0.076 C 
HETATM   17  C4  UNK     1      -4.467  -2.050   1.070  1.00  0.00     0.032 C 
HETATM   18  C5  UNK     1      -3.724  -0.497   2.904  1.00  0.00     0.032 C 
ENDBRANCH  14  16
ENDBRANCH   3  12
TORSDOF 2
