REMARK  4 active torsions:
REMARK  status: ('A' for Active; 'I' for Inactive)
REMARK    1  A    between atoms: C15_20  and  O2_3 
REMARK    2  A    between atoms: C3_8  and  O2_3 
REMARK    3  A    between atoms: C1_6  and  C6_11 
REMARK    4  A    between atoms: C15_20  and  C16_21 
ROOT
HETATM    1  O1  UNK     1      -0.954   0.924   1.374  1.00  0.00    -0.306 OA
HETATM    2  O3  UNK     1      -1.435  -2.394  -0.942  1.00  0.00    -0.284 OA
HETATM    3  C1  UNK     1      -0.112   0.659   0.307  1.00  0.00     0.126 A 
HETATM    4  C2  UNK     1      -2.197  -1.101   0.878  1.00  0.00     0.051 A 
HETATM    5  C3  UNK     1      -0.209  -0.418  -0.493  1.00  0.00     0.164 A 
HETATM    6  C4  UNK     1      -1.977   0.049   1.633  1.00  0.00     0.090 A 
HETATM    7  C5  UNK     1      -1.296  -1.396  -0.247  1.00  0.00     0.221 A 
HETATM    8  C7  UNK     1      -3.256  -1.958   1.188  1.00  0.00     0.018 A 
HETATM    9  C8  UNK     1      -2.816   0.349   2.707  1.00  0.00     0.038 A 
HETATM   10  C11 UNK     1      -4.094  -1.654   2.262  1.00  0.00     0.001 A 
HETATM   11  C12 UNK     1      -3.875  -0.504   3.020  1.00  0.00     0.003 A 
ENDROOT
BRANCH   3  12
HETATM   12  C6  UNK     1       0.941   1.677   0.138  1.00  0.00     0.022 A 
HETATM   13  C10 UNK     1       0.674   2.762  -0.700  1.00  0.00     0.016 A 
HETATM   14  C14 UNK     1       1.637   3.752  -0.892  1.00  0.00     0.001 A 
HETATM   15  C17 UNK     1       2.871   3.661  -0.247  1.00  0.00     0.002 A 
HETATM   16  C13 UNK     1       3.141   2.578   0.591  1.00  0.00     0.025 A 
HETATM   17  C9  UNK     1       2.177   1.588   0.783  1.00  0.00     0.047 A 
HETATM   18 Cl1  UNK     1       2.564   0.268   1.832  1.00  0.00    -0.083 Cl
ENDBRANCH   3  12
BRANCH   5  19
HETATM   19  O2  UNK     1       0.667  -0.669  -1.527  1.00  0.00    -0.272 OA
BRANCH  19  20
HETATM   20  C15 UNK     1       0.289  -0.125  -2.732  1.00  0.00     0.263 C 
HETATM   21  O4  UNK     1      -0.720   0.529  -2.958  1.00  0.00    -0.265 OA
BRANCH  20  22
HETATM   22  C16 UNK     1       1.337  -0.479  -3.765  1.00  0.00     0.107 C 
HETATM   23  C18 UNK     1       0.989   0.058  -5.142  1.00  0.00     0.015 C 
ENDBRANCH  20  22
ENDBRANCH  19  20
ENDBRANCH   5  19
TORSDOF 4
