REMARK  5 active torsions:
REMARK  status: ('A' for Active; 'I' for Inactive)
REMARK    1  A    between atoms: C12_15  and  O1_1 
REMARK    2  A    between atoms: C9_12  and  N1_3 
REMARK    3  A    between atoms: C1_4  and  C2_5 
REMARK    4  A    between atoms: C1_4  and  C12_15 
REMARK    5  A    between atoms: C3_6  and  C4_7 
ROOT
HETATM    1  C1  UNK     1      -1.369  -0.455  -0.365  1.00  0.00     0.050 C 
HETATM    2  C4  UNK     1      -0.830  -0.082  -1.554  1.00  0.00     0.030 C 
ENDROOT
BRANCH   1   3
HETATM    3  C2  UNK     1      -0.651  -0.260   0.909  1.00  0.00    -0.020 A 
HETATM    4  C7  UNK     1      -0.824   0.923   1.609  1.00  0.00     0.012 A 
HETATM    5  C13 UNK     1      -0.145   1.108   2.813  1.00  0.00     0.001 A 
HETATM    6  C15 UNK     1       0.695   0.107   3.300  1.00  0.00     0.000 A 
HETATM    7  C14 UNK     1       0.857  -1.079   2.583  1.00  0.00     0.001 A 
HETATM    8  C8  UNK     1       0.179  -1.263   1.379  1.00  0.00     0.012 A 
ENDBRANCH   1   3
BRANCH   1   9
HETATM    9  C12 UNK     1      -2.728  -1.080  -0.408  1.00  0.00     0.293 C 
HETATM   10  O2  UNK     1      -3.375  -1.269  -1.428  1.00  0.00    -0.259 OA
BRANCH   9  11
HETATM   11  O1  UNK     1      -3.120  -1.407   0.855  1.00  0.00    -0.322 OA
HETATM   12  C16 UNK     1      -4.406  -2.025   0.966  1.00  0.00     0.213 C 
ENDBRANCH   9  11
ENDBRANCH   1   9
BRANCH   2  13
HETATM   13  C3  UNK     1       0.465   0.551  -1.747  1.00  0.00    -0.035 A 
HETATM   14  C5  UNK     1       0.568   1.942  -1.748  1.00  0.00     0.013 A 
HETATM   15  C10 UNK     1       1.810   2.549  -1.933  1.00  0.00     0.030 A 
HETATM   16  C9  UNK     1       2.949   1.765  -2.115  1.00  0.00     0.025 A 
HETATM   17  C11 UNK     1       2.846   0.374  -2.113  1.00  0.00     0.030 A 
HETATM   18  C6  UNK     1       1.604  -0.233  -1.929  1.00  0.00     0.013 A 
BRANCH  16  19
HETATM   19  N1  UNK     1       4.205   2.379  -2.302  1.00  0.00    -0.399 N 
HETATM   20  H11 UNK     1       4.281   3.387  -2.302  1.00  0.00     0.156 HD
HETATM   21  H12 UNK     1       5.032   1.811  -2.433  1.00  0.00     0.156 HD
ENDBRANCH  16  19
ENDBRANCH   2  13
TORSDOF 5
