REMARK  6 active torsions:
REMARK  status: ('A' for Active; 'I' for Inactive)
REMARK    1  A    between atoms: C13_21  and  O1_2 
REMARK    2  A    between atoms: C17_25  and  O1_2 
REMARK    3  A    between atoms: C1_9  and  C10_18 
REMARK    4  A    between atoms: C11_19  and  C4_12 
REMARK    5  A    between atoms: C13_21  and  C8_16 
REMARK    6  A    between atoms: C12_20  and  C17_25 
ROOT
HETATM    1  O3  UNK     1       0.441  -2.198   1.578  1.00  0.00    -0.293 OA
HETATM    2  N1  UNK     1      -2.248  -0.481  -1.925  1.00  0.00    -0.362 N 
HETATM    3  C1  UNK     1      -3.074  -1.345   1.639  1.00  0.00     0.031 C 
HETATM    4  C2  UNK     1      -0.840  -1.241  -0.177  1.00  0.00     0.024 C 
HETATM    5  C3  UNK     1      -3.339  -1.270   0.128  1.00  0.00     0.067 C 
HETATM    6  C4  UNK     1       0.401  -0.899  -0.995  1.00  0.00     0.104 C 
HETATM    7  C5  UNK     1      -2.080  -1.000  -0.656  1.00  0.00     0.021 C 
HETATM    8  C6  UNK     1      -1.919  -2.307   1.922  1.00  0.00     0.093 C 
HETATM    9  C7  UNK     1      -0.678  -1.912   1.151  1.00  0.00     0.159 C 
HETATM   10  C8  UNK     1       0.066  -0.473  -2.426  1.00  0.00     0.052 C 
HETATM   11  C9  UNK     1      -1.212  -0.260  -2.819  1.00  0.00     0.018 C 
HETATM   12  C15 UNK     1      -1.637   0.208  -4.184  1.00  0.00     0.069 C 
HETATM   13  H7  UNK     1      -3.194  -0.317  -2.249  1.00  0.00     0.165 HD
ENDROOT
BRANCH   6  14
HETATM   14  C11 UNK     1       1.199   0.175  -0.306  1.00  0.00     0.029 A 
HETATM   15  C18 UNK     1       2.579  -0.144   0.138  1.00  0.00     0.194 A 
HETATM   16  O6  UNK     1       3.083  -1.245  -0.038  1.00  0.00    -0.287 OA
HETATM   17  C23 UNK     1       3.317   0.943   0.809  1.00  0.00     0.048 A 
HETATM   18  C26 UNK     1       2.693   2.179   0.984  1.00  0.00     0.089 A 
HETATM   19  C28 UNK     1       4.622   0.743   1.265  1.00  0.00     0.018 A 
HETATM   20  O4  UNK     1       1.414   2.431   0.556  1.00  0.00    -0.321 OA
HETATM   21  C29 UNK     1       3.372   3.221   1.616  1.00  0.00     0.038 A 
HETATM   22  C22 UNK     1       0.739   1.409  -0.066  1.00  0.00     0.154 A 
HETATM   23  C31 UNK     1       4.675   3.024   2.072  1.00  0.00     0.003 A 
HETATM   24  C30 UNK     1       5.299   1.787   1.897  1.00  0.00     0.001 A 
ENDBRANCH   6  14
BRANCH  10  25
HETATM   25  C13 UNK     1       1.198  -0.357  -3.360  1.00  0.00     0.292 C 
HETATM   26  O5  UNK     1       1.620  -1.289  -4.017  1.00  0.00    -0.259 OA
BRANCH  25  27
HETATM   27  O1  UNK     1       1.642   0.923  -3.335  1.00  0.00    -0.315 OA
BRANCH  27  28
HETATM   28  C17 UNK     1       2.750   1.197  -4.199  1.00  0.00     0.211 C 
BRANCH  28  29
HETATM   29  C12 UNK     1       3.132   2.658  -4.064  1.00  0.00     0.145 C 
HETATM   30  O2  UNK     1       3.462   2.951  -2.696  1.00  0.00    -0.384 OA
HETATM   31  C21 UNK     1       2.895   4.225  -2.356  1.00  0.00     0.168 C 
HETATM   32  C16 UNK     1       2.381   4.837  -3.642  1.00  0.00     0.029 C 
HETATM   33  C14 UNK     1       2.015   3.614  -4.445  1.00  0.00     0.036 C 
ENDBRANCH  28  29
ENDBRANCH  27  28
ENDBRANCH  25  27
ENDBRANCH  10  25
BRANCH   3  34
HETATM   34  C10 UNK     1      -4.325  -1.704   2.418  1.00  0.00    -0.053 A 
HETATM   35  C19 UNK     1      -5.169  -0.696   2.879  1.00  0.00     0.010 A 
HETATM   36  C24 UNK     1      -6.320  -1.026   3.595  1.00  0.00     0.043 A 
HETATM   37  C27 UNK     1      -6.624  -2.364   3.847  1.00  0.00     0.116 A 
HETATM   38  C25 UNK     1      -5.778  -3.371   3.384  1.00  0.00     0.043 A 
HETATM   39  F1  UNK     1      -7.729  -2.681   4.534  1.00  0.00    -0.206 F 
HETATM   40  C20 UNK     1      -4.627  -3.041   2.668  1.00  0.00     0.010 A 
ENDBRANCH   3  34
TORSDOF 6
