REMARK  3 active torsions:
REMARK  status: ('A' for Active; 'I' for Inactive)
REMARK    1  A    between atoms: C5_9  and  O2_2 
REMARK    2  A    between atoms: C7_11  and  O3_3 
REMARK    3  A    between atoms: C3_7  and  C6_10 
ROOT
HETATM    1  O1  UNK     1       0.040   0.969   0.732  1.00  0.00    -0.306 OA
HETATM    2  O4  UNK     1      -2.188  -1.819  -1.236  1.00  0.00    -0.284 OA
HETATM    3  C1  UNK     1      -1.798  -0.617   0.755  1.00  0.00     0.084 A 
HETATM    4  C2  UNK     1      -0.998   0.342   1.372  1.00  0.00     0.093 A 
HETATM    5  C3  UNK     1       0.295   0.640  -0.590  1.00  0.00     0.123 A 
HETATM    6  C4  UNK     1      -1.523  -0.979  -0.643  1.00  0.00     0.223 A 
HETATM    7  C5  UNK     1      -0.395  -0.273  -1.297  1.00  0.00     0.152 A 
HETATM    8  C7  UNK     1      -2.842  -1.223   1.459  1.00  0.00     0.082 A 
HETATM    9  C8  UNK     1      -1.237   0.702   2.699  1.00  0.00     0.038 A 
HETATM   10  C9  UNK     1      -3.079  -0.861   2.785  1.00  0.00     0.038 A 
HETATM   11  C10 UNK     1      -2.279   0.099   3.404  1.00  0.00     0.006 A 
ENDROOT
BRANCH   5  12
HETATM   12  C6  UNK     1       1.435   1.384  -1.157  1.00  0.00     0.001 A 
HETATM   13  C11 UNK     1       1.221   2.600  -1.807  1.00  0.00     0.014 A 
HETATM   14  C13 UNK     1       2.299   3.303  -2.344  1.00  0.00     0.001 A 
HETATM   15  C15 UNK     1       3.591   2.791  -2.231  1.00  0.00     0.000 A 
HETATM   16  C14 UNK     1       3.806   1.576  -1.581  1.00  0.00     0.001 A 
HETATM   17  C12 UNK     1       2.728   0.872  -1.045  1.00  0.00     0.014 A 
ENDBRANCH   5  12
BRANCH   7  18
HETATM   18  O2  UNK     1      -0.094  -0.600  -2.601  1.00  0.00    -0.355 OA
HETATM   19  H9  UNK     1       0.662  -0.073  -2.907  1.00  0.00     0.218 HD
ENDBRANCH   7  18
BRANCH   8  20
HETATM   20  O3  UNK     1      -3.653  -2.166   0.902  1.00  0.00    -0.360 OA
HETATM   21  H10 UNK     1      -3.399  -2.333  -0.018  1.00  0.00     0.217 HD
ENDBRANCH   8  20
TORSDOF 3
