REMARK  4 active torsions:
REMARK  status: ('A' for Active; 'I' for Inactive)
REMARK    1  A    between atoms: C5_16  and  N1_10 
REMARK       I    between atoms: C7_18  and  N1_10 
REMARK    2  A    between atoms: C11_22  and  N2_11 
REMARK    3  A    between atoms: C3_14  and  C7_18 
REMARK    4  A    between atoms: C17_28  and  C8_19 
ROOT
HETATM    1  O2  UNK     1       1.077  -0.475   1.634  1.00  0.00    -0.267 OA
HETATM    2  N1  UNK     1      -0.955  -0.573   0.449  1.00  0.00    -0.323 N 
HETATM    3  C7  UNK     1       0.400  -0.323   0.619  1.00  0.00     0.262 C 
HETATM    4  H4  UNK     1      -1.373  -0.373  -0.457  1.00  0.00     0.169 HD
ENDROOT
BRANCH   3   5
HETATM    5  C3  UNK     1       1.029   0.181  -0.608  1.00  0.00     0.108 A 
HETATM    6  C12 UNK     1       0.541  -0.198  -1.953  1.00  0.00     0.304 A 
HETATM    7  O1  UNK     1       1.221   0.344  -3.040  1.00  0.00    -0.274 OA
HETATM    8  O3  UNK     1      -0.413  -0.953  -2.108  1.00  0.00    -0.259 OA
HETATM    9  C2  UNK     1       2.319   1.211  -2.873  1.00  0.00     0.089 A 
HETATM   10  C1  UNK     1       2.761   1.554  -1.599  1.00  0.00     0.001 A 
HETATM   11  C10 UNK     1       2.935   1.704  -4.021  1.00  0.00     0.041 A 
HETATM   12  C6  UNK     1       3.853   2.416  -1.475  1.00  0.00     0.050 A 
HETATM   13  C4  UNK     1       2.071   1.003  -0.443  1.00  0.00     0.037 A 
HETATM   14  C11 UNK     1       4.482   2.918  -2.617  1.00  0.00     0.103 A 
HETATM   15  C13 UNK     1       4.023   2.563  -3.888  1.00  0.00     0.039 A 
BRANCH  14  16
HETATM   16  N2  UNK     1       5.592   3.794  -2.487  1.00  0.00    -0.116 N 
HETATM   17  O4  UNK     1       6.144   4.235  -3.524  1.00  0.00    -0.532 OA
HETATM   18  O5  UNK     1       5.990   4.104  -1.338  1.00  0.00    -0.532 OA
ENDBRANCH  14  16
ENDBRANCH   3   5
BRANCH   2  19
HETATM   19  C5  UNK     1      -1.871  -1.064   1.411  1.00  0.00     0.035 A 
HETATM   20  C14 UNK     1      -1.421  -1.345   2.690  1.00  0.00     0.031 A 
HETATM   21  C16 UNK     1      -2.323  -1.827   3.639  1.00  0.00     0.027 A 
HETATM   22  C15 UNK     1      -3.661  -2.020   3.294  1.00  0.00     0.049 A 
HETATM   23  C8  UNK     1      -4.097  -1.731   2.001  1.00  0.00     0.071 A 
HETATM   24 Cl1  UNK     1      -4.748  -2.619   4.494  1.00  0.00    -0.083 Cl
HETATM   25  C9  UNK     1      -3.195  -1.249   1.052  1.00  0.00     0.047 A 
BRANCH  23  26
HETATM   26  C17 UNK     1      -5.521  -1.925   1.592  1.00  0.00     0.419 C 
HETATM   27  F1  UNK     1      -5.764  -1.591   0.291  1.00  0.00    -0.166 F 
HETATM   28  F2  UNK     1      -5.953  -3.213   1.719  1.00  0.00    -0.166 F 
HETATM   29  F3  UNK     1      -6.384  -1.172   2.332  1.00  0.00    -0.166 F 
ENDBRANCH  23  26
ENDBRANCH   2  19
TORSDOF 4
