REMARK  3 active torsions:
REMARK  status: ('A' for Active; 'I' for Inactive)
REMARK    1  A    between atoms: C1_8  and  N2_6 
REMARK       I    between atoms: C8_15  and  N2_6 
REMARK    2  A    between atoms: C2_9  and  C5_12 
REMARK    3  A    between atoms: C7_14  and  C8_15 
ROOT
HETATM    1  O2  UNK     1      -0.319  -0.704  -1.695  1.00  0.00    -0.267 OA
HETATM    2  N2  UNK     1      -0.439   0.023   0.542  1.00  0.00    -0.306 N 
HETATM    3  C8  UNK     1       0.077  -0.030  -0.746  1.00  0.00     0.263 C 
HETATM    4  H1  UNK     1       0.129   0.476   1.253  1.00  0.00     0.170 HD
ENDROOT
BRANCH   2   5
HETATM    5  C1  UNK     1      -1.547  -0.692   1.058  1.00  0.00     0.146 A 
HETATM    6  N1  UNK     1      -1.628  -1.045   2.355  1.00  0.00    -0.290 N 
HETATM    7  C3  UNK     1      -2.839  -1.721   2.476  1.00  0.00     0.136 A 
HETATM    8  C4  UNK     1      -0.754  -0.833   3.418  1.00  0.00     0.100 A 
HETATM    9  N3  UNK     1      -3.469  -1.782   1.321  1.00  0.00    -0.226 NA
HETATM   10  C6  UNK     1      -3.180  -2.212   3.770  1.00  0.00     0.051 A 
HETATM   11  C2  UNK     1      -2.653  -1.132   0.430  1.00  0.00     0.120 A 
HETATM   12  C11 UNK     1      -2.339  -2.010   4.803  1.00  0.00     0.005 A 
HETATM   13  C10 UNK     1      -1.083  -1.298   4.634  1.00  0.00     0.018 A 
BRANCH  11  14
HETATM   14  C5  UNK     1      -2.981  -0.969  -0.995  1.00  0.00     0.037 A 
HETATM   15  C14 UNK     1      -2.633  -1.864  -1.986  1.00  0.00     0.022 A 
HETATM   16  C18 UNK     1      -3.084  -1.447  -3.271  1.00  0.00     0.008 A 
HETATM   17  C19 UNK     1      -3.761  -0.249  -3.218  1.00  0.00     0.050 A 
HETATM   18  S1  UNK     1      -3.851   0.369  -1.623  1.00  0.00    -0.100 SA
ENDBRANCH  11  14
ENDBRANCH   2   5
BRANCH   3  19
HETATM   19  C7  UNK     1       1.235   0.856  -0.915  1.00  0.00     0.108 A 
HETATM   20  C12 UNK     1       2.151   0.468  -1.810  1.00  0.00     0.037 A 
HETATM   21  C9  UNK     1       3.334   1.281  -2.048  1.00  0.00    -0.001 A 
HETATM   22  C13 UNK     1       3.495   2.461  -1.330  1.00  0.00     0.089 A 
HETATM   23  C16 UNK     1       4.315   0.915  -2.973  1.00  0.00     0.014 A 
HETATM   24  O1  UNK     1       2.528   2.864  -0.388  1.00  0.00    -0.274 OA
HETATM   25  C17 UNK     1       4.605   3.284  -1.510  1.00  0.00     0.038 A 
HETATM   26  C15 UNK     1       1.385   2.108  -0.140  1.00  0.00     0.304 A 
HETATM   27  O3  UNK     1       0.549   2.467   0.682  1.00  0.00    -0.259 OA
HETATM   28  C21 UNK     1       5.579   2.912  -2.434  1.00  0.00     0.003 A 
HETATM   29  C20 UNK     1       5.434   1.730  -3.165  1.00  0.00     0.001 A 
ENDBRANCH   3  19
TORSDOF 3
