REMARK  3 active torsions:
REMARK  status: ('A' for Active; 'I' for Inactive)
REMARK    1  A    between atoms: C10_14  and  O2_2 
REMARK    2  A    between atoms: C3_7  and  O2_2 
REMARK    3  A    between atoms: C6_10  and  O3_3 
ROOT
HETATM    1  O1  UNK     1      -0.842   0.146  -2.086  1.00  0.00    -0.275 OA
HETATM    2  O4  UNK     1      -2.862  -0.761  -2.659  1.00  0.00    -0.260 OA
HETATM    3  C1  UNK     1       0.005  -0.133   0.193  1.00  0.00     0.032 A 
HETATM    4  C2  UNK     1       0.156   0.353  -1.108  1.00  0.00     0.095 A 
HETATM    5  C3  UNK     1      -1.232  -0.855   0.511  1.00  0.00     0.087 A 
HETATM    6  C4  UNK     1       1.054   0.097   1.093  1.00  0.00     0.020 A 
HETATM    7  C5  UNK     1       1.290   1.056  -1.520  1.00  0.00     0.075 A 
HETATM    8  C6  UNK     1       2.315   1.280  -0.608  1.00  0.00     0.070 A 
HETATM    9  C7  UNK     1       2.199   0.799   0.695  1.00  0.00     0.038 A 
HETATM   10  C8  UNK     1      -2.158  -1.055  -0.431  1.00  0.00     0.120 A 
HETATM   11  C9  UNK     1      -2.003  -0.561  -1.808  1.00  0.00     0.290 A 
ENDROOT
BRANCH   5  12
HETATM   12  O2  UNK     1      -1.449  -1.329   1.790  1.00  0.00    -0.350 OA
BRANCH  12  13
HETATM   13  C10 UNK     1      -2.111  -0.358   2.577  1.00  0.00     0.171 C 
HETATM   14  C11 UNK     1      -2.342  -0.922   3.963  1.00  0.00     0.034 C 
ENDBRANCH  12  13
ENDBRANCH   5  12
BRANCH   8  15
HETATM   15  O3  UNK     1       3.430   1.961  -0.986  1.00  0.00    -0.356 OA
HETATM   16  C12 UNK     1       3.482   2.425  -2.335  1.00  0.00     0.210 C 
ENDBRANCH   8  15
TORSDOF 3
