REMARK  2 active torsions:
REMARK  status: ('A' for Active; 'I' for Inactive)
REMARK    1  A    between atoms: C14_19  and  N1_5 
REMARK    2  A    between atoms: C11_16  and  C4_9 
ROOT
HETATM    1  O1  UNK     1       3.471   2.524   0.469  1.00  0.00    -0.332 OA
HETATM    2  O2  UNK     1       0.686   0.239  -2.804  1.00  0.00    -0.274 OA
HETATM    3  O3  UNK     1       1.796  -0.149   2.226  1.00  0.00    -0.289 OA
HETATM    4  O4  UNK     1      -0.543  -0.851  -4.400  1.00  0.00    -0.260 OA
HETATM    5  C1  UNK     1       3.439   1.401   1.351  1.00  0.00     0.125 C 
HETATM    6  C2  UNK     1       1.978   1.398  -1.096  1.00  0.00     0.048 A 
HETATM    7  C3  UNK     1       2.144   0.584   1.302  1.00  0.00     0.196 C 
HETATM    8  C4  UNK     1       1.350   0.707   0.042  1.00  0.00     0.044 C 
HETATM    9  C5  UNK     1       3.008   2.302  -0.803  1.00  0.00     0.084 A 
HETATM   10  C6  UNK     1       3.594   1.987   2.760  1.00  0.00     0.055 C 
HETATM   11  C7  UNK     1       4.630   0.480   1.054  1.00  0.00     0.055 C 
HETATM   12  C8  UNK     1       1.646   1.219  -2.450  1.00  0.00     0.103 A 
HETATM   13  C9  UNK     1       2.258   1.956  -3.469  1.00  0.00    -0.001 A 
HETATM   14  C10 UNK     1       3.612   3.064  -1.809  1.00  0.00     0.039 A 
HETATM   15  C12 UNK     1       3.236   2.894  -3.139  1.00  0.00     0.017 A 
HETATM   16  C13 UNK     1       1.865   1.730  -4.851  1.00  0.00     0.020 A 
HETATM   17  C15 UNK     1       0.944   0.812  -5.155  1.00  0.00     0.083 A 
HETATM   18  C16 UNK     1       0.296  -0.004  -4.116  1.00  0.00     0.288 A 
ENDROOT
BRANCH   8  19
HETATM   19  C11 UNK     1       0.078   0.282   0.086  1.00  0.00     0.104 C 
HETATM   20  N1  UNK     1      -0.546  -0.355   1.103  1.00  0.00    -0.365 N 
HETATM   21  H10 UNK     1       0.005  -0.540   1.933  1.00  0.00     0.165 HD
BRANCH  20  22
HETATM   22  C14 UNK     1      -1.875  -0.811   1.173  1.00  0.00     0.032 A 
HETATM   23  C18 UNK     1      -2.335  -1.456   2.324  1.00  0.00     0.041 A 
HETATM   24  C17 UNK     1      -3.659  -1.918   2.409  1.00  0.00    -0.024 A 
HETATM   25  C19 UNK     1      -4.531  -1.723   1.312  1.00  0.00    -0.026 A 
HETATM   26  C22 UNK     1      -4.135  -2.568   3.559  1.00  0.00     0.012 A 
HETATM   27  C21 UNK     1      -4.055  -1.073   0.162  1.00  0.00     0.014 A 
HETATM   28  C23 UNK     1      -5.855  -2.185   1.397  1.00  0.00     0.012 A 
HETATM   29  C20 UNK     1      -2.736  -0.621   0.095  1.00  0.00     0.030 A 
HETATM   30  C25 UNK     1      -6.311  -2.830   2.547  1.00  0.00     0.001 A 
HETATM   31  C24 UNK     1      -5.453  -3.021   3.626  1.00  0.00     0.001 A 
ENDBRANCH  20  22
ENDBRANCH   8  19
TORSDOF 2
