REMARK  0 active torsions:
REMARK  status: ('A' for Active; 'I' for Inactive)
ROOT
HETATM    1  O1  UNK     1       1.511   0.725   1.094  1.00  0.00    -0.321 OA
HETATM    2  O2  UNK     1       0.032   0.471  -2.701  1.00  0.00    -0.287 OA
HETATM    3  C1  UNK     1      -0.285   0.059  -0.400  1.00  0.00     0.049 A 
HETATM    4  C2  UNK     1       0.274   0.173   0.873  1.00  0.00     0.089 A 
HETATM    5  C3  UNK     1      -1.549  -0.512  -0.566  1.00  0.00     0.025 A 
HETATM    6  C4  UNK     1      -2.250  -0.968   0.551  1.00  0.00    -0.061 A 
HETATM    7  C5  UNK     1       0.478   0.548  -1.564  1.00  0.00     0.192 A 
HETATM    8  C6  UNK     1       1.810   1.137  -1.277  1.00  0.00     0.011 A 
HETATM    9  C7  UNK     1      -0.430  -0.283   1.988  1.00  0.00     0.039 A 
HETATM   10  C8  UNK     1      -1.692  -0.854   1.825  1.00  0.00     0.009 A 
HETATM   11  C9  UNK     1       2.209   1.176   0.001  1.00  0.00     0.153 A 
HETATM   12  C10 UNK     1      -3.601  -1.580   0.383  1.00  0.00     0.048 C 
HETATM   13  C11 UNK     1       2.625   1.649  -2.418  1.00  0.00     0.054 C 
ENDROOT
TORSDOF 0
