REMARK  5 active torsions:
REMARK  status: ('A' for Active; 'I' for Inactive)
REMARK    1  A    between atoms: C6_12  and  O2_3 
REMARK       I    between atoms: C12_18  and  N1_6 
REMARK    2  A    between atoms: C13_19  and  N1_6 
REMARK    3  A    between atoms: C3_9  and  C5_11 
REMARK    4  A    between atoms: C12_18  and  C5_11 
REMARK    5  A    between atoms: C13_19  and  C15_21 
ROOT
HETATM    1  O1  UNK     1       1.724   0.628  -3.288  1.00  0.00    -0.274 OA
HETATM    2  O3  UNK     1      -0.338   0.172  -4.114  1.00  0.00    -0.259 OA
HETATM    3  C1  UNK     1       1.984   1.436  -1.008  1.00  0.00     0.038 A 
HETATM    4  C2  UNK     1       0.519   1.365  -0.835  1.00  0.00    -0.034 A 
HETATM    5  C3  UNK     1      -0.254   0.977  -1.872  1.00  0.00     0.033 A 
HETATM    6  C4  UNK     1       2.537   1.063  -2.230  1.00  0.00     0.093 A 
HETATM    7  C6  UNK     1       2.872   1.870  -0.010  1.00  0.00     0.082 A 
HETATM    8  C7  UNK     1       0.346   0.564  -3.174  1.00  0.00     0.295 A 
HETATM    9  C8  UNK     1       3.911   1.101  -2.477  1.00  0.00     0.045 A 
HETATM   10  C9  UNK     1       4.772   1.529  -1.473  1.00  0.00    -0.057 A 
HETATM   11  C10 UNK     1      -0.084   1.689   0.511  1.00  0.00     0.050 C 
HETATM   12  C11 UNK     1       4.252   1.915  -0.240  1.00  0.00     0.044 A 
HETATM   13  C14 UNK     1       6.242   1.578  -1.716  1.00  0.00     0.048 C 
ENDROOT
BRANCH   5  14
HETATM   14  C5  UNK     1      -1.762   0.926  -1.845  1.00  0.00     0.148 C 
BRANCH  14  15
HETATM   15  C12 UNK     1      -2.186  -0.443  -1.370  1.00  0.00     0.222 C 
HETATM   16  O4  UNK     1      -1.507  -1.449  -1.569  1.00  0.00    -0.273 OA
HETATM   17  N1  UNK     1      -3.408  -0.420  -0.717  1.00  0.00    -0.357 N 
HETATM   18  H10 UNK     1      -3.891   0.465  -0.593  1.00  0.00     0.162 HD
BRANCH  17  19
HETATM   19  C13 UNK     1      -4.038  -1.607  -0.185  1.00  0.00     0.161 C 
BRANCH  19  20
HETATM   20  C15 UNK     1      -3.631  -1.870   1.236  1.00  0.00    -0.040 A 
HETATM   21  C16 UNK     1      -2.517  -2.657   1.499  1.00  0.00     0.012 A 
HETATM   22  C19 UNK     1      -2.140  -2.901   2.819  1.00  0.00     0.043 A 
HETATM   23  C21 UNK     1      -2.880  -2.354   3.868  1.00  0.00     0.116 A 
HETATM   24  C20 UNK     1      -3.997  -1.565   3.596  1.00  0.00     0.043 A 
HETATM   25  F1  UNK     1      -2.517  -2.587   5.136  1.00  0.00    -0.206 F 
HETATM   26  C17 UNK     1      -4.374  -1.321   2.275  1.00  0.00     0.012 A 
ENDBRANCH  19  20
ENDBRANCH  17  19
ENDBRANCH  14  15
ENDBRANCH   5  14
BRANCH   7  27
HETATM   27  O2  UNK     1       2.474   2.294   1.224  1.00  0.00    -0.355 OA
HETATM   28  C18 UNK     1       2.195   3.684   1.371  1.00  0.00     0.210 C 
ENDBRANCH   7  27
TORSDOF 5
