REMARK  7 active torsions:
REMARK  status: ('A' for Active; 'I' for Inactive)
REMARK    1  A    between atoms: C4_12  and  O1_1 
REMARK    2  A    between atoms: C8_16  and  O1_1 
REMARK    3  A    between atoms: N1_6  and  N2_7 
REMARK    4  A    between atoms: C16_24  and  N2_7 
REMARK    5  A    between atoms: C22_30  and  N3_8 
REMARK    6  A    between atoms: C8_16  and  C9_17 
REMARK    7  A    between atoms: C11_19  and  C9_17 
ROOT
HETATM    1  N1  UNK     1       1.551   0.570  -0.249  1.00  0.00    -0.176 NA
HETATM    2  C9  UNK     1       1.526   0.450   1.045  1.00  0.00     0.089 C 
ENDROOT
BRANCH   2   3
HETATM    3  C11 UNK     1       2.575   1.162   1.830  1.00  0.00    -0.008 A 
HETATM    4  C14 UNK     1       3.751   0.503   2.112  1.00  0.00     0.013 A 
HETATM    5  C17 UNK     1       4.733   1.169   2.845  1.00  0.00     0.001 A 
HETATM    6  C19 UNK     1       4.512   2.476   3.279  1.00  0.00     0.000 A 
HETATM    7  C18 UNK     1       3.311   3.118   2.978  1.00  0.00     0.001 A 
HETATM    8  C15 UNK     1       2.329   2.452   2.244  1.00  0.00     0.013 A 
ENDBRANCH   2   3
BRANCH   2   9
HETATM    9  C8  UNK     1       0.491  -0.359   1.815  1.00  0.00     0.237 C 
BRANCH   9  10
HETATM   10  O1  UNK     1      -0.808   0.180   1.578  1.00  0.00    -0.345 OA
BRANCH  10  11
HETATM   11  C4  UNK     1      -1.864  -0.669   1.701  1.00  0.00     0.071 A 
HETATM   12  C5  UNK     1      -3.011  -0.474   0.939  1.00  0.00     0.075 A 
HETATM   13  C2  UNK     1      -4.082  -1.358   1.081  1.00  0.00     0.092 A 
HETATM   14  C1  UNK     1      -4.045  -2.437   1.965  1.00  0.00     0.004 A 
HETATM   15  O2  UNK     1      -5.215  -1.109   0.282  1.00  0.00    -0.275 OA
HETATM   16  C3  UNK     1      -5.219  -3.317   2.050  1.00  0.00    -0.043 A 
HETATM   17  C6  UNK     1      -2.881  -2.617   2.724  1.00  0.00     0.017 A 
HETATM   18  C10 UNK     1      -6.283  -3.056   1.278  1.00  0.00     0.090 A 
HETATM   19  C12 UNK     1      -5.211  -4.486   2.992  1.00  0.00     0.049 C 
HETATM   20  C13 UNK     1      -6.337  -1.922   0.341  1.00  0.00     0.288 A 
HETATM   21  O3  UNK     1      -7.328  -1.715  -0.350  1.00  0.00    -0.260 OA
HETATM   22  C7  UNK     1      -1.799  -1.739   2.592  1.00  0.00     0.038 A 
ENDBRANCH  10  11
ENDBRANCH   9  10
ENDBRANCH   2   9
BRANCH   1  23
HETATM   23  N2  UNK     1       2.521   1.329  -0.791  1.00  0.00    -0.278 N 
HETATM   24  H12 UNK     1       3.199   1.841  -0.242  1.00  0.00     0.189 HD
BRANCH  23  25
HETATM   25  C16 UNK     1       2.600   1.497  -2.183  1.00  0.00     0.050 A 
HETATM   26  C20 UNK     1       3.557   2.353  -2.735  1.00  0.00     0.033 A 
HETATM   27  C23 UNK     1       3.635   2.520  -4.118  1.00  0.00     0.038 A 
HETATM   28  C22 UNK     1       2.756   1.831  -4.955  1.00  0.00     0.103 A 
HETATM   29  C24 UNK     1       1.800   0.976  -4.408  1.00  0.00     0.038 A 
HETATM   30  C21 UNK     1       1.722   0.809  -3.026  1.00  0.00     0.033 A 
BRANCH  28  31
HETATM   31  N3  UNK     1       2.836   2.002  -6.362  1.00  0.00    -0.116 N 
HETATM   32  O4  UNK     1       3.703   2.776  -6.833  1.00  0.00    -0.532 OA
HETATM   33  O5  UNK     1       2.036   1.372  -7.097  1.00  0.00    -0.532 OA
ENDBRANCH  28  31
ENDBRANCH  23  25
ENDBRANCH   1  23
TORSDOF 7
