REMARK  3 active torsions:
REMARK  status: ('A' for Active; 'I' for Inactive)
REMARK    1  A    between atoms: C7_10  and  O1_1 
REMARK    2  A    between atoms: C15_18  and  N1_3 
REMARK    3  A    between atoms: C10_13  and  C8_11 
ROOT
HETATM    1  O2  UNK     1       0.559   0.493   0.535  1.00  0.00    -0.287 OA
HETATM    2  C1  UNK     1      -2.910  -1.727  -0.000  1.00  0.00     0.047 C 
HETATM    3  C2  UNK     1      -1.649  -2.176  -0.729  1.00  0.00     0.047 C 
HETATM    4  C3  UNK     1      -2.575  -1.124   1.338  1.00  0.00    -0.010 A 
HETATM    5  C4  UNK     1      -0.657  -1.057  -0.813  1.00  0.00    -0.006 C 
HETATM    6  C5  UNK     1      -1.377  -0.415   1.532  1.00  0.00     0.024 A 
HETATM    7  C6  UNK     1      -0.403  -0.258   0.422  1.00  0.00     0.189 C 
HETATM    8  C7  UNK     1      -3.491  -1.218   2.394  1.00  0.00     0.075 A 
HETATM    9  C8  UNK     1       0.007  -0.738  -1.932  1.00  0.00     0.022 C 
HETATM   10  C9  UNK     1      -1.099   0.171   2.773  1.00  0.00     0.016 A 
HETATM   11  C11 UNK     1      -3.208  -0.636   3.631  1.00  0.00     0.037 A 
HETATM   12  C12 UNK     1      -2.014   0.055   3.820  1.00  0.00     0.004 A 
ENDROOT
BRANCH   9  13
HETATM   13  C10 UNK     1       0.957   0.327  -2.036  1.00  0.00    -0.035 A 
HETATM   14  C13 UNK     1       0.544   1.632  -2.362  1.00  0.00     0.013 A 
HETATM   15  C16 UNK     1       1.470   2.670  -2.463  1.00  0.00     0.030 A 
HETATM   16  C15 UNK     1       2.825   2.421  -2.239  1.00  0.00     0.029 A 
HETATM   17  C17 UNK     1       3.252   1.134  -1.914  1.00  0.00     0.030 A 
HETATM   18  C14 UNK     1       2.327   0.096  -1.814  1.00  0.00     0.013 A 
BRANCH  16  19
HETATM   19  N1  UNK     1       3.761   3.471  -2.340  1.00  0.00    -0.390 N 
HETATM   20  C19 UNK     1       3.526   4.578  -3.245  1.00  0.00     0.149 C 
HETATM   21  C20 UNK     1       4.963   3.463  -1.530  1.00  0.00     0.149 C 
ENDBRANCH  16  19
ENDBRANCH   9  13
BRANCH   8  22
HETATM   22  O1  UNK     1      -4.673  -1.883   2.247  1.00  0.00    -0.355 OA
HETATM   23  C18 UNK     1      -5.789  -1.123   1.790  1.00  0.00     0.210 C 
ENDBRANCH   8  22
TORSDOF 3
