REMARK  3 active torsions:
REMARK  status: ('A' for Active; 'I' for Inactive)
REMARK    1  A    between atoms: C13_17  and  O3_4 
REMARK    2  A    between atoms: C1_5  and  C4_8 
REMARK    3  A    between atoms: C3_7  and  C6_10 
ROOT
HETATM    1  O1  UNK     1       0.697  -0.181  -2.812  1.00  0.00    -0.274 OA
HETATM    2  O2  UNK     1      -0.981  -1.711  -2.690  1.00  0.00    -0.259 OA
HETATM    3  C1  UNK     1       0.121   0.562  -0.127  1.00  0.00     0.004 A 
HETATM    4  C2  UNK     1       1.202   1.220  -0.892  1.00  0.00     0.010 A 
HETATM    5  C3  UNK     1      -0.599  -0.413  -0.735  1.00  0.00     0.063 A 
HETATM    6  C5  UNK     1       1.453   0.830  -2.203  1.00  0.00     0.093 A 
HETATM    7  C7  UNK     1      -0.326  -0.829  -2.141  1.00  0.00     0.300 A 
HETATM    8  C8  UNK     1       2.002   2.239  -0.354  1.00  0.00     0.018 A 
HETATM    9  C9  UNK     1       2.459   1.413  -2.976  1.00  0.00     0.074 A 
HETATM   10  C12 UNK     1       3.015   2.834  -1.115  1.00  0.00     0.037 A 
HETATM   11  C13 UNK     1       3.243   2.421  -2.425  1.00  0.00     0.068 A 
ENDROOT
BRANCH   5  12
HETATM   12  C6  UNK     1      -1.681  -1.099  -0.026  1.00  0.00     0.003 A 
HETATM   13  C14 UNK     1      -2.993  -0.637  -0.057  1.00  0.00     0.045 A 
HETATM   14 Cl1  UNK     1      -3.448   0.782  -0.935  1.00  0.00    -0.083 Cl
HETATM   15  C18 UNK     1      -3.988  -1.328   0.635  1.00  0.00     0.024 A 
HETATM   16  C21 UNK     1      -3.666  -2.478   1.355  1.00  0.00     0.002 A 
HETATM   17  C19 UNK     1      -2.350  -2.938   1.384  1.00  0.00     0.001 A 
HETATM   18  C15 UNK     1      -1.355  -2.247   0.692  1.00  0.00     0.014 A 
ENDBRANCH   5  12
BRANCH   3  19
HETATM   19  C4  UNK     1      -0.213   0.911   1.259  1.00  0.00    -0.024 A 
HETATM   20  C10 UNK     1      -1.155   1.901   1.508  1.00  0.00     0.012 A 
HETATM   21  C16 UNK     1      -1.473   2.230   2.826  1.00  0.00     0.001 A 
HETATM   22  C20 UNK     1      -0.848   1.566   3.881  1.00  0.00     0.000 A 
HETATM   23  C17 UNK     1       0.097   0.574   3.619  1.00  0.00     0.001 A 
HETATM   24  C11 UNK     1       0.415   0.245   2.302  1.00  0.00     0.012 A 
ENDBRANCH   3  19
BRANCH  11  25
HETATM   25  O3  UNK     1       4.228   3.001  -3.163  1.00  0.00    -0.361 OA
HETATM   26  H13 UNK     1       4.669   3.679  -2.622  1.00  0.00     0.217 HD
ENDBRANCH  11  25
TORSDOF 3
