REMARK  4 active torsions:
REMARK  status: ('A' for Active; 'I' for Inactive)
REMARK    1  A    between atoms: C10_14  and  O2_2 
REMARK    2  A    between atoms: C7_11  and  N1_4 
REMARK    3  A    between atoms: C7_11  and  C8_12 
REMARK    4  A    between atoms: C16_20  and  C17_21 
ROOT
HETATM    1  O1  UNK     1       1.857   1.764  -0.351  1.00  0.00    -0.309 OA
HETATM    2  O3  UNK     1      -1.538   0.232  -2.005  1.00  0.00    -0.287 OA
HETATM    3  C8  UNK     1      -1.442   0.578   0.817  1.00  0.00     0.020 A 
HETATM    4  C9  UNK     1      -0.394   0.900  -0.048  1.00  0.00     0.059 A 
HETATM    5  C10 UNK     1      -1.292   0.789   2.188  1.00  0.00     0.074 A 
HETATM    6  C11 UNK     1       0.795   1.429   0.452  1.00  0.00     0.091 A 
HETATM    7  C12 UNK     1      -0.523   0.690  -1.499  1.00  0.00     0.188 A 
HETATM    8  C13 UNK     1      -0.102   1.319   2.690  1.00  0.00     0.040 A 
HETATM    9  C14 UNK     1       0.943   1.640   1.823  1.00  0.00     0.041 A 
HETATM   10  C15 UNK     1       0.646   1.064  -2.320  1.00  0.00     0.093 A 
HETATM   11  C16 UNK     1       1.737   1.561  -1.716  1.00  0.00     0.090 A 
ENDROOT
BRANCH   3  12
HETATM   12  C7  UNK     1      -2.743   0.008   0.339  1.00  0.00     0.315 C 
BRANCH  12  13
HETATM   13  N1  UNK     1      -3.185  -1.116   1.167  1.00  0.00     0.092 N 
HETATM   14  C1  UNK     1      -2.182  -2.185   1.131  1.00  0.00     0.272 C 
HETATM   15  C3  UNK     1      -2.582  -3.543   1.716  1.00  0.00     0.030 C 
HETATM   16  C5  UNK     1      -3.435  -3.468   2.978  1.00  0.00     0.002 C 
HETATM   17  C6  UNK     1      -4.920  -3.314   2.658  1.00  0.00     0.002 C 
HETATM   18  C4  UNK     1      -5.319  -1.973   2.049  1.00  0.00     0.030 C 
HETATM   19  C2  UNK     1      -4.537  -1.545   0.804  1.00  0.00     0.272 C 
ENDBRANCH  12  13
ENDBRANCH   3  12
BRANCH   5  20
HETATM   20  O2  UNK     1      -2.297   0.488   3.060  1.00  0.00    -0.360 OA
HETATM   21  H18 UNK     1      -3.129   0.322   2.590  1.00  0.00     0.217 HD
ENDBRANCH   5  20
BRANCH  11  22
HETATM   22  C17 UNK     1       2.892   1.944  -2.471  1.00  0.00    -0.002 A 
HETATM   23  C18 UNK     1       3.013   3.248  -2.957  1.00  0.00     0.014 A 
HETATM   24  C20 UNK     1       4.138   3.620  -3.692  1.00  0.00     0.001 A 
HETATM   25  C22 UNK     1       5.146   2.689  -3.944  1.00  0.00     0.000 A 
HETATM   26  C21 UNK     1       5.029   1.386  -3.461  1.00  0.00     0.001 A 
HETATM   27  C19 UNK     1       3.904   1.014  -2.725  1.00  0.00     0.014 A 
ENDBRANCH  11  22
TORSDOF 4
