REMARK  5 active torsions:
REMARK  status: ('A' for Active; 'I' for Inactive)
REMARK    1  A    between atoms: C9_15  and  O2_2 
REMARK    2  A    between atoms: C10_16  and  O3_3 
REMARK    3  A    between atoms: C11_17  and  O4_4 
REMARK    4  A    between atoms: C14_20  and  O5_5 
REMARK    5  A    between atoms: C1_7  and  C2_8 
ROOT
HETATM    1  O1  UNK     1      -1.272  -0.260   0.060  1.00  0.00    -0.309 OA
HETATM    2  O6  UNK     1      -0.897   0.559   4.034  1.00  0.00    -0.287 OA
HETATM    3  C2  UNK     1      -0.223   0.503   0.550  1.00  0.00     0.090 A 
HETATM    4  C3  UNK     1      -2.123  -0.513   2.321  1.00  0.00     0.048 A 
HETATM    5  C4  UNK     1      -2.192  -0.754   0.950  1.00  0.00     0.093 A 
HETATM    6  C7  UNK     1      -0.052   0.809   1.846  1.00  0.00     0.093 A 
HETATM    7  C8  UNK     1      -1.017   0.304   2.843  1.00  0.00     0.187 A 
HETATM    8  C12 UNK     1      -3.232  -1.524   0.429  1.00  0.00     0.075 A 
HETATM    9  C13 UNK     1      -3.089  -1.041   3.181  1.00  0.00     0.021 A 
HETATM   10  C14 UNK     1      -4.199  -2.053   1.284  1.00  0.00     0.070 A 
HETATM   11  C15 UNK     1      -4.128  -1.812   2.657  1.00  0.00     0.038 A 
ENDROOT
BRANCH   3  12
HETATM   12  C1  UNK     1       0.704   0.987  -0.492  1.00  0.00     0.003 A 
HETATM   13  C5  UNK     1       0.920   0.230  -1.646  1.00  0.00     0.054 A 
HETATM   14  C10 UNK     1       1.796   0.688  -2.630  1.00  0.00     0.105 A 
HETATM   15  C11 UNK     1       2.459   1.903  -2.464  1.00  0.00     0.135 A 
HETATM   16  C9  UNK     1       2.247   2.662  -1.312  1.00  0.00     0.105 A 
HETATM   17  C6  UNK     1       1.371   2.204  -0.328  1.00  0.00     0.054 A 
BRANCH  14  18
HETATM   18  O3  UNK     1       1.995  -0.062  -3.750  1.00  0.00    -0.353 OA
HETATM   19  C17 UNK     1       3.050  -1.022  -3.708  1.00  0.00     0.210 C 
ENDBRANCH  14  18
BRANCH  15  20
HETATM   20  O4  UNK     1       3.316   2.350  -3.426  1.00  0.00    -0.351 OA
HETATM   21  C18 UNK     1       2.763   3.165  -4.457  1.00  0.00     0.210 C 
ENDBRANCH  15  20
BRANCH  16  22
HETATM   22  O2  UNK     1       2.889   3.851  -1.137  1.00  0.00    -0.353 OA
HETATM   23  C16 UNK     1       4.154   3.813  -0.479  1.00  0.00     0.210 C 
ENDBRANCH  16  22
ENDBRANCH   3  12
BRANCH  10  24
HETATM   24  O5  UNK     1      -5.214  -2.806   0.778  1.00  0.00    -0.356 OA
HETATM   25  C19 UNK     1      -6.169  -3.316   1.707  1.00  0.00     0.210 C 
ENDBRANCH  10  24
TORSDOF 5
