REMARK  7 active torsions:
REMARK  status: ('A' for Active; 'I' for Inactive)
REMARK    1  A    between atoms: C14_21  and  O3_3 
REMARK    2  A    between atoms: C21_28  and  O3_3 
REMARK    3  A    between atoms: C24_31  and  O6_6 
REMARK    4  A    between atoms: C26_33  and  O6_6 
REMARK    5  A    between atoms: C12_19  and  C6_13 
REMARK    6  A    between atoms: C10_17  and  C14_21 
REMARK    7  A    between atoms: C21_28  and  C24_31 
ROOT
HETATM    1  O1  UNK     1      -0.501  -2.246   2.626  1.00  0.00    -0.293 OA
HETATM    2  N1  UNK     1      -4.339  -0.724   0.307  1.00  0.00    -0.362 N 
HETATM    3  C1  UNK     1      -3.975  -2.429   3.650  1.00  0.00    -0.036 C 
HETATM    4  C2  UNK     1      -4.561  -1.404   2.657  1.00  0.00     0.067 C 
HETATM    5  C3  UNK     1      -2.503  -2.087   3.919  1.00  0.00     0.092 C 
HETATM    6  C4  UNK     1      -3.693  -1.165   1.447  1.00  0.00     0.021 C 
HETATM    7  C5  UNK     1      -2.364  -1.396   1.428  1.00  0.00     0.024 C 
HETATM    8  C6  UNK     1      -1.533  -1.130   0.174  1.00  0.00     0.104 C 
HETATM    9  C7  UNK     1      -1.695  -1.949   2.645  1.00  0.00     0.159 C 
HETATM   10  C8  UNK     1      -4.103  -3.862   3.093  1.00  0.00     0.015 C 
HETATM   11  C9  UNK     1      -4.762  -2.359   4.971  1.00  0.00     0.015 C 
HETATM   12  C10 UNK     1      -2.405  -0.841  -1.051  1.00  0.00     0.052 C 
HETATM   13  C11 UNK     1      -3.734  -0.620  -0.936  1.00  0.00     0.018 C 
HETATM   14  C13 UNK     1      -4.663  -0.270  -2.066  1.00  0.00     0.069 C 
HETATM   15  H12 UNK     1      -5.338  -0.561   0.361  1.00  0.00     0.165 HD
ENDROOT
BRANCH   8  16
HETATM   16  C12 UNK     1      -0.571   0.009   0.408  1.00  0.00     0.029 A 
HETATM   17  C15 UNK     1       0.886  -0.262   0.316  1.00  0.00     0.194 A 
HETATM   18  C17 UNK     1       1.781   0.886   0.554  1.00  0.00     0.049 A 
HETATM   19  O5  UNK     1       1.326  -1.375   0.059  1.00  0.00    -0.287 OA
HETATM   20  C18 UNK     1       1.223   2.131   0.845  1.00  0.00     0.089 A 
HETATM   21  C19 UNK     1       3.168   0.733   0.491  1.00  0.00     0.025 A 
HETATM   22  C20 UNK     1       2.051   3.231   1.073  1.00  0.00     0.039 A 
HETATM   23  O2  UNK     1      -0.131   2.338   0.919  1.00  0.00    -0.321 OA
HETATM   24  C23 UNK     1       3.436   3.081   1.010  1.00  0.00     0.009 A 
HETATM   25  C22 UNK     1       3.993   1.835   0.720  1.00  0.00    -0.061 A 
HETATM   26  C25 UNK     1       5.476   1.681   0.653  1.00  0.00     0.048 C 
HETATM   27  C16 UNK     1      -0.952   1.260   0.696  1.00  0.00     0.154 A 
ENDBRANCH   8  16
BRANCH  12  28
HETATM   28  C14 UNK     1      -1.735  -0.874  -2.362  1.00  0.00     0.292 C 
HETATM   29  O4  UNK     1      -1.603  -1.889  -3.020  1.00  0.00    -0.259 OA
BRANCH  28  30
HETATM   30  O3  UNK     1      -1.323   0.381  -2.663  1.00  0.00    -0.316 OA
BRANCH  30  31
HETATM   31  C21 UNK     1      -0.649   0.514  -3.918  1.00  0.00     0.205 C 
BRANCH  31  32
HETATM   32  C24 UNK     1       0.838   0.304  -3.706  1.00  0.00     0.202 C 
BRANCH  32  33
HETATM   33  O6  UNK     1       1.323   1.295  -2.809  1.00  0.00    -0.349 OA
BRANCH  33  34
HETATM   34  C26 UNK     1       2.633   1.669  -2.953  1.00  0.00     0.068 A 
HETATM   35  C28 UNK     1       3.020   2.962  -2.617  1.00  0.00     0.037 A 
HETATM   36  C30 UNK     1       4.354   3.343  -2.763  1.00  0.00     0.003 A 
HETATM   37  C31 UNK     1       5.292   2.429  -3.243  1.00  0.00     0.000 A 
HETATM   38  C29 UNK     1       4.896   1.134  -3.578  1.00  0.00     0.003 A 
HETATM   39  C27 UNK     1       3.562   0.753  -3.433  1.00  0.00     0.037 A 
ENDBRANCH  33  34
ENDBRANCH  32  33
ENDBRANCH  31  32
ENDBRANCH  30  31
ENDBRANCH  28  30
ENDBRANCH  12  28
TORSDOF 7
