REMARK  3 active torsions:
REMARK  status: ('A' for Active; 'I' for Inactive)
REMARK    1  A    between atoms: C5_9  and  O1_1 
REMARK    2  A    between atoms: C7_11  and  O1_1 
REMARK    3  A    between atoms: C1_5  and  C5_9 
ROOT
HETATM    1  O2  UNK     1      -2.701  -0.867  -0.540  1.00  0.00    -0.275 OA
HETATM    2  O4  UNK     1      -4.624  -2.096  -0.395  1.00  0.00    -0.260 OA
HETATM    3  C6  UNK     1      -1.322  -0.567   1.454  1.00  0.00     0.004 A 
HETATM    4  C7  UNK     1       0.448   0.963  -0.120  1.00  0.00     0.082 A 
HETATM    5  C8  UNK     1      -1.561  -0.339   0.098  1.00  0.00     0.092 A 
HETATM    6  C9  UNK     1      -2.287  -1.375   2.213  1.00  0.00    -0.043 A 
HETATM    7  C10 UNK     1      -0.695   0.416  -0.694  1.00  0.00     0.075 A 
HETATM    8  C11 UNK     1      -0.165  -0.008   2.014  1.00  0.00     0.017 A 
HETATM    9  C12 UNK     1       0.712   0.751   1.232  1.00  0.00     0.038 A 
HETATM   10  C13 UNK     1      -3.363  -1.864   1.580  1.00  0.00     0.090 A 
HETATM   11  C14 UNK     1      -2.059  -1.638   3.672  1.00  0.00     0.049 C 
HETATM   12  C15 UNK     1      -3.629  -1.632   0.150  1.00  0.00     0.288 A 
ENDROOT
BRANCH   4  13
HETATM   13  O1  UNK     1       1.305   1.702  -0.875  1.00  0.00    -0.278 OA
BRANCH  13  14
HETATM   14  C5  UNK     1       2.330   0.959  -1.495  1.00  0.00     0.271 C 
HETATM   15  O3  UNK     1       2.466  -0.254  -1.386  1.00  0.00    -0.264 OA
BRANCH  14  16
HETATM   16  C1  UNK     1       3.246   1.868  -2.322  1.00  0.00     0.037 C 
HETATM   17  C2  UNK     1       3.887   2.920  -1.407  1.00  0.00     0.025 C 
HETATM   18  C3  UNK     1       4.327   1.021  -3.006  1.00  0.00     0.025 C 
HETATM   19  C4  UNK     1       2.416   2.583  -3.400  1.00  0.00     0.025 C 
ENDBRANCH  14  16
ENDBRANCH  13  14
ENDBRANCH   4  13
TORSDOF 3
