REMARK  6 active torsions:
REMARK  status: ('A' for Active; 'I' for Inactive)
REMARK    1  A    between atoms: C13_16  and  O2_2 
REMARK    2  A    between atoms: C16_19  and  O2_2 
REMARK    3  A    between atoms: C1_4  and  C2_5 
REMARK    4  A    between atoms: C2_5  and  C3_6 
REMARK    5  A    between atoms: C15_18  and  C16_19 
REMARK    6  A    between atoms: C15_18  and  C17_20 
ROOT
HETATM    1  O1  UNK     1      -0.532   0.847   1.341  1.00  0.00    -0.274 OA
HETATM    2  O3  UNK     1      -1.722   0.357   3.210  1.00  0.00    -0.259 OA
HETATM    3  C3  UNK     1      -2.492  -0.627   1.182  1.00  0.00     0.025 A 
HETATM    4  C4  UNK     1      -2.336  -0.743  -0.154  1.00  0.00    -0.037 A 
HETATM    5  C5  UNK     1      -1.199  -0.067  -0.813  1.00  0.00     0.005 A 
HETATM    6  C8  UNK     1      -0.336   0.706  -0.042  1.00  0.00     0.092 A 
HETATM    7  C9  UNK     1      -1.572   0.214   2.001  1.00  0.00     0.295 A 
HETATM    8  C10 UNK     1      -3.274  -1.521  -1.042  1.00  0.00     0.050 C 
HETATM    9  C11 UNK     1      -0.918  -0.162  -2.185  1.00  0.00     0.017 A 
HETATM   10  C12 UNK     1       0.762   1.377  -0.585  1.00  0.00     0.075 A 
HETATM   11  C13 UNK     1       1.017   1.274  -1.948  1.00  0.00     0.071 A 
HETATM   12  C14 UNK     1       0.178   0.504  -2.747  1.00  0.00     0.038 A 
ENDROOT
BRANCH  11  13
HETATM   13  O2  UNK     1       2.081   1.920  -2.496  1.00  0.00    -0.351 OA
BRANCH  13  14
HETATM   14  C16 UNK     1       3.221   2.121  -1.661  1.00  0.00     0.175 C 
BRANCH  14  15
HETATM   15  C15 UNK     1       4.468   2.155  -2.532  1.00  0.00     0.026 C 
BRANCH  15  16
HETATM   16  C17 UNK     1       5.732   2.352  -1.699  1.00  0.00    -0.002 C 
HETATM   17  C18 UNK     1       6.979   2.342  -2.568  1.00  0.00     0.005 C 
ENDBRANCH  15  16
ENDBRANCH  14  15
ENDBRANCH  13  14
ENDBRANCH  11  13
BRANCH   3  18
HETATM   18  C2  UNK     1      -3.567  -1.313   1.987  1.00  0.00     0.049 C 
BRANCH  18  19
HETATM   19  C1  UNK     1      -3.134  -2.690   2.498  1.00  0.00    -0.018 C 
HETATM   20  C6  UNK     1      -1.882  -2.617   3.377  1.00  0.00     0.010 C 
HETATM   21  C7  UNK     1      -2.875  -3.616   1.307  1.00  0.00     0.010 C 
ENDBRANCH  18  19
ENDBRANCH   3  18
TORSDOF 6
