REMARK  8 active torsions:
REMARK  status: ('A' for Active; 'I' for Inactive)
REMARK    1  A    between atoms: C14_19  and  N1_4 
REMARK    2  A    between atoms: C5_10  and  N1_4 
REMARK    3  A    between atoms: C14_19  and  N2_5 
REMARK    4  A    between atoms: C17_22  and  N2_5 
REMARK    5  A    between atoms: C1_6  and  C2_7 
REMARK    6  A    between atoms: C1_6  and  C3_8 
REMARK    7  A    between atoms: C1_6  and  C4_9 
REMARK    8  A    between atoms: C2_7  and  C5_10 
ROOT
HETATM    1  N1  UNK     1       2.528  -1.687   0.888  1.00  0.00    -0.367 N 
HETATM    2  H10 UNK     1       3.303  -2.006   1.461  1.00  0.00     0.161 HD
ENDROOT
BRANCH   1   3
HETATM    3  C14 UNK     1       1.254  -1.893   1.402  1.00  0.00     0.172 C 
HETATM    4  S1  UNK     1       1.151  -2.676   2.884  1.00  0.00    -0.041 SA
BRANCH   3   5
HETATM    5  N2  UNK     1       0.197  -1.447   0.588  1.00  0.00    -0.333 N 
HETATM    6  H17 UNK     1       0.460  -1.248  -0.371  1.00  0.00     0.168 HD
BRANCH   5   7
HETATM    7  C17 UNK     1      -1.189  -1.470   0.744  1.00  0.00     0.036 A 
HETATM    8  C20 UNK     1      -1.753  -1.308   2.005  1.00  0.00     0.067 A 
HETATM    9  C19 UNK     1      -3.142  -1.334   2.138  1.00  0.00     0.092 A 
HETATM   10  C18 UNK     1      -3.992  -1.517   1.046  1.00  0.00     0.004 A 
HETATM   11  O1  UNK     1      -3.654  -1.164   3.440  1.00  0.00    -0.275 OA
HETATM   12  C21 UNK     1      -5.443  -1.530   1.279  1.00  0.00    -0.043 A 
HETATM   13  C23 UNK     1      -3.404  -1.678  -0.215  1.00  0.00     0.017 A 
HETATM   14  C24 UNK     1      -5.902  -1.366   2.527  1.00  0.00     0.090 A 
HETATM   15  C25 UNK     1      -6.384  -1.725   0.126  1.00  0.00     0.049 C 
HETATM   16  C26 UNK     1      -5.018  -1.172   3.689  1.00  0.00     0.288 A 
HETATM   17  O2  UNK     1      -5.474  -1.025   4.818  1.00  0.00    -0.260 OA
HETATM   18  C22 UNK     1      -2.013  -1.655  -0.365  1.00  0.00     0.030 A 
ENDBRANCH   5   7
ENDBRANCH   3   5
ENDBRANCH   1   3
BRANCH   1  19
HETATM   19  C5  UNK     1       2.871  -1.070  -0.380  1.00  0.00     0.123 C 
BRANCH  19  20
HETATM   20  C2  UNK     1       2.963   0.455  -0.286  1.00  0.00     0.034 C 
BRANCH  20  21
HETATM   21  C1  UNK     1       3.286   1.158  -1.632  1.00  0.00     0.053 C 
BRANCH  21  22
HETATM   22  C3  UNK     1       2.224   0.939  -2.702  1.00  0.00    -0.050 A 
HETATM   23  C6  UNK     1       2.344  -0.145  -3.546  1.00  0.00     0.008 A 
HETATM   24  C10 UNK     1       1.372  -0.346  -4.527  1.00  0.00     0.001 A 
HETATM   25  C15 UNK     1       0.303   0.542  -4.640  1.00  0.00     0.000 A 
HETATM   26  C12 UNK     1       0.205   1.631  -3.774  1.00  0.00     0.001 A 
HETATM   27  C8  UNK     1       1.177   1.831  -2.794  1.00  0.00     0.008 A 
ENDBRANCH  21  22
BRANCH  21  28
HETATM   28  C4  UNK     1       3.612   2.641  -1.472  1.00  0.00    -0.050 A 
HETATM   29  C7  UNK     1       4.479   3.228  -2.367  1.00  0.00     0.008 A 
HETATM   30  C11 UNK     1       4.777   4.583  -2.221  1.00  0.00     0.001 A 
HETATM   31  C16 UNK     1       4.201   5.316  -1.184  1.00  0.00     0.000 A 
HETATM   32  C13 UNK     1       3.326   4.695  -0.293  1.00  0.00     0.001 A 
HETATM   33  C9  UNK     1       3.028   3.340  -0.439  1.00  0.00     0.008 A 
ENDBRANCH  21  28
ENDBRANCH  20  21
ENDBRANCH  19  20
ENDBRANCH   1  19
TORSDOF 8
