REMARK  6 active torsions:
REMARK  status: ('A' for Active; 'I' for Inactive)
REMARK    1  A    between atoms: C13_21  and  N1_6 
REMARK    2  A    between atoms: C4_12  and  N1_6 
REMARK    3  A    between atoms: C13_21  and  N2_7 
REMARK    4  A    between atoms: N2_7  and  N3_8 
REMARK       I    between atoms: C14_22  and  N3_8 
REMARK    5  A    between atoms: C11_19  and  C12_20 
REMARK    6  A    between atoms: C11_19  and  C14_22 
ROOT
HETATM    1  N1  UNK     1      -0.045  -0.740  -0.695  1.00  0.00    -0.332 N 
HETATM    2  H8  UNK     1       0.933  -0.749  -0.417  1.00  0.00     0.168 HD
ENDROOT
BRANCH   1   3
HETATM    3  C13 UNK     1      -0.241  -0.346  -2.030  1.00  0.00     0.191 C 
HETATM    4  S2  UNK     1      -1.527  -0.708  -3.045  1.00  0.00    -0.039 SA
BRANCH   3   5
HETATM    5  N2  UNK     1       0.794   0.415  -2.562  1.00  0.00    -0.274 N 
HETATM    6  H12 UNK     1       0.766   0.757  -3.517  1.00  0.00     0.189 HD
BRANCH   5   7
HETATM    7  N3  UNK     1       1.893   0.764  -1.812  1.00  0.00    -0.268 N 
HETATM    8  C14 UNK     1       3.102   0.964  -2.452  1.00  0.00     0.240 C 
HETATM    9  O3  UNK     1       3.293   0.856  -3.662  1.00  0.00    -0.271 OA
HETATM   10  H13 UNK     1       1.740   0.970  -0.831  1.00  0.00     0.190 HD
BRANCH   8  11
HETATM   11  C11 UNK     1       4.205   1.382  -1.502  1.00  0.00     0.150 C 
BRANCH  11  12
HETATM   12  C12 UNK     1       4.702   2.741  -1.909  1.00  0.00    -0.009 A 
HETATM   13  S1  UNK     1       6.332   2.915  -2.362  1.00  0.00    -0.106 SA
HETATM   14  C17 UNK     1       6.109   4.588  -2.648  1.00  0.00     0.050 A 
HETATM   15  C16 UNK     1       4.814   4.987  -2.398  1.00  0.00     0.008 A 
HETATM   16  C15 UNK     1       3.995   3.904  -1.966  1.00  0.00     0.015 A 
ENDBRANCH  11  12
ENDBRANCH   8  11
ENDBRANCH   5   7
ENDBRANCH   3   5
ENDBRANCH   1   3
BRANCH   1  17
HETATM   17  C4  UNK     1      -0.916  -1.052   0.349  1.00  0.00     0.037 A 
HETATM   18  C6  UNK     1      -2.290  -0.939   0.170  1.00  0.00     0.067 A 
HETATM   19  C2  UNK     1      -3.143  -1.257   1.228  1.00  0.00     0.092 A 
HETATM   20  C1  UNK     1      -2.666  -1.687   2.467  1.00  0.00     0.004 A 
HETATM   21  O1  UNK     1      -4.525  -1.124   0.986  1.00  0.00    -0.275 OA
HETATM   22  C3  UNK     1      -3.636  -2.001   3.525  1.00  0.00    -0.043 A 
HETATM   23  C5  UNK     1      -1.278  -1.794   2.628  1.00  0.00     0.017 A 
HETATM   24  C8  UNK     1      -4.945  -1.864   3.267  1.00  0.00     0.090 A 
HETATM   25  C9  UNK     1      -3.155  -2.465   4.869  1.00  0.00     0.049 C 
HETATM   26  C10 UNK     1      -5.464  -1.412   1.965  1.00  0.00     0.288 A 
HETATM   27  O2  UNK     1      -6.668  -1.299   1.765  1.00  0.00    -0.260 OA
HETATM   28  C7  UNK     1      -0.410  -1.479   1.576  1.00  0.00     0.030 A 
ENDBRANCH   1  17
TORSDOF 6
