REMARK  1 active torsions:
REMARK  status: ('A' for Active; 'I' for Inactive)
REMARK       I    between atoms: C6_11  and  N1_5 
REMARK    1  A    between atoms: C6_11  and  C7_12 
ROOT
HETATM    1 Cl1  UNK     1       5.329   1.998  -0.166  1.00  0.00    -0.084 Cl
HETATM    2  O2  UNK     1      -0.055   1.220  -2.444  1.00  0.00    -0.274 OA
HETATM    3  O3  UNK     1      -2.079   0.160  -2.435  1.00  0.00    -0.259 OA
HETATM    4  C7  UNK     1      -0.525  -0.505  -0.775  1.00  0.00     0.108 A 
HETATM    5  C8  UNK     1       0.691  -0.352  -0.236  1.00  0.00     0.037 A 
HETATM    6  C9  UNK     1       1.621   0.621  -0.788  1.00  0.00     0.001 A 
HETATM    7  C10 UNK     1      -0.967   0.297  -1.938  1.00  0.00     0.304 A 
HETATM    8  C11 UNK     1       1.225   1.386  -1.881  1.00  0.00     0.089 A 
HETATM    9  C12 UNK     1       2.898   0.815  -0.257  1.00  0.00     0.038 A 
HETATM   10  C13 UNK     1       2.067   2.335  -2.456  1.00  0.00     0.040 A 
HETATM   11  C14 UNK     1       3.755   1.763  -0.823  1.00  0.00     0.035 A 
HETATM   12  C15 UNK     1       3.340   2.522  -1.920  1.00  0.00     0.026 A 
ENDROOT
BRANCH   4  13
HETATM   13  C6  UNK     1      -1.396  -1.517  -0.145  1.00  0.00     0.259 C 
HETATM   14  O1  UNK     1      -1.338  -2.668  -0.582  1.00  0.00    -0.267 OA
HETATM   15  N1  UNK     1      -2.225  -1.104   0.895  1.00  0.00    -0.348 N 
HETATM   16  C4  UNK     1      -3.105  -2.086   1.536  1.00  0.00     0.126 C 
HETATM   17  C5  UNK     1      -2.354   0.267   1.412  1.00  0.00     0.126 C 
HETATM   18  C2  UNK     1      -2.925  -2.091   3.050  1.00  0.00     0.020 C 
HETATM   19  C1  UNK     1      -3.108  -0.689   3.627  1.00  0.00     0.003 C 
HETATM   20  C3  UNK     1      -2.183   0.304   2.930  1.00  0.00     0.020 C 
ENDBRANCH   4  13
TORSDOF 1
