REMARK  6 active torsions:
REMARK  status: ('A' for Active; 'I' for Inactive)
REMARK    1  A    between atoms: C10_19  and  O1_4 
REMARK    2  A    between atoms: C20_29  and  O1_4 
REMARK       I    between atoms: C12_21  and  N2_9 
REMARK    3  A    between atoms: C6_15  and  N2_9 
REMARK    4  A    between atoms: C1_10  and  C3_12 
REMARK    5  A    between atoms: C3_12  and  C6_15 
REMARK    6  A    between atoms: C12_21  and  C13_22 
ROOT
HETATM    1  C3  UNK     1      -2.511  -0.014   3.019  1.00  0.00     0.061 C 
ENDROOT
BRANCH   1   2
HETATM    2  C1  UNK     1      -2.879  -0.999   1.947  1.00  0.00    -0.022 A 
HETATM    3  C2  UNK     1      -2.670  -0.819   0.565  1.00  0.00     0.002 A 
HETATM    4  C5  UNK     1      -3.156  -1.970  -0.058  1.00  0.00     0.043 A 
HETATM    5  C7  UNK     1      -2.118   0.203  -0.233  1.00  0.00     0.051 A 
HETATM    6  N1  UNK     1      -3.633  -2.797   0.934  1.00  0.00    -0.359 N 
HETATM    7  C8  UNK     1      -3.117  -2.152  -1.445  1.00  0.00     0.033 A 
HETATM    8  C4  UNK     1      -3.467  -2.209   2.159  1.00  0.00     0.013 A 
HETATM    9  H3  UNK     1      -4.046  -3.706   0.775  1.00  0.00     0.166 HD
HETATM   10  C9  UNK     1      -3.898  -2.891   3.394  1.00  0.00     0.068 C 
HETATM   11  C11 UNK     1      -2.566  -1.125  -2.217  1.00  0.00     0.039 A 
HETATM   12  C10 UNK     1      -2.073   0.035  -1.622  1.00  0.00     0.079 A 
BRANCH  12  13
HETATM   13  O1  UNK     1      -1.540   1.019  -2.400  1.00  0.00    -0.255 OA
BRANCH  13  14
HETATM   14  C20 UNK     1      -0.413   0.700  -3.208  1.00  0.00     0.530 C 
HETATM   15  F1  UNK     1       0.335  -0.268  -2.638  1.00  0.00    -0.144 F 
HETATM   16  F2  UNK     1       0.359   1.804  -3.331  1.00  0.00    -0.144 F 
HETATM   17  F3  UNK     1      -0.793   0.318  -4.445  1.00  0.00    -0.144 F 
ENDBRANCH  13  14
ENDBRANCH  12  13
ENDBRANCH   1   2
BRANCH   1  18
HETATM   18  C6  UNK     1      -1.098  -0.215   3.563  1.00  0.00     0.127 C 
BRANCH  18  19
HETATM   19  N2  UNK     1      -0.086  -0.103   2.537  1.00  0.00    -0.356 N 
HETATM   20  C12 UNK     1       0.524   1.093   2.207  1.00  0.00     0.257 C 
HETATM   21  O3  UNK     1       0.301   2.189   2.719  1.00  0.00    -0.267 OA
HETATM   22  H12 UNK     1       0.147  -0.952   2.031  1.00  0.00     0.162 HD
BRANCH  20  23
HETATM   23  C13 UNK     1       1.519   0.950   1.137  1.00  0.00     0.108 A 
HETATM   24  C15 UNK     1       1.694   2.016   0.346  1.00  0.00     0.037 A 
HETATM   25  C14 UNK     1       2.658   1.970  -0.743  1.00  0.00    -0.001 A 
HETATM   26  C16 UNK     1       3.390   0.805  -0.945  1.00  0.00     0.089 A 
HETATM   27  C18 UNK     1       2.874   3.058  -1.592  1.00  0.00     0.014 A 
HETATM   28  O2  UNK     1       3.201  -0.313  -0.109  1.00  0.00    -0.274 OA
HETATM   29  C19 UNK     1       4.328   0.696  -1.970  1.00  0.00     0.038 A 
HETATM   30  C17 UNK     1       2.287  -0.300   0.940  1.00  0.00     0.304 A 
HETATM   31  O4  UNK     1       2.128  -1.278   1.662  1.00  0.00    -0.259 OA
HETATM   32  C22 UNK     1       4.537   1.785  -2.813  1.00  0.00     0.003 A 
HETATM   33  C21 UNK     1       3.812   2.964  -2.625  1.00  0.00     0.001 A 
ENDBRANCH  20  23
ENDBRANCH  18  19
ENDBRANCH   1  18
TORSDOF 6
