REMARK  3 active torsions:
REMARK  status: ('A' for Active; 'I' for Inactive)
REMARK       I    between atoms: C14_16  and  N1_2 
REMARK    1  A    between atoms: C2_4  and  N1_2 
REMARK    2  A    between atoms: C1_3  and  C7_9 
REMARK    3  A    between atoms: C8_10  and  C9_11 
ROOT
HETATM    1  C1  UNK     1      -0.065   0.190  -0.889  1.00  0.00    -0.036 A 
HETATM    2  C2  UNK     1       2.211   1.299  -2.013  1.00  0.00     0.034 A 
HETATM    3  C3  UNK     1       0.855   0.824  -0.071  1.00  0.00     0.013 A 
HETATM    4  C4  UNK     1       0.129   0.098  -2.258  1.00  0.00     0.013 A 
HETATM    5  C5  UNK     1       2.001   1.383  -0.637  1.00  0.00     0.030 A 
HETATM    6  C6  UNK     1       1.275   0.656  -2.824  1.00  0.00     0.030 A 
ENDROOT
BRANCH   1   7
HETATM    7  C7  UNK     1      -1.276  -0.401  -0.292  1.00  0.00     0.012 C 
HETATM    8  C9  UNK     1      -1.422  -0.730   1.014  1.00  0.00     0.012 C 
BRANCH   8   9
HETATM    9  C8  UNK     1      -2.623  -1.295   1.607  1.00  0.00    -0.036 A 
HETATM   10  C10 UNK     1      -3.852  -1.161   0.960  1.00  0.00     0.011 A 
HETATM   11  C12 UNK     1      -5.003  -1.705   1.529  1.00  0.00     0.001 A 
HETATM   12  C15 UNK     1      -4.926  -2.384   2.745  1.00  0.00     0.000 A 
HETATM   13  C13 UNK     1      -3.697  -2.518   3.392  1.00  0.00     0.001 A 
HETATM   14  C11 UNK     1      -2.546  -1.974   2.823  1.00  0.00     0.011 A 
ENDBRANCH   8   9
ENDBRANCH   1   7
BRANCH   2  15
HETATM   15  N1  UNK     1       3.359   1.855  -2.579  1.00  0.00    -0.328 N 
HETATM   16  C14 UNK     1       4.402   2.530  -1.932  1.00  0.00     0.218 C 
HETATM   17  O1  UNK     1       4.510   2.762  -0.732  1.00  0.00    -0.274 OA
HETATM   18  C16 UNK     1       5.465   2.980  -2.903  1.00  0.00     0.117 C 
HETATM   19  H7  UNK     1       3.439   1.752  -3.588  1.00  0.00     0.169 HD
ENDBRANCH   2  15
TORSDOF 3
