REMARK  0 active torsions:
REMARK  status: ('A' for Active; 'I' for Inactive)
ROOT
HETATM    1  O1  UNK     1      -0.742  -0.019  -1.586  1.00  0.00    -0.274 OA
HETATM    2  O2  UNK     1       0.874   0.890  -2.918  1.00  0.00    -0.258 OA
HETATM    3  N1  UNK     1       3.645   1.948  -0.866  1.00  0.00    -0.191 NA
HETATM    4  C1  UNK     1      -0.400  -0.136   0.816  1.00  0.00    -0.001 A 
HETATM    5  C2  UNK     1      -1.192  -0.377  -0.301  1.00  0.00     0.089 A 
HETATM    6  C3  UNK     1       0.898   0.492   0.632  1.00  0.00     0.043 A 
HETATM    7  C4  UNK     1      -0.880  -0.504   2.075  1.00  0.00     0.014 A 
HETATM    8  C5  UNK     1      -2.447  -0.974  -0.196  1.00  0.00     0.038 A 
HETATM    9  C6  UNK     1       1.330   0.833  -0.589  1.00  0.00     0.120 A 
HETATM   10  C7  UNK     1      -2.137  -1.104   2.196  1.00  0.00     0.001 A 
HETATM   11  C8  UNK     1      -2.918  -1.339   1.063  1.00  0.00     0.003 A 
HETATM   12  C9  UNK     1       0.497   0.583  -1.792  1.00  0.00     0.309 A 
HETATM   13  C10 UNK     1       2.606   1.448  -0.741  1.00  0.00     0.105 C 
ENDROOT
TORSDOF 0
