REMARK  1 active torsions:
REMARK  status: ('A' for Active; 'I' for Inactive)
REMARK    1  A    between atoms: C5_9  and  O3_3 
ROOT
HETATM    1  O1  UNK     1       2.023   1.126  -2.096  1.00  0.00    -0.319 OA
HETATM    2  O2  UNK     1      -1.918  -0.886  -0.141  1.00  0.00    -0.272 OA
HETATM    3  O4  UNK     1      -3.743  -1.818   0.882  1.00  0.00    -0.260 OA
HETATM    4  C1  UNK     1       1.808   1.010   0.150  1.00  0.00     0.003 A 
HETATM    5  C2  UNK     1       1.219   0.714  -1.076  1.00  0.00     0.121 A 
HETATM    6  C3  UNK     1      -0.122   0.025   1.230  1.00  0.00     0.002 A 
HETATM    7  C4  UNK     1      -0.662  -0.246  -0.027  1.00  0.00     0.126 A 
HETATM    8  C5  UNK     1      -0.015   0.086  -1.222  1.00  0.00     0.138 A 
HETATM    9  C6  UNK     1       1.125   0.660   1.332  1.00  0.00     0.028 A 
HETATM   10  C7  UNK     1       3.043   1.640  -0.158  1.00  0.00     0.039 A 
HETATM   11  C8  UNK     1      -0.875  -0.362   2.413  1.00  0.00     0.020 A 
HETATM   12  C9  UNK     1       3.124   1.685  -1.530  1.00  0.00     0.143 A 
HETATM   13  C10 UNK     1      -2.061  -0.965   2.293  1.00  0.00     0.083 A 
HETATM   14  C11 UNK     1      -2.654  -1.264   0.977  1.00  0.00     0.288 A 
ENDROOT
BRANCH   8  15
HETATM   15  O3  UNK     1      -0.556  -0.186  -2.441  1.00  0.00    -0.351 OA
HETATM   16  C12 UNK     1      -0.806   0.924  -3.302  1.00  0.00     0.210 C 
ENDBRANCH   8  15
TORSDOF 1
