REMARK  4 active torsions:
REMARK  status: ('A' for Active; 'I' for Inactive)
REMARK    1  A    between atoms: C13_17  and  O2_2 
REMARK    2  A    between atoms: C4_8  and  O2_2 
REMARK    3  A    between atoms: C10_14  and  C5_9 
REMARK    4  A    between atoms: C13_17  and  C15_19 
ROOT
HETATM    1  O1  UNK     1      -2.684  -0.971  -0.533  1.00  0.00    -0.274 OA
HETATM    2  O4  UNK     1      -4.551  -2.137   0.087  1.00  0.00    -0.260 OA
HETATM    3  C1  UNK     1      -0.986  -0.456   1.146  1.00  0.00     0.006 A 
HETATM    4  C2  UNK     1      -1.453  -0.390  -0.167  1.00  0.00     0.099 A 
HETATM    5  C3  UNK     1      -0.737   0.246  -1.183  1.00  0.00     0.007 A 
HETATM    6  C4  UNK     1       0.486   0.838  -0.883  1.00  0.00     0.091 A 
HETATM    7  C5  UNK     1       0.978   0.788   0.420  1.00  0.00     0.044 A 
HETATM    8  C6  UNK     1       0.248   0.146   1.428  1.00  0.00     0.032 A 
HETATM    9  C7  UNK     1      -1.805  -1.146   2.151  1.00  0.00    -0.043 A 
HETATM   10  C8  UNK     1      -1.273   0.294  -2.577  1.00  0.00     0.054 C 
HETATM   11  C9  UNK     1      -2.972  -1.689   1.775  1.00  0.00     0.090 A 
HETATM   12  C11 UNK     1      -1.331  -1.234   3.572  1.00  0.00     0.049 C 
HETATM   13  C12 UNK     1      -3.478  -1.629   0.394  1.00  0.00     0.288 A 
ENDROOT
BRANCH   6  14
HETATM   14  O2  UNK     1       1.200   1.464  -1.861  1.00  0.00    -0.346 OA
BRANCH  14  15
HETATM   15  C13 UNK     1       2.132   0.669  -2.591  1.00  0.00     0.202 C 
BRANCH  15  16
HETATM   16  C15 UNK     1       2.765   1.517  -3.644  1.00  0.00    -0.011 C 
HETATM   17  C16 UNK     1       4.079   1.753  -3.723  1.00  0.00     0.009 C 
ENDBRANCH  15  16
ENDBRANCH  14  15
ENDBRANCH   6  14
BRANCH   7  18
HETATM   18  C10 UNK     1       2.256   1.400   0.758  1.00  0.00     0.158 C 
HETATM   19  O3  UNK     1       2.688   2.393   0.155  1.00  0.00    -0.293 OA
HETATM   20  C14 UNK     1       3.103   0.824   1.878  1.00  0.00     0.097 C 
ENDBRANCH   7  18
TORSDOF 4
