REMARK  10 active torsions:
REMARK  status: ('A' for Active; 'I' for Inactive)
REMARK    1  A    between atoms: C2_9  and  O1_1 
REMARK    2  A    between atoms: C7_14  and  O1_1 
REMARK    3  A    between atoms: C12_19  and  O2_2 
REMARK    4  A    between atoms: C3_10  and  O2_2 
REMARK    5  A    between atoms: C11_18  and  O3_3 
REMARK    6  A    between atoms: C18_25  and  O3_3 
REMARK    7  A    between atoms: C15_22  and  N1_6 
REMARK    8  A    between atoms: C1_8  and  C8_15 
REMARK    9  A    between atoms: C11_18  and  C7_14 
REMARK   10  A    between atoms: C10_17  and  C9_16 
ROOT
HETATM    1  N2  UNK     1      -0.477  -2.841   0.301  1.00  0.00    -0.191 NA
HETATM    2  C8  UNK     1      -2.551  -0.092   0.474  1.00  0.00     0.035 C 
HETATM    3  C9  UNK     1      -2.529  -1.374   0.929  1.00  0.00     0.055 C 
HETATM    4  C22 UNK     1      -1.389  -2.179   0.576  1.00  0.00     0.100 C 
ENDROOT
BRANCH   3   5
HETATM    5  C10 UNK     1      -3.579  -1.961   1.747  1.00  0.00    -0.015 A 
HETATM    6  C13 UNK     1      -3.892  -1.402   2.986  1.00  0.00     0.015 A 
HETATM    7  C16 UNK     1      -4.898  -1.965   3.771  1.00  0.00     0.037 A 
HETATM    8  C15 UNK     1      -5.590  -3.088   3.317  1.00  0.00     0.102 A 
HETATM    9  C17 UNK     1      -5.276  -3.647   2.079  1.00  0.00     0.037 A 
HETATM   10  C14 UNK     1      -4.271  -3.084   1.293  1.00  0.00     0.015 A 
BRANCH   8  11
HETATM   11  N1  UNK     1      -6.614  -3.662   4.117  1.00  0.00    -0.116 N 
HETATM   12  O4  UNK     1      -7.224  -4.672   3.691  1.00  0.00    -0.532 OA
HETATM   13  O5  UNK     1      -6.880  -3.143   5.228  1.00  0.00    -0.532 OA
ENDBRANCH   8  11
ENDBRANCH   3   5
BRANCH   2  14
HETATM   14  C1  UNK     1      -1.511   0.543  -0.348  1.00  0.00    -0.032 A 
HETATM   15  C4  UNK     1      -0.455   1.219   0.264  1.00  0.00     0.051 A 
HETATM   16  C3  UNK     1       0.532   1.822  -0.516  1.00  0.00     0.102 A 
HETATM   17  C2  UNK     1       0.462   1.749  -1.907  1.00  0.00     0.102 A 
HETATM   18  C6  UNK     1      -0.594   1.073  -2.519  1.00  0.00     0.040 A 
HETATM   19  C5  UNK     1      -1.580   0.470  -1.739  1.00  0.00     0.014 A 
BRANCH  16  20
HETATM   20  O2  UNK     1       1.558   2.479   0.092  1.00  0.00    -0.349 OA
BRANCH  20  21
HETATM   21  C12 UNK     1       2.385   1.718   0.970  1.00  0.00     0.171 C 
HETATM   22  C19 UNK     1       3.467   2.617   1.530  1.00  0.00     0.034 C 
ENDBRANCH  20  21
ENDBRANCH  16  20
BRANCH  17  23
HETATM   23  O1  UNK     1       1.420   2.333  -2.680  1.00  0.00    -0.346 OA
BRANCH  23  24
HETATM   24  C7  UNK     1       1.694   1.727  -3.942  1.00  0.00     0.202 C 
BRANCH  24  25
HETATM   25  C11 UNK     1       3.140   1.991  -4.314  1.00  0.00     0.202 C 
BRANCH  25  26
HETATM   26  O3  UNK     1       3.985   1.451  -3.306  1.00  0.00    -0.349 OA
BRANCH  26  27
HETATM   27  C18 UNK     1       5.192   2.071  -3.116  1.00  0.00     0.068 A 
HETATM   28  C20 UNK     1       5.828   2.703  -4.184  1.00  0.00     0.037 A 
HETATM   29  C23 UNK     1       7.058   3.332  -3.991  1.00  0.00     0.003 A 
HETATM   30  C25 UNK     1       7.651   3.330  -2.729  1.00  0.00     0.000 A 
HETATM   31  C24 UNK     1       7.015   2.698  -1.660  1.00  0.00     0.003 A 
HETATM   32  C21 UNK     1       5.786   2.068  -1.853  1.00  0.00     0.037 A 
ENDBRANCH  26  27
ENDBRANCH  25  26
ENDBRANCH  24  25
ENDBRANCH  23  24
ENDBRANCH  17  23
ENDBRANCH   2  14
TORSDOF 10
