REMARK  7 active torsions:
REMARK  status: ('A' for Active; 'I' for Inactive)
REMARK    1  A    between atoms: C21_28  and  O2_2 
REMARK    2  A    between atoms: C6_13  and  O2_2 
REMARK    3  A    between atoms: C22_29  and  O6_6 
REMARK    4  A    between atoms: C1_8  and  C2_9 
REMARK    5  A    between atoms: C2_9  and  C8_15 
REMARK    6  A    between atoms: C10_17  and  C7_14 
REMARK    7  A    between atoms: C21_28  and  C22_29 
ROOT
HETATM    1  O1  UNK     1      -0.288   1.992   1.204  1.00  0.00    -0.321 OA
HETATM    2  O5  UNK     1      -1.959  -0.967  -1.055  1.00  0.00    -0.286 OA
HETATM    3  C1  UNK     1       1.189   1.357  -2.631  1.00  0.00    -0.024 A 
HETATM    4  C3  UNK     1      -0.354   0.746  -0.878  1.00  0.00     0.049 A 
HETATM    5  C4  UNK     1       0.153   0.546  -2.165  1.00  0.00     0.028 A 
HETATM    6  C5  UNK     1       0.171   1.750  -0.065  1.00  0.00     0.091 A 
HETATM    7  C6  UNK     1       1.714   2.362  -1.818  1.00  0.00     0.078 A 
HETATM    8  C7  UNK     1      -1.905   0.188   1.026  1.00  0.00     0.048 A 
HETATM    9  C9  UNK     1      -1.450  -0.094  -0.363  1.00  0.00     0.197 A 
HETATM   10  C11 UNK     1       1.206   2.560  -0.534  1.00  0.00     0.075 A 
HETATM   11  C14 UNK     1      -1.296   1.188   1.681  1.00  0.00     0.159 A 
ENDROOT
BRANCH   8  12
HETATM   12  C10 UNK     1      -2.964  -0.602   1.675  1.00  0.00    -0.017 A 
HETATM   13  C13 UNK     1      -2.635  -1.748   2.398  1.00  0.00     0.052 A 
HETATM   14  C12 UNK     1      -3.640  -2.490   3.018  1.00  0.00     0.102 A 
HETATM   15  O3  UNK     1      -3.252  -3.595   3.731  1.00  0.00    -0.346 OA
HETATM   16  C15 UNK     1      -4.976  -2.103   2.890  1.00  0.00     0.102 A 
HETATM   17  C19 UNK     1      -4.292  -4.066   4.592  1.00  0.00     0.202 C 
HETATM   18  C20 UNK     1      -5.609  -4.122   3.843  1.00  0.00     0.202 C 
HETATM   19  O4  UNK     1      -6.011  -2.808   3.448  1.00  0.00    -0.346 OA
HETATM   20  C18 UNK     1      -5.304  -0.948   2.179  1.00  0.00     0.040 A 
HETATM   21  C16 UNK     1      -4.296  -0.199   1.570  1.00  0.00     0.015 A 
ENDBRANCH   8  12
BRANCH   3  22
HETATM   22  C2  UNK     1       1.725   1.134  -4.007  1.00  0.00     0.041 C 
BRANCH  22  23
HETATM   23  C8  UNK     1       2.885   0.130  -4.021  1.00  0.00     0.000 C 
HETATM   24  C17 UNK     1       3.403  -0.117  -5.429  1.00  0.00     0.005 C 
ENDBRANCH  22  23
ENDBRANCH   3  22
BRANCH   7  25
HETATM   25  O2  UNK     1       2.724   3.161  -2.263  1.00  0.00    -0.341 OA
BRANCH  25  26
HETATM   26  C21 UNK     1       3.941   3.142  -1.520  1.00  0.00     0.286 C 
BRANCH  26  27
HETATM   27  C22 UNK     1       5.086   3.439  -2.452  1.00  0.00     0.282 C 
HETATM   28  O7  UNK     1       4.977   3.641  -3.654  1.00  0.00    -0.263 OA
BRANCH  27  29
HETATM   29  O6  UNK     1       6.250   3.446  -1.738  1.00  0.00    -0.325 OA
HETATM   30  C23 UNK     1       7.434   3.717  -2.494  1.00  0.00     0.213 C 
ENDBRANCH  27  29
ENDBRANCH  26  27
ENDBRANCH  25  26
ENDBRANCH   7  25
TORSDOF 7
