REMARK  6 active torsions:
REMARK  status: ('A' for Active; 'I' for Inactive)
REMARK    1  A    between atoms: C2_8  and  O1_4 
REMARK    2  A    between atoms: C4_10  and  O1_4 
REMARK    3  A    between atoms: C3_9  and  O2_5 
REMARK    4  A    between atoms: C1_7  and  C9_15 
REMARK    5  A    between atoms: C4_10  and  C8_14 
REMARK    6  A    between atoms: C10_16  and  C11_17 
ROOT
HETATM    1  N1  UNK     1      -3.206   1.509   1.049  1.00  0.00    -0.191 NA
HETATM    2  C9  UNK     1      -1.833  -1.636   0.716  1.00  0.00     0.036 C 
HETATM    3  C10 UNK     1      -2.937  -1.067   1.271  1.00  0.00     0.055 C 
HETATM    4  C23 UNK     1      -3.077   0.360   1.143  1.00  0.00     0.100 C 
ENDROOT
BRANCH   3   5
HETATM    5  C11 UNK     1      -3.969  -1.816   1.970  1.00  0.00    -0.014 A 
HETATM    6  C14 UNK     1      -3.871  -2.024   3.346  1.00  0.00     0.032 A 
HETATM    7  C19 UNK     1      -4.861  -2.742   4.016  1.00  0.00     0.011 A 
HETATM    8 Br2  UNK     1      -4.730  -3.023   5.880  1.00  0.00    -0.051 Br
HETATM    9  C21 UNK     1      -5.951  -3.252   3.310  1.00  0.00     0.019 A 
HETATM   10  C20 UNK     1      -6.049  -3.045   1.934  1.00  0.00     0.002 A 
HETATM   11  C15 UNK     1      -5.059  -2.327   1.264  1.00  0.00     0.013 A 
ENDBRANCH   3   5
BRANCH   2  12
HETATM   12  C1  UNK     1      -0.770  -0.921  -0.004  1.00  0.00    -0.015 A 
HETATM   13  C5  UNK     1      -0.921  -0.778  -1.378  1.00  0.00     0.052 A 
HETATM   14  C3  UNK     1       0.057  -0.107  -2.112  1.00  0.00     0.102 A 
HETATM   15  C2  UNK     1       1.179   0.414  -1.466  1.00  0.00     0.103 A 
HETATM   16  C7  UNK     1       1.321   0.265  -0.086  1.00  0.00     0.059 A 
HETATM   17  C6  UNK     1       0.343  -0.405   0.648  1.00  0.00     0.024 A 
HETATM   18 Br1  UNK     1       0.599  -0.573   2.523  1.00  0.00    -0.050 Br
BRANCH  14  19
HETATM   19  O2  UNK     1      -0.093   0.032  -3.458  1.00  0.00    -0.353 OA
HETATM   20  C22 UNK     1      -1.267  -0.529  -4.041  1.00  0.00     0.210 C 
ENDBRANCH  14  19
BRANCH  15  21
HETATM   21  O1  UNK     1       2.141   1.071  -2.172  1.00  0.00    -0.344 OA
BRANCH  21  22
HETATM   22  C4  UNK     1       2.394   2.429  -1.814  1.00  0.00     0.214 C 
BRANCH  22  23
HETATM   23  C8  UNK     1       3.824   2.759  -2.126  1.00  0.00    -0.034 A 
HETATM   24  C12 UNK     1       4.803   2.558  -1.159  1.00  0.00     0.012 A 
HETATM   25  C16 UNK     1       6.132   2.865  -1.449  1.00  0.00     0.043 A 
HETATM   26  C18 UNK     1       6.474   3.370  -2.703  1.00  0.00     0.116 A 
HETATM   27  C17 UNK     1       5.486   3.569  -3.668  1.00  0.00     0.043 A 
HETATM   28  F1  UNK     1       7.751   3.665  -2.981  1.00  0.00    -0.206 F 
HETATM   29  C13 UNK     1       4.157   3.263  -3.378  1.00  0.00     0.012 A 
ENDBRANCH  22  23
ENDBRANCH  21  22
ENDBRANCH  15  21
ENDBRANCH   2  12
TORSDOF 6
