REMARK  1 active torsions:
REMARK  status: ('A' for Active; 'I' for Inactive)
REMARK    1  A    between atoms: C11_16  and  C6_11 
ROOT
HETATM    1  O1  UNK     1       0.952   0.546   0.390  1.00  0.00    -0.309 OA
HETATM    2  O2  UNK     1      -1.779  -0.401  -2.482  1.00  0.00    -0.287 OA
HETATM    3  C1  UNK     1      -1.210  -0.399  -0.187  1.00  0.00     0.048 A 
HETATM    4  C2  UNK     1      -0.233  -0.048   0.743  1.00  0.00     0.090 A 
HETATM    5  C3  UNK     1      -2.399  -1.003   0.229  1.00  0.00     0.025 A 
HETATM    6  C4  UNK     1      -2.603  -1.253   1.587  1.00  0.00    -0.061 A 
HETATM    7  C5  UNK     1      -0.966  -0.122  -1.611  1.00  0.00     0.187 A 
HETATM    8  C6  UNK     1       1.185   0.807  -0.951  1.00  0.00     0.111 A 
HETATM    9  C7  UNK     1      -0.440  -0.300   2.100  1.00  0.00     0.039 A 
HETATM   10  C8  UNK     1      -1.626  -0.902   2.520  1.00  0.00     0.009 A 
HETATM   11  C9  UNK     1       0.324   0.517  -1.937  1.00  0.00     0.093 A 
HETATM   12  C10 UNK     1      -3.869  -1.898   2.042  1.00  0.00     0.048 C 
ENDROOT
BRANCH   8  13
HETATM   13  C11 UNK     1       2.508   1.456  -1.212  1.00  0.00     0.237 C 
HETATM   14 Cl1  UNK     1       2.230   3.033  -1.988  1.00  0.00    -0.076 Cl
HETATM   15 Cl2  UNK     1       3.377   1.688   0.325  1.00  0.00    -0.076 Cl
HETATM   16 Cl3  UNK     1       3.480   0.421  -2.287  1.00  0.00    -0.076 Cl
ENDBRANCH   8  13
TORSDOF 1
