REMARK  14 active torsions:
REMARK  status: ('A' for Active; 'I' for Inactive)
REMARK    1  A    between atoms: C1_15  and  O1_1 
REMARK    2  A    between atoms: C4_18  and  O1_1 
REMARK    3  A    between atoms: C13_27  and  O4_4 
REMARK    4  A    between atoms: C5_19  and  O4_4 
REMARK    5  A    between atoms: C2_16  and  O5_5 
REMARK    6  A    between atoms: C3_17  and  O6_6 
REMARK    7  A    between atoms: C6_20  and  O7_7 
REMARK    8  A    between atoms: C8_22  and  O8_8 
REMARK    9  A    between atoms: C9_23  and  O9_9 
REMARK   10  A    between atoms: C11_25  and  O10_10 
REMARK   11  A    between atoms: C19_33  and  O12_12 
REMARK   12  A    between atoms: C27_41  and  O14_14 
REMARK   13  A    between atoms: C11_25  and  C7_21 
REMARK   14  A    between atoms: C18_32  and  C22_36 
ROOT
HETATM    1  O2  UNK     1       1.411   2.247   1.355  1.00  0.00    -0.348 OA
HETATM    2  C1  UNK     1       2.683   1.972  -0.695  1.00  0.00     0.211 C 
HETATM    3  C2  UNK     1       3.958   1.755   0.122  1.00  0.00     0.183 C 
HETATM    4  C3  UNK     1       3.827   2.355   1.521  1.00  0.00     0.180 C 
HETATM    5  C5  UNK     1       1.440   1.573   0.099  1.00  0.00     0.298 C 
HETATM    6  C7  UNK     1       2.523   1.907   2.185  1.00  0.00     0.179 C 
ENDROOT
BRANCH   5   7
HETATM    7  O4  UNK     1       0.293   1.936  -0.669  1.00  0.00    -0.318 OA
BRANCH   7   8
HETATM    8  C13 UNK     1      -0.923   1.662  -0.116  1.00  0.00     0.077 A 
HETATM    9  C14 UNK     1      -1.265   0.347   0.197  1.00  0.00     0.074 A 
HETATM   10  C16 UNK     1      -2.505   0.068   0.773  1.00  0.00     0.089 A 
HETATM   11  O11 UNK     1      -2.771  -1.247   1.059  1.00  0.00    -0.340 OA
HETATM   12  C17 UNK     1      -3.413   1.105   1.004  1.00  0.00     0.076 A 
HETATM   13  C18 UNK     1      -3.752  -1.407   2.095  1.00  0.00     0.169 C 
HETATM   14  C20 UNK     1      -5.048  -0.681   1.739  1.00  0.00     0.121 C 
HETATM   15  C21 UNK     1      -4.753   0.783   1.539  1.00  0.00     0.167 C 
HETATM   16  O13 UNK     1      -5.586   1.658   1.746  1.00  0.00    -0.292 OA
HETATM   17  C19 UNK     1      -3.073   2.424   0.692  1.00  0.00     0.085 A 
HETATM   18  C15 UNK     1      -1.823   2.699   0.135  1.00  0.00     0.074 A 
BRANCH  13  19
HETATM   19  C22 UNK     1      -3.995  -2.887   2.301  1.00  0.00    -0.028 A 
HETATM   20  C23 UNK     1      -3.682  -3.481   3.523  1.00  0.00     0.012 A 
HETATM   21  C25 UNK     1      -3.905  -4.845   3.712  1.00  0.00     0.037 A 
HETATM   22  C27 UNK     1      -4.440  -5.614   2.679  1.00  0.00     0.065 A 
HETATM   23  C26 UNK     1      -4.752  -5.019   1.456  1.00  0.00     0.037 A 
HETATM   24  C24 UNK     1      -4.529  -3.655   1.267  1.00  0.00     0.012 A 
BRANCH  22  25
HETATM   25  O14 UNK     1      -4.658  -6.945   2.864  1.00  0.00    -0.361 OA
HETATM   26  H32 UNK     1      -5.031  -7.319   2.048  1.00  0.00     0.217 HD
ENDBRANCH  22  25
ENDBRANCH  13  19
BRANCH  17  27
HETATM   27  O12 UNK     1      -3.918   3.471   0.901  1.00  0.00    -0.360 OA
HETATM   28  H29 UNK     1      -3.490   4.296   0.616  1.00  0.00     0.217 HD
ENDBRANCH  17  27
ENDBRANCH   7   8
ENDBRANCH   5   7
BRANCH   2  29
HETATM   29  O1  UNK     1       2.736   1.172  -1.876  1.00  0.00    -0.346 OA
BRANCH  29  30
HETATM   30  C4  UNK     1       3.353   1.871  -2.951  1.00  0.00     0.292 C 
HETATM   31  O3  UNK     1       2.422   2.667  -3.692  1.00  0.00    -0.351 OA
HETATM   32  C10 UNK     1       1.410   1.912  -4.366  1.00  0.00     0.152 C 
HETATM   33  C9  UNK     1       2.032   0.921  -5.360  1.00  0.00     0.178 C 
HETATM   34  C12 UNK     1       0.491   2.915  -5.058  1.00  0.00     0.042 C 
HETATM   35  C8  UNK     1       3.054   0.034  -4.648  1.00  0.00     0.183 C 
HETATM   36  C6  UNK     1       4.064   0.879  -3.870  1.00  0.00     0.204 C 
BRANCH  33  37
HETATM   37  O9  UNK     1       1.023   0.079  -5.913  1.00  0.00    -0.390 OA
HETATM   38  H20 UNK     1       0.470   0.623  -6.498  1.00  0.00     0.210 HD
ENDBRANCH  33  37
BRANCH  35  39
HETATM   39  O8  UNK     1       3.732  -0.767  -5.612  1.00  0.00    -0.390 OA
HETATM   40  H19 UNK     1       3.058  -1.271  -6.099  1.00  0.00     0.210 HD
ENDBRANCH  35  39
BRANCH  36  41
HETATM   41  O7  UNK     1       4.873   1.630  -4.778  1.00  0.00    -0.388 OA
HETATM   42  H18 UNK     1       4.321   2.323  -5.179  1.00  0.00     0.210 HD
ENDBRANCH  36  41
ENDBRANCH  29  30
ENDBRANCH   2  29
BRANCH   3  43
HETATM   43  O5  UNK     1       5.056   2.394  -0.532  1.00  0.00    -0.390 OA
HETATM   44  H16 UNK     1       5.846   2.245   0.015  1.00  0.00     0.210 HD
ENDBRANCH   3  43
BRANCH   6  45
HETATM   45  C11 UNK     1       2.314   2.585   3.535  1.00  0.00     0.198 C 
BRANCH  45  46
HETATM   46  O10 UNK     1       1.089   2.132   4.083  1.00  0.00    -0.398 OA
HETATM   47  H21 UNK     1       0.385   2.344   3.446  1.00  0.00     0.209 HD
ENDBRANCH  45  46
ENDBRANCH   6  45
BRANCH   4  48
HETATM   48  O6  UNK     1       4.931   1.935   2.319  1.00  0.00    -0.390 OA
HETATM   49  H17 UNK     1       4.899   0.966   2.390  1.00  0.00     0.210 HD
ENDBRANCH   4  48
TORSDOF 14
