REMARK  2 active torsions:
REMARK  status: ('A' for Active; 'I' for Inactive)
REMARK    1  A    between atoms: C2_4  and  C7_9 
REMARK    2  A    between atoms: C10_12  and  C11_13 
ROOT
HETATM    1  N1  UNK     1      -0.720   0.013   4.428  1.00  0.00    -0.191 NA
HETATM    2  C7  UNK     1       1.066  -0.024   1.520  1.00  0.00     0.036 C 
HETATM    3  C10 UNK     1      -0.198  -0.196   1.899  1.00  0.00     0.055 C 
HETATM    4  C19 UNK     1      -0.484  -0.080   3.296  1.00  0.00     0.100 C 
ENDROOT
BRANCH   3   5
HETATM    5  C11 UNK     1      -1.321  -0.512   0.992  1.00  0.00    -0.015 A 
HETATM    6  C14 UNK     1      -2.050   0.523   0.435  1.00  0.00     0.014 A 
HETATM    7  C16 UNK     1      -3.110   0.225  -0.421  1.00  0.00     0.024 A 
HETATM    8  C18 UNK     1      -3.423  -1.104  -0.707  1.00  0.00     0.034 A 
HETATM    9  C17 UNK     1      -2.676  -2.135  -0.136  1.00  0.00     0.024 A 
HETATM   10 Cl1  UNK     1      -4.731  -1.472  -1.763  1.00  0.00    -0.084 Cl
HETATM   11  C15 UNK     1      -1.617  -1.836   0.720  1.00  0.00     0.014 A 
ENDBRANCH   3   5
BRANCH   2  12
HETATM   12  C2  UNK     1       1.505  -0.100   0.128  1.00  0.00    -0.024 A 
HETATM   13  C1  UNK     1       1.568   1.022  -0.715  1.00  0.00    -0.016 A 
HETATM   14  C3  UNK     1       2.004   0.860  -2.051  1.00  0.00    -0.025 A 
HETATM   15  C5  UNK     1       1.209   2.301  -0.259  1.00  0.00     0.013 A 
HETATM   16  C6  UNK     1       2.364  -0.419  -2.506  1.00  0.00     0.012 A 
HETATM   17  C8  UNK     1       2.068   1.982  -2.893  1.00  0.00     0.012 A 
HETATM   18  C9  UNK     1       2.295  -1.523  -1.656  1.00  0.00     0.002 A 
HETATM   19  C4  UNK     1       1.866  -1.364  -0.341  1.00  0.00     0.012 A 
HETATM   20  C13 UNK     1       1.706   3.246  -2.425  1.00  0.00     0.001 A 
HETATM   21  C12 UNK     1       1.278   3.405  -1.110  1.00  0.00     0.001 A 
ENDBRANCH   2  12
TORSDOF 2
