REMARK  1 active torsions:
REMARK  status: ('A' for Active; 'I' for Inactive)
REMARK       I    between atoms: C8_14  and  N1_6 
REMARK    1  A    between atoms: C8_14  and  C9_15 
ROOT
HETATM    1  O1  UNK     1       3.011   3.222  -2.488  1.00  0.00    -0.353 OA
HETATM    2  O2  UNK     1       3.080   0.976  -3.164  1.00  0.00    -0.353 OA
HETATM    3  O3  UNK     1       1.603  -0.564   2.086  1.00  0.00    -0.267 OA
HETATM    4  N1  UNK     1       1.489   0.089  -0.145  1.00  0.00    -0.347 N 
HETATM    5  C1  UNK     1       2.669   1.876  -2.120  1.00  0.00     0.167 C 
HETATM    6  C2  UNK     1       1.152   1.767  -1.934  1.00  0.00     0.088 C 
HETATM    7  C3  UNK     1       3.389   1.522  -0.815  1.00  0.00     0.088 C 
HETATM    8  C4  UNK     1       0.737   0.408  -1.368  1.00  0.00     0.131 C 
HETATM    9  C5  UNK     1       2.947   0.161  -0.284  1.00  0.00     0.131 C 
HETATM   10  C6  UNK     1       3.353   3.145  -3.871  1.00  0.00     0.197 C 
HETATM   11  C7  UNK     1       3.920   1.760  -4.010  1.00  0.00     0.197 C 
HETATM   12  C8  UNK     1       0.946  -0.303   1.076  1.00  0.00     0.259 C 
ENDROOT
BRANCH  12  13
HETATM   13  C9  UNK     1      -0.523  -0.421   1.170  1.00  0.00     0.108 A 
HETATM   14  C10 UNK     1      -1.041  -1.619   0.870  1.00  0.00     0.037 A 
HETATM   15  C12 UNK     1      -2.478  -1.833   0.933  1.00  0.00    -0.001 A 
HETATM   16  C13 UNK     1      -3.300  -0.776   1.309  1.00  0.00     0.089 A 
HETATM   17  C14 UNK     1      -3.061  -3.065   0.628  1.00  0.00     0.014 A 
HETATM   18  O4  UNK     1      -2.750   0.482   1.624  1.00  0.00    -0.274 OA
HETATM   19  C15 UNK     1      -4.684  -0.915   1.388  1.00  0.00     0.038 A 
HETATM   20  C11 UNK     1      -1.379   0.718   1.573  1.00  0.00     0.304 A 
HETATM   21  O5  UNK     1      -0.909   1.816   1.848  1.00  0.00    -0.259 OA
HETATM   22  C17 UNK     1      -5.258  -2.147   1.082  1.00  0.00     0.003 A 
HETATM   23  C16 UNK     1      -4.448  -3.220   0.704  1.00  0.00     0.001 A 
ENDBRANCH  12  13
TORSDOF 1
