REMARK  6 active torsions:
REMARK  status: ('A' for Active; 'I' for Inactive)
REMARK    1  A    between atoms: C6_12  and  O1_1 
REMARK    2  A    between atoms: C3_9  and  N1_5 
REMARK       I    between atoms: C4_10  and  N1_5 
REMARK    3  A    between atoms: C12_18  and  N2_6 
REMARK    4  A    between atoms: C1_7  and  C2_8 
REMARK    5  A    between atoms: C1_7  and  C4_10 
REMARK    6  A    between atoms: C5_11  and  C7_13 
ROOT
HETATM    1  O2  UNK     1       1.350  -1.340  -0.670  1.00  0.00    -0.267 OA
HETATM    2  N1  UNK     1      -0.364   0.245  -0.502  1.00  0.00    -0.320 N 
HETATM    3  C4  UNK     1       0.923  -0.194  -0.787  1.00  0.00     0.257 C 
HETATM    4  H2  UNK     1      -0.566   1.232  -0.648  1.00  0.00     0.169 HD
ENDROOT
BRANCH   3   5
HETATM    5  C1  UNK     1       1.830   0.912  -1.276  1.00  0.00     0.043 C 
HETATM    6  C5  UNK     1       2.550   1.567  -0.328  1.00  0.00     0.029 C 
BRANCH   5   7
HETATM    7  C2  UNK     1       1.950   1.236  -2.713  1.00  0.00    -0.021 A 
HETATM    8  C10 UNK     1       2.890   0.570  -3.479  1.00  0.00     0.012 A 
HETATM    9  C16 UNK     1       3.002   0.875  -4.835  1.00  0.00     0.001 A 
HETATM   10  C18 UNK     1       2.172   1.842  -5.404  1.00  0.00     0.000 A 
HETATM   11  C17 UNK     1       1.230   2.502  -4.616  1.00  0.00     0.001 A 
HETATM   12  C11 UNK     1       1.118   2.197  -3.259  1.00  0.00     0.012 A 
ENDBRANCH   5   7
BRANCH   6  13
HETATM   13  C7  UNK     1       2.511   1.331   1.107  1.00  0.00    -0.035 A 
HETATM   14  C14 UNK     1       1.619   2.044   1.907  1.00  0.00     0.011 A 
HETATM   15  C19 UNK     1       1.581   1.817   3.283  1.00  0.00     0.001 A 
HETATM   16  C21 UNK     1       2.435   0.876   3.858  1.00  0.00     0.000 A 
HETATM   17  C20 UNK     1       3.328   0.163   3.058  1.00  0.00     0.001 A 
HETATM   18  C15 UNK     1       3.366   0.390   1.682  1.00  0.00     0.011 A 
ENDBRANCH   6  13
ENDBRANCH   3   5
BRANCH   2  19
HETATM   19  C3  UNK     1      -1.453  -0.527  -0.027  1.00  0.00     0.068 A 
HETATM   20  C6  UNK     1      -2.678   0.075   0.206  1.00  0.00     0.097 A 
HETATM   21  C9  UNK     1      -3.740  -0.698   0.673  1.00  0.00     0.075 A 
HETATM   22  C12 UNK     1      -3.562  -2.063   0.900  1.00  0.00     0.105 A 
HETATM   23  C13 UNK     1      -2.322  -2.654   0.660  1.00  0.00     0.038 A 
HETATM   24  C8  UNK     1      -1.259  -1.881   0.193  1.00  0.00     0.035 A 
BRANCH  20  25
HETATM   25  O1  UNK     1      -2.873   1.407  -0.009  1.00  0.00    -0.354 OA
HETATM   26  C22 UNK     1      -2.617   2.284   1.085  1.00  0.00     0.210 C 
ENDBRANCH  20  25
BRANCH  22  27
HETATM   27  N2  UNK     1      -4.644  -2.851   1.376  1.00  0.00    -0.116 N 
HETATM   28  O3  UNK     1      -4.462  -4.077   1.573  1.00  0.00    -0.532 OA
HETATM   29  O4  UNK     1      -5.751  -2.300   1.586  1.00  0.00    -0.532 OA
ENDBRANCH  22  27
ENDBRANCH   2  19
TORSDOF 6
