REMARK  2 active torsions:
REMARK  status: ('A' for Active; 'I' for Inactive)
REMARK    1  A    between atoms: C12_15  and  O2_2 
REMARK    2  A    between atoms: C4_7  and  O2_2 
ROOT
HETATM    1  O1  UNK     1      -1.845  -0.636  -0.864  1.00  0.00    -0.274 OA
HETATM    2  O3  UNK     1      -3.960  -1.420  -0.491  1.00  0.00    -0.260 OA
HETATM    3  C1  UNK     1      -0.379  -0.202   1.041  1.00  0.00     0.005 A 
HETATM    4  C2  UNK     1      -0.608  -0.215  -0.335  1.00  0.00     0.099 A 
HETATM    5  C3  UNK     1       0.362   0.182  -1.257  1.00  0.00     0.006 A 
HETATM    6  C4  UNK     1       1.603   0.608  -0.794  1.00  0.00     0.077 A 
HETATM    7  C5  UNK     1      -1.458  -0.638   1.939  1.00  0.00    -0.043 A 
HETATM    8  C6  UNK     1       0.878   0.230   1.487  1.00  0.00     0.017 A 
HETATM    9  C7  UNK     1       1.860   0.631   0.575  1.00  0.00     0.038 A 
HETATM   10  C8  UNK     1       0.078   0.153  -2.723  1.00  0.00     0.054 C 
HETATM   11  C9  UNK     1      -2.623  -1.033   1.408  1.00  0.00     0.090 A 
HETATM   12  C10 UNK     1      -1.242  -0.635   3.424  1.00  0.00     0.049 C 
HETATM   13  C11 UNK     1      -2.881  -1.053  -0.042  1.00  0.00     0.288 A 
ENDROOT
BRANCH   6  14
HETATM   14  O2  UNK     1       2.576   1.002  -1.662  1.00  0.00    -0.351 OA
BRANCH  14  15
HETATM   15  C12 UNK     1       3.056   2.339  -1.534  1.00  0.00     0.171 C 
HETATM   16  C13 UNK     1       3.516   2.830  -2.890  1.00  0.00     0.034 C 
ENDBRANCH  14  15
ENDBRANCH   6  14
TORSDOF 2
