REMARK  4 active torsions:
REMARK  status: ('A' for Active; 'I' for Inactive)
REMARK    1  A    between atoms: C8_14  and  S1_1 
REMARK    2  A    between atoms: N1_6  and  S1_1 
REMARK    3  A    between atoms: C1_7  and  C6_12 
REMARK    4  A    between atoms: C6_12  and  C7_13 
ROOT
HETATM    1  S1  UNK     1       2.075   1.482   1.935  1.00  0.00     0.243 S 
HETATM    2  O1  UNK     1       3.191   0.878   2.630  1.00  0.00    -0.206 OA
HETATM    3  O2  UNK     1       1.709   2.863   2.168  1.00  0.00    -0.206 OA
ENDROOT
BRANCH   1   4
HETATM    4  C8  UNK     1       2.339   1.273   0.203  1.00  0.00     0.075 A 
HETATM    5  C11 UNK     1       1.728   2.148  -0.687  1.00  0.00     0.039 A 
HETATM    6  C13 UNK     1       1.935   1.985  -2.058  1.00  0.00    -0.001 A 
HETATM    7  C17 UNK     1       2.752   0.946  -2.497  1.00  0.00     0.089 A 
HETATM    8  C19 UNK     1       1.328   2.863  -3.044  1.00  0.00     0.020 A 
HETATM    9  C14 UNK     1       3.364   0.069  -1.604  1.00  0.00     0.040 A 
HETATM   10  O3  UNK     1       2.987   0.750  -3.873  1.00  0.00    -0.275 OA
HETATM   11  C12 UNK     1       3.152   0.238  -0.238  1.00  0.00     0.027 A 
HETATM   12  C21 UNK     1       2.416   1.578  -4.834  1.00  0.00     0.288 A 
HETATM   13  C20 UNK     1       1.555   2.671  -4.346  1.00  0.00     0.083 A 
HETATM   14  O4  UNK     1       2.616   1.414  -6.033  1.00  0.00    -0.260 OA
ENDBRANCH   1   4
BRANCH   1  15
HETATM   15  N1  UNK     1       0.688   0.498   2.146  1.00  0.00    -0.206 NA
HETATM   16  C4  UNK     1      -0.508   0.904   1.350  1.00  0.00     0.108 C 
HETATM   17  C2  UNK     1      -1.744   0.184   1.880  1.00  0.00     0.020 C 
HETATM   18  C1  UNK     1      -1.556  -1.339   1.857  1.00  0.00    -0.008 C 
HETATM   19  C3  UNK     1      -0.280  -1.721   2.617  1.00  0.00     0.020 C 
HETATM   20  C5  UNK     1       0.934  -0.972   2.076  1.00  0.00     0.108 C 
BRANCH  18  21
HETATM   21  C6  UNK     1      -2.774  -2.046   2.446  1.00  0.00     0.043 C 
BRANCH  21  22
HETATM   22  C7  UNK     1      -3.908  -2.113   1.460  1.00  0.00    -0.058 A 
HETATM   23  C10 UNK     1      -4.007  -3.202   0.604  1.00  0.00     0.007 A 
HETATM   24  C16 UNK     1      -5.059  -3.264  -0.310  1.00  0.00     0.001 A 
HETATM   25  C18 UNK     1      -6.002  -2.238  -0.360  1.00  0.00     0.000 A 
HETATM   26  C15 UNK     1      -5.893  -1.148   0.505  1.00  0.00     0.001 A 
HETATM   27  C9  UNK     1      -4.841  -1.086   1.419  1.00  0.00     0.007 A 
ENDBRANCH  21  22
ENDBRANCH  18  21
ENDBRANCH   1  15
TORSDOF 4
