REMARK  5 active torsions:
REMARK  status: ('A' for Active; 'I' for Inactive)
REMARK    1  A    between atoms: C12_20  and  O2_3 
REMARK    2  A    between atoms: C16_24  and  O2_3 
REMARK    3  A    between atoms: C4_12  and  N1_7 
REMARK       I    between atoms: C8_16  and  N1_7 
REMARK    4  A    between atoms: C2_10  and  C8_16 
REMARK    5  A    between atoms: C12_20  and  C3_11 
ROOT
HETATM    1  O3  UNK     1       0.757   1.083   2.244  1.00  0.00    -0.267 OA
HETATM    2  N1  UNK     1      -0.642  -0.127   0.778  1.00  0.00    -0.315 N 
HETATM    3  C8  UNK     1       0.411   0.709   1.125  1.00  0.00     0.262 C 
HETATM    4  H2  UNK     1      -0.795  -0.345  -0.204  1.00  0.00     0.170 HD
ENDROOT
BRANCH   2   5
HETATM    5  C4  UNK     1      -1.543  -0.726   1.663  1.00  0.00     0.114 A 
HETATM    6  C3  UNK     1      -2.622  -1.565   1.485  1.00  0.00     0.099 A 
HETATM    7  C7  UNK     1      -3.205  -1.886   2.745  1.00  0.00     0.058 A 
HETATM    8  C13 UNK     1      -4.380  -2.761   2.945  1.00  0.00     0.072 C 
HETATM    9  N2  UNK     1      -2.645  -1.353   3.828  1.00  0.00    -0.213 NA
HETATM   10  S1  UNK     1      -1.359  -0.421   3.338  1.00  0.00     0.030 SA
BRANCH   6  11
HETATM   11  C12 UNK     1      -3.063  -2.028   0.196  1.00  0.00     0.298 C 
HETATM   12  O5  UNK     1      -3.623  -3.110  -0.038  1.00  0.00    -0.259 OA
BRANCH  11  13
HETATM   13  O2  UNK     1      -2.791  -1.111  -0.796  1.00  0.00    -0.318 OA
BRANCH  13  14
HETATM   14  C16 UNK     1      -3.186  -1.461  -2.127  1.00  0.00     0.174 C 
HETATM   15  C17 UNK     1      -2.805  -0.336  -3.066  1.00  0.00     0.034 C 
ENDBRANCH  13  14
ENDBRANCH  11  13
ENDBRANCH   6  11
ENDBRANCH   2   5
BRANCH   3  16
HETATM   16  C2  UNK     1       1.159   1.163  -0.054  1.00  0.00     0.108 A 
HETATM   17  C10 UNK     1       0.519   1.940  -1.139  1.00  0.00     0.304 A 
HETATM   18  O1  UNK     1       1.333   2.314  -2.204  1.00  0.00    -0.274 OA
HETATM   19  O4  UNK     1      -0.669   2.242  -1.106  1.00  0.00    -0.259 OA
HETATM   20  C5  UNK     1       2.699   1.974  -2.251  1.00  0.00     0.089 A 
HETATM   21  C1  UNK     1       3.281   1.243  -1.220  1.00  0.00    -0.001 A 
HETATM   22  C11 UNK     1       3.434   2.393  -3.358  1.00  0.00     0.038 A 
HETATM   23  C6  UNK     1       2.456   0.837  -0.093  1.00  0.00     0.037 A 
HETATM   24  C9  UNK     1       4.639   0.924  -1.302  1.00  0.00     0.014 A 
HETATM   25  C14 UNK     1       5.389   1.338  -2.407  1.00  0.00     0.001 A 
HETATM   26  C15 UNK     1       4.787   2.071  -3.432  1.00  0.00     0.003 A 
ENDBRANCH   3  16
TORSDOF 5
