REMARK  5 active torsions:
REMARK  status: ('A' for Active; 'I' for Inactive)
REMARK    1  A    between atoms: C11_18  and  O2_4 
REMARK    2  A    between atoms: C6_13  and  O2_4 
REMARK    3  A    between atoms: C12_19  and  O3_5 
REMARK    4  A    between atoms: C13_20  and  O3_5 
REMARK    5  A    between atoms: C11_18  and  C12_19 
ROOT
HETATM    1  O2  UNK     1      -0.282  -1.133  -0.860  1.00  0.00    -0.341 OA
ENDROOT
BRANCH   1   2
HETATM    2  C11 UNK     1       0.723  -0.392  -0.169  1.00  0.00     0.287 C 
BRANCH   2   3
HETATM    3  C12 UNK     1       1.599   0.299  -1.182  1.00  0.00     0.288 C 
HETATM    4  O5  UNK     1       1.450   0.244  -2.395  1.00  0.00    -0.262 OA
BRANCH   3   5
HETATM    5  O3  UNK     1       2.587   0.999  -0.495  1.00  0.00    -0.277 OA
BRANCH   5   6
HETATM    6  C13 UNK     1       3.460   1.681  -1.345  1.00  0.00     0.081 A 
HETATM    7  C14 UNK     1       3.157   2.976  -1.706  1.00  0.00     0.063 A 
HETATM    8  C16 UNK     1       4.030   3.656  -2.555  1.00  0.00     0.058 A 
HETATM    9 Cl1  UNK     1       3.627   5.280  -2.993  1.00  0.00    -0.082 Cl
HETATM   10  C18 UNK     1       5.183   3.025  -3.022  1.00  0.00     0.056 A 
HETATM   11  C17 UNK     1       5.463   1.713  -2.640  1.00  0.00     0.028 A 
HETATM   12 Cl2  UNK     1       6.302   3.815  -4.076  1.00  0.00    -0.083 Cl
HETATM   13  C15 UNK     1       4.591   1.033  -1.791  1.00  0.00     0.039 A 
ENDBRANCH   5   6
ENDBRANCH   3   5
ENDBRANCH   2   3
ENDBRANCH   1   2
BRANCH   1  14
HETATM   14  C6  UNK     1      -1.471  -1.308  -0.223  1.00  0.00     0.072 A 
HETATM   15  C5  UNK     1      -1.518  -1.366   1.166  1.00  0.00     0.075 A 
HETATM   16  C2  UNK     1      -2.749  -1.545   1.799  1.00  0.00     0.092 A 
HETATM   17  C1  UNK     1      -3.943  -1.669   1.087  1.00  0.00     0.004 A 
HETATM   18  O1  UNK     1      -2.732  -1.596   3.208  1.00  0.00    -0.275 OA
HETATM   19  C3  UNK     1      -5.193  -1.855   1.836  1.00  0.00    -0.043 A 
HETATM   20  C4  UNK     1      -3.875  -1.607  -0.311  1.00  0.00     0.017 A 
HETATM   21  C8  UNK     1      -5.147  -1.899   3.175  1.00  0.00     0.090 A 
HETATM   22  C9  UNK     1      -6.493  -1.991   1.099  1.00  0.00     0.049 C 
HETATM   23  C10 UNK     1      -3.896  -1.770   3.941  1.00  0.00     0.288 A 
HETATM   24  O4  UNK     1      -3.893  -1.816   5.166  1.00  0.00    -0.260 OA
HETATM   25  C7  UNK     1      -2.648  -1.428  -0.961  1.00  0.00     0.038 A 
ENDBRANCH   1  14
TORSDOF 5
