REMARK  7 active torsions:
REMARK  status: ('A' for Active; 'I' for Inactive)
REMARK    1  A    between atoms: C17_25  and  O1_3 
REMARK    2  A    between atoms: C8_16  and  O1_3 
REMARK       I    between atoms: C12_20  and  N1_8 
REMARK    3  A    between atoms: C4_12  and  N1_8 
REMARK    4  A    between atoms: C1_9  and  C3_11 
REMARK    5  A    between atoms: C2_10  and  C8_16 
REMARK    6  A    between atoms: C12_20  and  C9_17 
REMARK    7  A    between atoms: C17_25  and  C18_26 
ROOT
HETATM    1  S1  UNK     1       0.742  -0.123   2.633  1.00  0.00    -0.082 SA
HETATM    2  C1  UNK     1      -1.665  -0.977   2.357  1.00  0.00    -0.000 A 
HETATM    3  C2  UNK     1      -1.221  -0.619   1.051  1.00  0.00     0.085 A 
HETATM    4  C4  UNK     1       0.053  -0.149   1.079  1.00  0.00     0.094 A 
HETATM    5  C5  UNK     1      -0.696  -0.758   3.311  1.00  0.00     0.065 A 
ENDROOT
BRANCH   4   6
HETATM    6  N1  UNK     1       0.874   0.308   0.044  1.00  0.00    -0.316 N 
HETATM    7  C12 UNK     1       2.175   0.772   0.176  1.00  0.00     0.262 C 
HETATM    8  O4  UNK     1       2.854   0.874   1.197  1.00  0.00    -0.267 OA
HETATM    9  H4  UNK     1       0.434   0.302  -0.872  1.00  0.00     0.169 HD
BRANCH   7  10
HETATM   10  C9  UNK     1       2.746   1.175  -1.115  1.00  0.00     0.108 A 
HETATM   11  C15 UNK     1       3.657   2.155  -1.079  1.00  0.00     0.037 A 
HETATM   12  C11 UNK     1       4.280   2.623  -2.308  1.00  0.00     0.000 A 
HETATM   13  C16 UNK     1       3.912   2.035  -3.514  1.00  0.00     0.089 A 
HETATM   14  C20 UNK     1       5.234   3.642  -2.318  1.00  0.00     0.033 A 
HETATM   15  O2  UNK     1       2.953   1.004  -3.546  1.00  0.00    -0.274 OA
HETATM   16  C22 UNK     1       4.470   2.437  -4.726  1.00  0.00     0.039 A 
HETATM   17  C19 UNK     1       2.340   0.536  -2.387  1.00  0.00     0.304 A 
HETATM   18  O5  UNK     1       1.506  -0.363  -2.423  1.00  0.00    -0.259 OA
HETATM   19  C24 UNK     1       5.421   3.455  -4.727  1.00  0.00     0.022 A 
HETATM   20  C23 UNK     1       5.803   4.056  -3.526  1.00  0.00     0.011 A 
HETATM   21 Br1  UNK     1       7.095   5.437  -3.534  1.00  0.00    -0.051 Br
ENDBRANCH   7  10
ENDBRANCH   4   6
BRANCH   3  22
HETATM   22  C8  UNK     1      -1.998  -0.728  -0.159  1.00  0.00     0.297 C 
HETATM   23  O3  UNK     1      -1.597  -0.411  -1.294  1.00  0.00    -0.259 OA
BRANCH  22  24
HETATM   24  O1  UNK     1      -3.253  -1.230   0.079  1.00  0.00    -0.317 OA
BRANCH  24  25
HETATM   25  C17 UNK     1      -4.123  -1.387  -1.048  1.00  0.00     0.178 C 
BRANCH  25  26
HETATM   26  C18 UNK     1      -5.451  -1.953  -0.569  1.00  0.00     0.022 C 
HETATM   27  C25 UNK     1      -6.423  -2.161  -1.717  1.00  0.00     0.007 C 
ENDBRANCH  25  26
ENDBRANCH  24  25
ENDBRANCH  22  24
ENDBRANCH   3  22
BRANCH   2  28
HETATM   28  C3  UNK     1      -2.949  -1.509   2.735  1.00  0.00    -0.024 A 
HETATM   29  C6  UNK     1      -3.150  -2.887   2.751  1.00  0.00     0.013 A 
HETATM   30  C13 UNK     1      -4.393  -3.403   3.117  1.00  0.00     0.007 A 
HETATM   31  C10 UNK     1      -5.431  -2.539   3.466  1.00  0.00    -0.062 A 
HETATM   32  C14 UNK     1      -5.226  -1.160   3.448  1.00  0.00     0.007 A 
HETATM   33  C21 UNK     1      -6.761  -3.091   3.857  1.00  0.00     0.048 C 
HETATM   34  C7  UNK     1      -3.983  -0.644   3.082  1.00  0.00     0.013 A 
ENDBRANCH   2  28
TORSDOF 7
