REMARK  6 active torsions:
REMARK  status: ('A' for Active; 'I' for Inactive)
REMARK    1  A    between atoms: C10_15  and  O1_1 
REMARK    2  A    between atoms: C4_9  and  O1_1 
REMARK    3  A    between atoms: C23_28  and  N1_4 
REMARK    4  A    between atoms: C1_6  and  C4_9 
REMARK    5  A    between atoms: C11_16  and  C14_19 
REMARK    6  A    between atoms: C17_22  and  C18_23 
ROOT
HETATM    1  N2  UNK     1      -2.444   3.065  -1.484  1.00  0.00    -0.191 NA
HETATM    2  C14 UNK     1      -0.250   1.657   0.726  1.00  0.00     0.037 C 
HETATM    3  C17 UNK     1      -0.257   2.032  -0.554  1.00  0.00     0.055 C 
HETATM    4  C26 UNK     1      -1.465   2.602  -1.066  1.00  0.00     0.100 C 
ENDROOT
BRANCH   3   5
HETATM    5  C18 UNK     1       0.882   1.888  -1.484  1.00  0.00    -0.015 A 
HETATM    6  C21 UNK     1       1.792   2.923  -1.601  1.00  0.00     0.015 A 
HETATM    7  C24 UNK     1       2.868   2.787  -2.478  1.00  0.00     0.037 A 
HETATM    8  C23 UNK     1       3.017   1.617  -3.223  1.00  0.00     0.102 A 
HETATM    9  C25 UNK     1       2.089   0.584  -3.092  1.00  0.00     0.037 A 
HETATM   10  C22 UNK     1       1.013   0.720  -2.215  1.00  0.00     0.015 A 
BRANCH   8  11
HETATM   11  N1  UNK     1       4.112   1.479  -4.116  1.00  0.00    -0.116 N 
HETATM   12  O2  UNK     1       4.935   2.420  -4.219  1.00  0.00    -0.532 OA
HETATM   13  O3  UNK     1       4.228   0.418  -4.776  1.00  0.00    -0.532 OA
ENDBRANCH   8  11
ENDBRANCH   3   5
BRANCH   2  14
HETATM   14  C11 UNK     1       0.911   1.075   1.386  1.00  0.00    -0.001 A 
HETATM   15  C10 UNK     1       1.138  -0.298   1.371  1.00  0.00     0.079 A 
HETATM   16  C15 UNK     1       2.252  -0.837   2.007  1.00  0.00     0.037 A 
HETATM   17  C19 UNK     1       3.148   0.006   2.665  1.00  0.00     0.003 A 
HETATM   18  C20 UNK     1       2.925   1.382   2.684  1.00  0.00     0.001 A 
HETATM   19  C16 UNK     1       1.807   1.917   2.044  1.00  0.00     0.014 A 
BRANCH  15  20
HETATM   20  O1  UNK     1       0.273  -1.148   0.732  1.00  0.00    -0.346 OA
BRANCH  20  21
HETATM   21  C4  UNK     1      -0.351  -2.145   1.528  1.00  0.00     0.215 C 
BRANCH  21  22
HETATM   22  C1  UNK     1      -1.680  -2.490   0.930  1.00  0.00    -0.023 A 
HETATM   23  C2  UNK     1      -2.857  -1.813   1.291  1.00  0.00    -0.018 A 
HETATM   24  C3  UNK     1      -4.082  -2.186   0.689  1.00  0.00    -0.025 A 
HETATM   25  C6  UNK     1      -2.844  -0.774   2.236  1.00  0.00     0.013 A 
HETATM   26  C7  UNK     1      -4.095  -3.225  -0.256  1.00  0.00     0.012 A 
HETATM   27  C8  UNK     1      -5.259  -1.509   1.050  1.00  0.00     0.012 A 
HETATM   28  C9  UNK     1      -2.916  -3.887  -0.602  1.00  0.00     0.002 A 
HETATM   29  C5  UNK     1      -1.711  -3.520  -0.010  1.00  0.00     0.010 A 
HETATM   30  C13 UNK     1      -5.227  -0.479   1.991  1.00  0.00     0.001 A 
HETATM   31  C12 UNK     1      -4.022  -0.112   2.582  1.00  0.00     0.001 A 
ENDBRANCH  21  22
ENDBRANCH  20  21
ENDBRANCH  15  20
ENDBRANCH   2  14
TORSDOF 6
