REMARK  3 active torsions:
REMARK  status: ('A' for Active; 'I' for Inactive)
REMARK    1  A    between atoms: C14_22  and  O4_4 
REMARK       I    between atoms: C7_15  and  N1_7 
REMARK    2  A    between atoms: C15_23  and  N2_8 
REMARK    3  A    between atoms: C7_15  and  C8_16 
ROOT
HETATM    1  O2  UNK     1       1.447   0.328   1.294  1.00  0.00    -0.271 OA
HETATM    2  O3  UNK     1       0.198  -0.912   2.751  1.00  0.00    -0.259 OA
HETATM    3  C8  UNK     1      -0.342  -1.111   0.452  1.00  0.00     0.108 A 
HETATM    4  C9  UNK     1      -0.082  -0.743  -0.808  1.00  0.00     0.037 A 
HETATM    5  C10 UNK     1       0.985   0.205  -1.090  1.00  0.00     0.004 A 
HETATM    6  C11 UNK     1       0.433  -0.577   1.595  1.00  0.00     0.304 A 
HETATM    7  C12 UNK     1       1.726   0.719  -0.031  1.00  0.00     0.123 A 
HETATM    8  C13 UNK     1       1.291   0.617  -2.389  1.00  0.00     0.050 A 
HETATM    9  C14 UNK     1       2.760   1.630  -0.233  1.00  0.00     0.105 A 
HETATM   10  C15 UNK     1       2.326   1.530  -2.608  1.00  0.00     0.106 A 
HETATM   11  C16 UNK     1       3.059   2.035  -1.532  1.00  0.00     0.075 A 
ENDROOT
BRANCH   3  12
HETATM   12  C7  UNK     1      -1.445  -2.077   0.637  1.00  0.00     0.260 C 
HETATM   13  O1  UNK     1      -1.158  -3.275   0.609  1.00  0.00    -0.267 OA
HETATM   14  N1  UNK     1      -2.734  -1.572   0.826  1.00  0.00    -0.344 N 
HETATM   15  C1  UNK     1      -3.121  -0.144   0.720  1.00  0.00     0.083 C 
HETATM   16  C5  UNK     1      -3.833  -2.529   1.006  1.00  0.00     0.126 C 
HETATM   17  C2  UNK     1      -4.112   0.255   1.825  1.00  0.00     0.025 C 
HETATM   18  C6  UNK     1      -3.655   0.173  -0.679  1.00  0.00     0.032 C 
HETATM   19  C3  UNK     1      -5.283  -0.712   1.956  1.00  0.00     0.004 C 
HETATM   20  C4  UNK     1      -4.769  -2.134   2.141  1.00  0.00     0.020 C 
ENDBRANCH   3  12
BRANCH   9  21
HETATM   21  O4  UNK     1       3.477   2.124   0.812  1.00  0.00    -0.353 OA
HETATM   22  C17 UNK     1       2.996   3.322   1.422  1.00  0.00     0.210 C 
ENDBRANCH   9  21
BRANCH  10  23
HETATM   23  N2  UNK     1       2.634   1.947  -3.930  1.00  0.00    -0.116 N 
HETATM   24  O5  UNK     1       1.966   1.483  -4.885  1.00  0.00    -0.532 OA
HETATM   25  O6  UNK     1       3.567   2.767  -4.107  1.00  0.00    -0.532 OA
ENDBRANCH  10  23
TORSDOF 3
