REMARK  5 active torsions:
REMARK  status: ('A' for Active; 'I' for Inactive)
REMARK    1  A    between atoms: C11_14  and  O2_2 
REMARK    2  A    between atoms: C6_9  and  O2_2 
REMARK    3  A    between atoms: C5_8  and  C8_11 
REMARK    4  A    between atoms: C10_13  and  C15_18 
REMARK    5  A    between atoms: C10_13  and  C11_14 
ROOT
HETATM    1  O1  UNK     1      -0.497  -0.570   1.846  1.00  0.00    -0.274 OA
HETATM    2  O3  UNK     1      -1.893  -1.091   3.559  1.00  0.00    -0.259 OA
HETATM    3  C1  UNK     1      -1.290  -0.660  -0.452  1.00  0.00     0.005 A 
HETATM    4  C2  UNK     1      -2.620  -1.073   0.041  1.00  0.00    -0.037 A 
HETATM    5  C3  UNK     1      -0.274  -0.422   0.469  1.00  0.00     0.099 A 
HETATM    6  C4  UNK     1       1.011  -0.029   0.087  1.00  0.00     0.006 A 
HETATM    7  C5  UNK     1      -2.811  -1.245   1.367  1.00  0.00     0.024 A 
HETATM    8  C6  UNK     1       1.302   0.130  -1.263  1.00  0.00     0.077 A 
HETATM    9  C7  UNK     1      -0.972  -0.499  -1.810  1.00  0.00     0.017 A 
HETATM   10  C9  UNK     1       0.311  -0.106  -2.212  1.00  0.00     0.038 A 
HETATM   11  C12 UNK     1      -1.722  -0.974   2.349  1.00  0.00     0.295 A 
HETATM   12  C13 UNK     1      -3.702  -1.266  -0.992  1.00  0.00     0.050 C 
HETATM   13  C14 UNK     1       2.069   0.217   1.114  1.00  0.00     0.054 C 
ENDROOT
BRANCH   8  14
HETATM   14  O2  UNK     1       2.543   0.510  -1.674  1.00  0.00    -0.351 OA
BRANCH  14  15
HETATM   15  C11 UNK     1       2.636   1.723  -2.419  1.00  0.00     0.175 C 
BRANCH  15  16
HETATM   16  C10 UNK     1       4.001   2.349  -2.170  1.00  0.00     0.026 C 
BRANCH  16  17
HETATM   17  C15 UNK     1       4.164   3.664  -2.927  1.00  0.00    -0.002 C 
HETATM   18  C17 UNK     1       5.512   4.307  -2.642  1.00  0.00     0.005 C 
ENDBRANCH  16  17
ENDBRANCH  15  16
ENDBRANCH  14  15
ENDBRANCH   8  14
BRANCH   7  19
HETATM   19  C8  UNK     1      -4.095  -1.722   1.997  1.00  0.00     0.041 C 
HETATM   20  C16 UNK     1      -5.008  -0.564   2.336  1.00  0.00     0.010 C 
ENDBRANCH   7  19
TORSDOF 5
