REMARK  2 active torsions:
REMARK  status: ('A' for Active; 'I' for Inactive)
REMARK    1  A    between atoms: C13_18  and  O4_4 
REMARK       I    between atoms: C5_10  and  N1_5 
REMARK    2  A    between atoms: C5_10  and  C6_11 
ROOT
HETATM    1  O2  UNK     1       0.018   0.602   1.982  1.00  0.00    -0.274 OA
HETATM    2  O3  UNK     1       2.117   1.417   1.595  1.00  0.00    -0.259 OA
HETATM    3  C6  UNK     1       1.151   0.108  -0.128  1.00  0.00     0.108 A 
HETATM    4  C7  UNK     1       0.102  -0.605  -0.555  1.00  0.00     0.037 A 
HETATM    5  C8  UNK     1      -1.074  -0.757   0.288  1.00  0.00     0.002 A 
HETATM    6  C9  UNK     1       1.158   0.763   1.199  1.00  0.00     0.304 A 
HETATM    7  C10 UNK     1      -1.088  -0.148   1.539  1.00  0.00     0.089 A 
HETATM    8  C11 UNK     1      -2.190  -1.493  -0.117  1.00  0.00     0.051 A 
HETATM    9  C12 UNK     1      -2.184  -0.254   2.394  1.00  0.00     0.041 A 
HETATM   10  C13 UNK     1      -3.297  -1.608   0.730  1.00  0.00     0.069 A 
HETATM   11  C14 UNK     1      -3.293  -0.990   1.983  1.00  0.00     0.039 A 
ENDROOT
BRANCH   3  12
HETATM   12  C5  UNK     1       2.296   0.203  -1.055  1.00  0.00     0.259 C 
HETATM   13  O1  UNK     1       3.181  -0.650  -0.993  1.00  0.00    -0.267 OA
HETATM   14  N1  UNK     1       2.287   1.261  -1.943  1.00  0.00    -0.348 N 
HETATM   15  C3  UNK     1       3.360   1.455  -2.908  1.00  0.00     0.126 C 
HETATM   16  C4  UNK     1       1.274   2.307  -2.076  1.00  0.00     0.126 C 
HETATM   17  C1  UNK     1       2.809   2.475  -3.892  1.00  0.00     0.021 C 
HETATM   18  C2  UNK     1       1.898   3.327  -3.019  1.00  0.00     0.021 C 
ENDBRANCH   3  12
BRANCH  10  19
HETATM   19  O4  UNK     1      -4.383  -2.327   0.333  1.00  0.00    -0.356 OA
HETATM   20  C15 UNK     1      -5.477  -2.407   1.244  1.00  0.00     0.210 C 
ENDBRANCH  10  19
TORSDOF 2
