REMARK  12 active torsions:
REMARK  status: ('A' for Active; 'I' for Inactive)
REMARK    1  A    between atoms: C10_15  and  O1_1 
REMARK    2  A    between atoms: C11_16  and  O1_1 
REMARK    3  A    between atoms: C25_30  and  O5_5 
REMARK    4  A    between atoms: C1_6  and  C2_7 
REMARK    5  A    between atoms: C1_6  and  C3_8 
REMARK    6  A    between atoms: C2_7  and  C4_9 
REMARK    7  A    between atoms: C3_8  and  C5_10 
REMARK    8  A    between atoms: C4_9  and  C6_11 
REMARK    9  A    between atoms: C5_10  and  C7_12 
REMARK   10  A    between atoms: C6_11  and  C8_13 
REMARK   11  A    between atoms: C10_15  and  C8_13 
REMARK   12  A    between atoms: C12_17  and  C16_21 
ROOT
HETATM    1  O2  UNK     1       2.137   2.596  -0.491  1.00  0.00    -0.306 OA
HETATM    2  O4  UNK     1       2.490   0.623  -4.039  1.00  0.00    -0.284 OA
HETATM    3  C11 UNK     1       1.709   0.611  -1.803  1.00  0.00     0.164 A 
HETATM    4  C12 UNK     1       1.633   1.317  -0.660  1.00  0.00     0.124 A 
HETATM    5  C13 UNK     1       2.935   2.570  -2.783  1.00  0.00     0.051 A 
HETATM    6  C14 UNK     1       2.389   1.217  -2.973  1.00  0.00     0.221 A 
HETATM    7  C15 UNK     1       2.778   3.191  -1.547  1.00  0.00     0.090 A 
HETATM    8  C17 UNK     1       3.598   3.225  -3.824  1.00  0.00     0.018 A 
HETATM    9  C18 UNK     1       3.285   4.475  -1.342  1.00  0.00     0.038 A 
HETATM   10  C21 UNK     1       4.105   4.508  -3.616  1.00  0.00     0.001 A 
HETATM   11  C22 UNK     1       3.948   5.133  -2.378  1.00  0.00     0.003 A 
ENDROOT
BRANCH   3  12
HETATM   12  O1  UNK     1       1.168  -0.648  -1.948  1.00  0.00    -0.272 OA
BRANCH  12  13
HETATM   13  C10 UNK     1      -0.132  -0.652  -2.391  1.00  0.00     0.264 C 
HETATM   14  O3  UNK     1      -0.831   0.325  -2.629  1.00  0.00    -0.265 OA
BRANCH  13  15
HETATM   15  C8  UNK     1      -0.594  -2.090  -2.503  1.00  0.00     0.111 C 
BRANCH  15  16
HETATM   16  C6  UNK     1      -1.202  -2.630  -1.208  1.00  0.00     0.010 C 
BRANCH  16  17
HETATM   17  C4  UNK     1      -2.470  -1.874  -0.796  1.00  0.00     0.000 C 
BRANCH  17  18
HETATM   18  C2  UNK     1      -3.073  -2.464   0.481  1.00  0.00     0.000 C 
BRANCH  18  19
HETATM   19  C1  UNK     1      -4.341  -1.742   0.950  1.00  0.00     0.000 C 
BRANCH  19  20
HETATM   20  C3  UNK     1      -4.982  -2.381   2.184  1.00  0.00     0.000 C 
BRANCH  20  21
HETATM   21  C5  UNK     1      -6.288  -1.702   2.609  1.00  0.00    -0.000 C 
BRANCH  21  22
HETATM   22  C7  UNK     1      -6.894  -2.289   3.885  1.00  0.00    -0.005 C 
HETATM   23  C9  UNK     1      -8.145  -1.532   4.304  1.00  0.00     0.005 C 
ENDBRANCH  21  22
ENDBRANCH  20  21
ENDBRANCH  19  20
ENDBRANCH  18  19
ENDBRANCH  17  18
ENDBRANCH  16  17
ENDBRANCH  15  16
ENDBRANCH  13  15
ENDBRANCH  12  13
ENDBRANCH   3  12
BRANCH   4  24
HETATM   24  C16 UNK     1       0.970   0.795   0.548  1.00  0.00     0.001 A 
HETATM   25  C19 UNK     1       1.430  -0.379   1.144  1.00  0.00     0.017 A 
HETATM   26  C23 UNK     1       0.803  -0.873   2.288  1.00  0.00     0.037 A 
HETATM   27  C25 UNK     1      -0.285  -0.192   2.836  1.00  0.00     0.068 A 
HETATM   28  C24 UNK     1      -0.744   0.983   2.240  1.00  0.00     0.037 A 
HETATM   29  C20 UNK     1      -0.117   1.476   1.096  1.00  0.00     0.017 A 
BRANCH  27  30
HETATM   30  O5  UNK     1      -0.897  -0.673   3.952  1.00  0.00    -0.356 OA
HETATM   31  C26 UNK     1      -2.002   0.072   4.459  1.00  0.00     0.210 C 
ENDBRANCH  27  30
ENDBRANCH   4  24
TORSDOF 12
