REMARK  4 active torsions:
REMARK  status: ('A' for Active; 'I' for Inactive)
REMARK    1  A    between atoms: C15_20  and  N1_3 
REMARK       I    between atoms: C5_10  and  N1_3 
REMARK    2  A    between atoms: C1_6  and  C2_7 
REMARK    3  A    between atoms: C1_6  and  C5_10 
REMARK    4  A    between atoms: C3_8  and  C4_9 
ROOT
HETATM    1  C1  UNK     1      -0.193   0.042   0.583  1.00  0.00     0.043 C 
HETATM    2  C3  UNK     1      -0.599  -0.293   1.835  1.00  0.00     0.029 C 
ENDROOT
BRANCH   1   3
HETATM    3  C2  UNK     1      -1.020  -0.230  -0.611  1.00  0.00    -0.021 A 
HETATM    4  C6  UNK     1      -1.925   0.725  -1.038  1.00  0.00     0.012 A 
HETATM    5  C10 UNK     1      -2.705   0.468  -2.165  1.00  0.00     0.001 A 
HETATM    6  C12 UNK     1      -2.567  -0.741  -2.847  1.00  0.00     0.000 A 
HETATM    7  C11 UNK     1      -1.650  -1.693  -2.402  1.00  0.00     0.001 A 
HETATM    8  C7  UNK     1      -0.870  -1.435  -1.275  1.00  0.00     0.012 A 
ENDBRANCH   1   3
BRANCH   1   9
HETATM    9  C5  UNK     1       1.173   0.681   0.468  1.00  0.00     0.258 C 
HETATM   10  O1  UNK     1       1.835   0.904   1.478  1.00  0.00    -0.267 OA
HETATM   11  N1  UNK     1       1.524   0.961  -0.846  1.00  0.00    -0.300 N 
HETATM   12  H8  UNK     1       0.897   0.736  -1.612  1.00  0.00     0.171 HD
BRANCH  11  13
HETATM   13  C15 UNK     1       2.716   1.558  -1.269  1.00  0.00     0.196 A 
HETATM   14  S1  UNK     1       2.876   1.782  -2.949  1.00  0.00    -0.034 SA
HETATM   15  C17 UNK     1       4.406   2.470  -2.589  1.00  0.00     0.097 A 
HETATM   16  N3  UNK     1       4.710   2.500  -1.309  1.00  0.00    -0.145 NA
HETATM   17  C18 UNK     1       5.265   2.970  -3.681  1.00  0.00     0.081 C 
HETATM   18  N2  UNK     1       3.704   1.957  -0.530  1.00  0.00    -0.123 NA
ENDBRANCH  11  13
ENDBRANCH   1   9
BRANCH   2  19
HETATM   19  C4  UNK     1      -1.843  -0.956   2.195  1.00  0.00    -0.035 A 
HETATM   20  C8  UNK     1      -2.984  -0.199   2.463  1.00  0.00     0.011 A 
HETATM   21  C13 UNK     1      -4.177  -0.835   2.808  1.00  0.00     0.001 A 
HETATM   22  C16 UNK     1      -4.229  -2.226   2.885  1.00  0.00     0.000 A 
HETATM   23  C14 UNK     1      -3.088  -2.983   2.617  1.00  0.00     0.001 A 
HETATM   24  C9  UNK     1      -1.895  -2.347   2.272  1.00  0.00     0.011 A 
ENDBRANCH   2  19
TORSDOF 4
