REMARK  2 active torsions:
REMARK  status: ('A' for Active; 'I' for Inactive)
REMARK    1  A    between atoms: C4_8  and  O2_2 
REMARK    2  A    between atoms: C1_5  and  C2_6 
ROOT
HETATM    1  O1  UNK     1      -0.568  -0.460   1.906  1.00  0.00    -0.311 OA
HETATM    2  O3  UNK     1       3.100   1.503  -0.564  1.00  0.00    -0.275 OA
HETATM    3  O4  UNK     1       4.774   2.431  -1.821  1.00  0.00    -0.260 OA
HETATM    4  C2  UNK     1      -1.809  -0.850   1.517  1.00  0.00     0.091 A 
HETATM    5  C3  UNK     1      -0.784  -0.048  -0.305  1.00  0.00     0.035 A 
HETATM    6  C4  UNK     1      -1.993  -0.620   0.173  1.00  0.00     0.111 A 
HETATM    7  C5  UNK     1       0.060   0.029   0.799  1.00  0.00     0.091 A 
HETATM    8  C6  UNK     1      -0.314   0.411  -1.551  1.00  0.00     0.031 A 
HETATM    9  C9  UNK     1       0.988   0.930  -1.633  1.00  0.00    -0.001 A 
HETATM   10  C10 UNK     1       1.356   0.536   0.761  1.00  0.00     0.076 A 
HETATM   11  C11 UNK     1       1.787   0.981  -0.492  1.00  0.00     0.092 A 
HETATM   12  C12 UNK     1       1.531   1.420  -2.891  1.00  0.00     0.020 A 
HETATM   13  C13 UNK     1       2.771   1.910  -2.946  1.00  0.00     0.083 A 
HETATM   14  C14 UNK     1       3.638   1.977  -1.756  1.00  0.00     0.288 A 
ENDROOT
BRANCH   4  15
HETATM   15  C1  UNK     1      -2.667  -1.415   2.569  1.00  0.00     0.038 C 
HETATM   16  C7  UNK     1      -3.064  -2.889   2.306  1.00  0.00     0.016 C 
HETATM   17  C8  UNK     1      -3.950  -0.586   2.821  1.00  0.00     0.016 C 
ENDBRANCH   4  15
BRANCH   6  18
HETATM   18  O2  UNK     1      -3.111  -0.897  -0.513  1.00  0.00    -0.352 OA
HETATM   19  C15 UNK     1      -3.013  -1.818  -1.610  1.00  0.00     0.210 C 
ENDBRANCH   6  18
TORSDOF 2
