REMARK  5 active torsions:
REMARK  status: ('A' for Active; 'I' for Inactive)
REMARK    1  A    between atoms: C11_19  and  N1_5 
REMARK    2  A    between atoms: C4_12  and  N1_5 
REMARK    3  A    between atoms: C11_19  and  N2_6 
REMARK    4  A    between atoms: N2_6  and  N3_7 
REMARK       I    between atoms: C13_21  and  N3_7 
REMARK    5  A    between atoms: C12_20  and  C13_21 
ROOT
HETATM    1  N1  UNK     1      -0.097  -0.353  -1.015  1.00  0.00    -0.332 N 
HETATM    2  H8  UNK     1       0.882  -0.186  -0.793  1.00  0.00     0.168 HD
ENDROOT
BRANCH   1   3
HETATM    3  C11 UNK     1      -0.413  -0.073  -2.357  1.00  0.00     0.191 C 
HETATM    4  S1  UNK     1      -1.648  -0.699  -3.300  1.00  0.00    -0.039 SA
BRANCH   3   5
HETATM    5  N2  UNK     1       0.443   0.840  -2.965  1.00  0.00    -0.273 N 
HETATM    6  H9  UNK     1       0.314   1.128  -3.929  1.00  0.00     0.189 HD
BRANCH   5   7
HETATM    7  N3  UNK     1       1.507   1.396  -2.291  1.00  0.00    -0.264 N 
HETATM    8  C13 UNK     1       2.637   1.747  -3.005  1.00  0.00     0.271 C 
HETATM    9  O3  UNK     1       2.780   1.602  -4.216  1.00  0.00    -0.266 OA
HETATM   10  H10 UNK     1       1.380   1.553  -1.298  1.00  0.00     0.190 HD
BRANCH   8  11
HETATM   11  C12 UNK     1       3.745   2.326  -2.204  1.00  0.00     0.051 A 
HETATM   12  C14 UNK     1       3.469   2.988  -1.032  1.00  0.00     0.020 A 
HETATM   13  C16 UNK     1       4.527   3.520  -0.304  1.00  0.00     0.020 A 
HETATM   14  C17 UNK     1       5.809   3.352  -0.804  1.00  0.00     0.116 A 
HETATM   15  N4  UNK     1       6.092   2.703  -1.955  1.00  0.00    -0.272 NA
HETATM   16  C15 UNK     1       5.038   2.199  -2.636  1.00  0.00     0.133 A 
ENDBRANCH   8  11
ENDBRANCH   5   7
ENDBRANCH   3   5
ENDBRANCH   1   3
BRANCH   1  17
HETATM   17  C4  UNK     1      -0.841  -0.742   0.100  1.00  0.00     0.037 A 
HETATM   18  C6  UNK     1      -2.219  -0.899  -0.000  1.00  0.00     0.067 A 
HETATM   19  C2  UNK     1      -2.944  -1.290   1.127  1.00  0.00     0.092 A 
HETATM   20  C1  UNK     1      -2.334  -1.530   2.359  1.00  0.00     0.004 A 
HETATM   21  O1  UNK     1      -4.336  -1.433   0.963  1.00  0.00    -0.275 OA
HETATM   22  C3  UNK     1      -3.174  -1.938   3.493  1.00  0.00    -0.043 A 
HETATM   23  C5  UNK     1      -0.944  -1.366   2.439  1.00  0.00     0.017 A 
HETATM   24  C8  UNK     1      -4.495  -2.066   3.308  1.00  0.00     0.090 A 
HETATM   25  C9  UNK     1      -2.548  -2.203   4.831  1.00  0.00     0.049 C 
HETATM   26  C10 UNK     1      -5.154  -1.816   2.015  1.00  0.00     0.288 A 
HETATM   27  O2  UNK     1      -6.366  -1.944   1.883  1.00  0.00    -0.260 OA
HETATM   28  C7  UNK     1      -0.204  -0.975   1.318  1.00  0.00     0.030 A 
ENDBRANCH   1  17
TORSDOF 5
