REMARK  2 active torsions:
REMARK  status: ('A' for Active; 'I' for Inactive)
REMARK    1  A    between atoms: C4_9  and  N1_4 
REMARK    2  A    between atoms: C10_15  and  N2_5 
ROOT
HETATM    1  O1  UNK     1      -3.329  -1.554   2.630  1.00  0.00    -0.275 OA
HETATM    2  O2  UNK     1      -5.479  -2.337   2.743  1.00  0.00    -0.260 OA
HETATM    3  C1  UNK     1      -2.316  -1.186   0.448  1.00  0.00     0.000 A 
HETATM    4  C2  UNK     1      -2.233  -1.156   1.838  1.00  0.00     0.089 A 
HETATM    5  C3  UNK     1      -1.210  -0.783  -0.303  1.00  0.00     0.047 A 
HETATM    6  C4  UNK     1      -0.044  -0.359   0.342  1.00  0.00     0.080 A 
HETATM    7  C5  UNK     1      -1.078  -0.736   2.494  1.00  0.00     0.040 A 
HETATM    8  C6  UNK     1       0.021  -0.337   1.737  1.00  0.00     0.036 A 
HETATM    9  C7  UNK     1      -3.552  -1.635  -0.171  1.00  0.00     0.020 A 
HETATM   10  C8  UNK     1      -4.585  -2.011   0.587  1.00  0.00     0.083 A 
HETATM   11  C9  UNK     1      -4.521  -1.988   2.060  1.00  0.00     0.288 A 
ENDROOT
BRANCH   6  12
HETATM   12  N1  UNK     1       1.063   0.043  -0.413  1.00  0.00    -0.150 NA
HETATM   13  N2  UNK     1       0.999   1.273  -0.643  1.00  0.00    -0.150 NA
BRANCH  13  14
HETATM   14  C10 UNK     1       2.110   1.678  -1.402  1.00  0.00     0.079 A 
HETATM   15  C11 UNK     1       2.043   1.655  -2.792  1.00  0.00     0.035 A 
HETATM   16  C13 UNK     1       3.147   2.056  -3.545  1.00  0.00     0.026 A 
HETATM   17  C15 UNK     1       4.312   2.479  -2.905  1.00  0.00     0.034 A 
HETATM   18  C14 UNK     1       4.373   2.500  -1.511  1.00  0.00     0.026 A 
HETATM   19 Cl1  UNK     1       5.673   2.975  -3.834  1.00  0.00    -0.084 Cl
HETATM   20  C12 UNK     1       3.270   2.099  -0.758  1.00  0.00     0.035 A 
ENDBRANCH  13  14
ENDBRANCH   6  12
TORSDOF 2
