REMARK  11 active torsions:
REMARK  status: ('A' for Active; 'I' for Inactive)
REMARK    1  A    between atoms: C6_14  and  O2_2 
REMARK    2  A    between atoms: C9_17  and  O3_3 
REMARK    3  A    between atoms: C14_22  and  O4_4 
REMARK    4  A    between atoms: C15_23  and  O5_5 
REMARK    5  A    between atoms: C19_27  and  O7_7 
REMARK    6  A    between atoms: C4_12  and  C5_13 
REMARK    7  A    between atoms: C13_21  and  C5_13 
REMARK    8  A    between atoms: C16_24  and  C8_16 
REMARK    9  A    between atoms: C16_24  and  C21_29 
REMARK   10  A    between atoms: C18_26  and  C22_30 
REMARK   11  A    between atoms: C23_31  and  C25_33 
ROOT
HETATM    1  O1  UNK     1      -3.271  -0.763  -1.637  1.00  0.00    -0.335 OA
HETATM    2  C1  UNK     1      -4.151  -0.003  -2.494  1.00  0.00     0.078 A 
HETATM    3  C2  UNK     1      -1.920  -0.665  -1.812  1.00  0.00     0.100 A 
HETATM    4  C3  UNK     1      -1.323   0.135  -2.788  1.00  0.00     0.032 A 
HETATM    5  C4  UNK     1       0.862  -0.589  -2.026  1.00  0.00     0.015 A 
HETATM    6  C6  UNK     1       0.073   0.170  -2.892  1.00  0.00     0.088 A 
HETATM    7  C7  UNK     1      -3.477   0.852  -3.542  1.00  0.00     0.012 A 
HETATM    8  C8  UNK     1      -1.128  -1.424  -0.947  1.00  0.00     0.082 A 
HETATM    9  C9  UNK     1       0.261  -1.386  -1.054  1.00  0.00     0.092 A 
HETATM   10  C10 UNK     1      -2.152   0.921  -3.685  1.00  0.00     0.016 A 
HETATM   11  C11 UNK     1      -5.066  -1.021  -3.184  1.00  0.00     0.051 C 
HETATM   12  C12 UNK     1      -4.984   0.893  -1.570  1.00  0.00     0.051 C 
ENDROOT
BRANCH   5  13
HETATM   13  C5  UNK     1       2.353  -0.548  -2.141  1.00  0.00     0.088 C 
BRANCH  13  14
HETATM   14  C13 UNK     1       2.972   0.723  -1.599  1.00  0.00     0.014 A 
HETATM   15  C14 UNK     1       3.439   1.682  -2.483  1.00  0.00     0.083 A 
HETATM   16  C17 UNK     1       4.009   2.853  -1.984  1.00  0.00     0.006 A 
HETATM   17  C19 UNK     1       4.105   3.049  -0.606  1.00  0.00     0.091 A 
HETATM   18  C20 UNK     1       4.518   3.897  -2.925  1.00  0.00     0.054 C 
HETATM   19  C18 UNK     1       3.631   2.075   0.272  1.00  0.00     0.077 A 
HETATM   20  C15 UNK     1       3.060   0.904  -0.228  1.00  0.00     0.091 A 
BRANCH  15  21
HETATM   21  O4  UNK     1       3.345   1.490  -3.831  1.00  0.00    -0.359 OA
HETATM   22  H17 UNK     1       4.052   1.974  -4.287  1.00  0.00     0.217 HD
ENDBRANCH  15  21
BRANCH  17  23
HETATM   23  O7  UNK     1       4.664   4.196  -0.121  1.00  0.00    -0.359 OA
HETATM   24  H23 UNK     1       5.312   4.544  -0.753  1.00  0.00     0.217 HD
ENDBRANCH  17  23
BRANCH  19  25
HETATM   25  C22 UNK     1       3.731   2.280   1.713  1.00  0.00     0.161 C 
HETATM   26  O8  UNK     1       4.732   1.904   2.351  1.00  0.00    -0.293 OA
HETATM   27  C24 UNK     1       2.600   2.964   2.468  1.00  0.00     0.097 C 
ENDBRANCH  19  25
BRANCH  20  28
HETATM   28  O5  UNK     1       2.595  -0.051   0.629  1.00  0.00    -0.359 OA
HETATM   29  H18 UNK     1       2.743   0.208   1.552  1.00  0.00     0.217 HD
ENDBRANCH  20  28
ENDBRANCH  13  14
ENDBRANCH   5  13
BRANCH   6  30
HETATM   30  O2  UNK     1       0.685   0.945  -3.837  1.00  0.00    -0.359 OA
HETATM   31  H11 UNK     1       1.514   0.535  -4.126  1.00  0.00     0.217 HD
ENDBRANCH   6  30
BRANCH   9  32
HETATM   32  O3  UNK     1       1.036  -2.127  -0.210  1.00  0.00    -0.359 OA
HETATM   33  H12 UNK     1       0.489  -2.667   0.383  1.00  0.00     0.217 HD
ENDBRANCH   9  32
BRANCH   8  34
HETATM   34  C16 UNK     1      -1.748  -2.262   0.076  1.00  0.00     0.187 C 
HETATM   35  O6  UNK     1      -2.070  -3.431  -0.176  1.00  0.00    -0.287 OA
BRANCH  34  36
HETATM   36  C21 UNK     1      -2.013  -1.664   1.426  1.00  0.00     0.056 C 
HETATM   37  C23 UNK     1      -2.605  -2.389   2.386  1.00  0.00     0.015 C 
BRANCH  37  38
HETATM   38  C25 UNK     1      -2.921  -1.889   3.735  1.00  0.00    -0.036 A 
HETATM   39  C26 UNK     1      -2.255  -0.775   4.219  1.00  0.00     0.011 A 
HETATM   40  C28 UNK     1      -2.554  -0.301   5.497  1.00  0.00     0.001 A 
HETATM   41  C30 UNK     1      -3.514  -0.948   6.273  1.00  0.00     0.000 A 
HETATM   42  C29 UNK     1      -4.177  -2.069   5.772  1.00  0.00     0.001 A 
HETATM   43  C27 UNK     1      -3.878  -2.543   4.495  1.00  0.00     0.011 A 
ENDBRANCH  37  38
ENDBRANCH  34  36
ENDBRANCH   8  34
TORSDOF 11
