REMARK  3 active torsions:
REMARK  status: ('A' for Active; 'I' for Inactive)
REMARK    1  A    between atoms: C20_25  and  O3_3 
REMARK    2  A    between atoms: C21_26  and  O3_3 
REMARK    3  A    between atoms: C18_23  and  C20_25 
ROOT
HETATM    1  O1  UNK     1       1.395   0.972   0.538  1.00  0.00    -0.273 OA
HETATM    2  O2  UNK     1       3.259   2.124  -0.113  1.00  0.00    -0.259 OA
HETATM    3  N1  UNK     1      -2.653  -1.373   1.972  1.00  0.00    -0.380 N 
HETATM    4  C1  UNK     1      -0.070  -0.237   2.750  1.00  0.00    -0.014 C 
HETATM    5  C2  UNK     1      -3.594  -1.541  -0.791  1.00  0.00    -0.017 C 
HETATM    6  C3  UNK     1      -1.831  -0.858   0.970  1.00  0.00     0.047 A 
HETATM    7  C4  UNK     1      -0.568  -0.268   1.290  1.00  0.00     0.012 A 
HETATM    8  C5  UNK     1      -2.250  -0.909  -0.394  1.00  0.00    -0.022 A 
HETATM    9  C6  UNK     1      -0.886  -1.225   3.617  1.00  0.00     0.033 C 
HETATM   10  C7  UNK     1      -4.525  -1.615   0.437  1.00  0.00     0.033 C 
HETATM   11  C8  UNK     1      -2.373  -1.095   3.369  1.00  0.00     0.124 C 
HETATM   12  C9  UNK     1      -3.811  -2.189   1.645  1.00  0.00     0.124 C 
HETATM   13  C10 UNK     1       0.189   0.294   0.238  1.00  0.00     0.099 A 
HETATM   14  C11 UNK     1      -0.219   1.194   3.309  1.00  0.00     0.020 C 
HETATM   15  C12 UNK     1       1.405  -0.684   2.904  1.00  0.00     0.020 C 
HETATM   16  C13 UNK     1      -3.332  -2.952  -1.357  1.00  0.00     0.020 C 
HETATM   17  C14 UNK     1      -4.347  -0.717  -1.863  1.00  0.00     0.020 C 
HETATM   18  C15 UNK     1      -1.414  -0.391  -1.402  1.00  0.00     0.024 A 
HETATM   19  C16 UNK     1      -0.209   0.228  -1.092  1.00  0.00     0.000 A 
HETATM   20  C17 UNK     1       0.633   0.802  -2.133  1.00  0.00     0.038 A 
HETATM   21  C18 UNK     1       1.776   1.423  -1.822  1.00  0.00     0.115 A 
HETATM   22  C19 UNK     1       2.222   1.549  -0.421  1.00  0.00     0.304 A 
ENDROOT
BRANCH  21  23
HETATM   23  C20 UNK     1       2.551   1.968  -2.942  1.00  0.00     0.299 C 
HETATM   24  O4  UNK     1       2.048   2.366  -3.980  1.00  0.00    -0.259 OA
BRANCH  23  25
HETATM   25  O3  UNK     1       3.866   1.944  -2.611  1.00  0.00    -0.318 OA
BRANCH  25  26
HETATM   26  C21 UNK     1       4.758   2.449  -3.610  1.00  0.00     0.174 C 
HETATM   27  C22 UNK     1       6.178   2.356  -3.096  1.00  0.00     0.034 C 
ENDBRANCH  25  26
ENDBRANCH  23  25
ENDBRANCH  21  23
TORSDOF 3
