REMARK  4 active torsions:
REMARK  status: ('A' for Active; 'I' for Inactive)
REMARK    1  A    between atoms: C12_16  and  O2_2 
REMARK    2  A    between atoms: C4_8  and  O2_2 
REMARK    3  A    between atoms: C12_16  and  C13_17 
REMARK    4  A    between atoms: C13_17  and  C14_18 
ROOT
HETATM    1  O1  UNK     1      -2.475  -0.818   2.723  1.00  0.00    -0.274 OA
HETATM    2  O3  UNK     1      -4.216  -0.858   4.204  1.00  0.00    -0.260 OA
HETATM    3  C1  UNK     1      -2.873  -1.439   0.394  1.00  0.00     0.005 A 
HETATM    4  C2  UNK     1      -2.010  -1.019   1.408  1.00  0.00     0.099 A 
HETATM    5  C3  UNK     1      -0.655  -0.776   1.180  1.00  0.00     0.006 A 
HETATM    6  C4  UNK     1      -0.138  -0.956  -0.099  1.00  0.00     0.078 A 
HETATM    7  C5  UNK     1      -4.286  -1.671   0.724  1.00  0.00    -0.043 A 
HETATM    8  C6  UNK     1      -2.333  -1.615  -0.887  1.00  0.00     0.017 A 
HETATM    9  C7  UNK     1      -0.976  -1.375  -1.131  1.00  0.00     0.038 A 
HETATM   10  C8  UNK     1       0.236  -0.326   2.292  1.00  0.00     0.054 C 
HETATM   11  C9  UNK     1      -4.700  -1.472   1.983  1.00  0.00     0.090 A 
HETATM   12  C10 UNK     1      -5.238  -2.123  -0.344  1.00  0.00     0.049 C 
HETATM   13  C11 UNK     1      -3.802  -1.029   3.063  1.00  0.00     0.288 A 
ENDROOT
BRANCH   6  14
HETATM   14  O2  UNK     1       1.179  -0.728  -0.360  1.00  0.00    -0.343 OA
BRANCH  14  15
HETATM   15  C12 UNK     1       1.483   0.271  -1.332  1.00  0.00     0.259 C 
BRANCH  15  16
HETATM   16  C13 UNK     1       2.821   0.911  -1.018  1.00  0.00     0.183 C 
HETATM   17  O4  UNK     1       3.474   0.589  -0.028  1.00  0.00    -0.290 OA
BRANCH  16  18
HETATM   18  C14 UNK     1       3.347   1.960  -1.938  1.00  0.00     0.012 A 
HETATM   19  C15 UNK     1       2.599   2.308  -3.040  1.00  0.00     0.015 A 
HETATM   20  C17 UNK     1       3.092   3.289  -3.901  1.00  0.00     0.001 A 
HETATM   21  C19 UNK     1       4.320   3.896  -3.637  1.00  0.00     0.000 A 
HETATM   22  C18 UNK     1       5.055   3.521  -2.512  1.00  0.00     0.001 A 
HETATM   23  C16 UNK     1       4.562   2.541  -1.651  1.00  0.00     0.015 A 
ENDBRANCH  16  18
ENDBRANCH  15  16
ENDBRANCH  14  15
ENDBRANCH   6  14
TORSDOF 4
