REMARK  5 active torsions:
REMARK  status: ('A' for Active; 'I' for Inactive)
REMARK    1  A    between atoms: C16_22  and  O2_3 
REMARK    2  A    between atoms: C14_20  and  N1_5 
REMARK    3  A    between atoms: C4_10  and  N1_5 
REMARK    4  A    between atoms: C14_20  and  N2_6 
REMARK    5  A    between atoms: C8_14  and  N2_6 
ROOT
HETATM    1  N1  UNK     1      -1.376  -0.534  -2.416  1.00  0.00    -0.333 N 
HETATM    2  H4  UNK     1      -1.964  -0.680  -3.235  1.00  0.00     0.168 HD
ENDROOT
BRANCH   1   3
HETATM    3  C14 UNK     1      -0.163   0.100  -2.717  1.00  0.00     0.176 C 
HETATM    4  S1  UNK     1       0.189   0.367  -4.344  1.00  0.00    -0.041 SA
BRANCH   3   5
HETATM    5  N2  UNK     1       0.568   0.547  -1.631  1.00  0.00    -0.333 N 
HETATM    6  H9  UNK     1      -0.005   0.737  -0.819  1.00  0.00     0.168 HD
BRANCH   5   7
HETATM    7  C8  UNK     1       1.814   1.218  -1.559  1.00  0.00     0.040 A 
HETATM    8  C13 UNK     1       2.804   0.868  -2.463  1.00  0.00     0.033 A 
HETATM    9  C17 UNK     1       4.038   1.516  -2.408  1.00  0.00     0.039 A 
HETATM   10  C16 UNK     1       4.264   2.504  -1.450  1.00  0.00     0.068 A 
HETATM   11  C12 UNK     1       3.257   2.845  -0.548  1.00  0.00     0.045 A 
HETATM   12  C9  UNK     1       2.023   2.197  -0.603  1.00  0.00    -0.033 A 
HETATM   13  C18 UNK     1       0.962   2.582   0.377  1.00  0.00     0.050 C 
BRANCH  10  14
HETATM   14  O2  UNK     1       5.469   3.136  -1.397  1.00  0.00    -0.356 OA
HETATM   15  C19 UNK     1       6.454   2.739  -2.350  1.00  0.00     0.210 C 
ENDBRANCH  10  14
ENDBRANCH   5   7
ENDBRANCH   3   5
ENDBRANCH   1   3
BRANCH   1  16
HETATM   16  C4  UNK     1      -2.009  -0.810  -1.204  1.00  0.00     0.036 A 
HETATM   17  C5  UNK     1      -1.256  -0.983  -0.047  1.00  0.00     0.067 A 
HETATM   18  C2  UNK     1      -1.910  -1.258   1.155  1.00  0.00     0.092 A 
HETATM   19  C1  UNK     1      -3.299  -1.367   1.241  1.00  0.00     0.004 A 
HETATM   20  O1  UNK     1      -1.094  -1.423   2.293  1.00  0.00    -0.275 OA
HETATM   21  C3  UNK     1      -3.902  -1.658   2.548  1.00  0.00    -0.043 A 
HETATM   22  C6  UNK     1      -4.039  -1.189   0.064  1.00  0.00     0.017 A 
HETATM   23  C10 UNK     1      -3.102  -1.811   3.613  1.00  0.00     0.090 A 
HETATM   24  C11 UNK     1      -5.393  -1.781   2.674  1.00  0.00     0.049 C 
HETATM   25  C15 UNK     1      -1.636  -1.699   3.539  1.00  0.00     0.288 A 
HETATM   26  O3  UNK     1      -0.935  -1.844   4.535  1.00  0.00    -0.260 OA
HETATM   27  C7  UNK     1      -3.398  -0.913  -1.149  1.00  0.00     0.030 A 
ENDBRANCH   1  16
TORSDOF 5
