REMARK  9 active torsions:
REMARK  status: ('A' for Active; 'I' for Inactive)
REMARK    1  A    between atoms: C2_9  and  O1_1 
REMARK    2  A    between atoms: C3_10  and  O2_2 
REMARK    3  A    between atoms: C4_11  and  O3_3 
REMARK    4  A    between atoms: C13_20  and  O4_4 
REMARK    5  A    between atoms: C19_26  and  O4_4 
REMARK       I    between atoms: C20_27  and  N1_7 
REMARK    6  A    between atoms: C1_8  and  C7_14 
REMARK    7  A    between atoms: C7_14  and  C9_16 
REMARK    8  A    between atoms: C10_17  and  C8_15 
REMARK    9  A    between atoms: C19_26  and  C20_27 
ROOT
HETATM    1  C9  UNK     1      -0.636   2.166  -1.422  1.00  0.00     0.056 C 
HETATM    2  C10 UNK     1       0.187   1.294  -2.048  1.00  0.00     0.015 C 
ENDROOT
BRANCH   1   3
HETATM    3  C7  UNK     1      -1.471   1.719  -0.272  1.00  0.00     0.182 C 
HETATM    4  O5  UNK     1      -2.695   1.781  -0.281  1.00  0.00    -0.288 OA
BRANCH   3   5
HETATM    5  C1  UNK     1      -0.772   1.151   0.906  1.00  0.00     0.019 A 
HETATM    6  C5  UNK     1      -1.404   0.189   1.694  1.00  0.00     0.055 A 
HETATM    7  C3  UNK     1      -0.748  -0.345   2.803  1.00  0.00     0.105 A 
HETATM    8  C2  UNK     1       0.540   0.084   3.124  1.00  0.00     0.135 A 
HETATM    9  C4  UNK     1       1.172   1.047   2.337  1.00  0.00     0.105 A 
HETATM   10  C6  UNK     1       0.515   1.580   1.227  1.00  0.00     0.055 A 
BRANCH   7  11
HETATM   11  O2  UNK     1      -1.375  -1.286   3.563  1.00  0.00    -0.353 OA
HETATM   12  C17 UNK     1      -2.690  -1.668   3.165  1.00  0.00     0.210 C 
ENDBRANCH   7  11
BRANCH   8  13
HETATM   13  O1  UNK     1       1.181  -0.436   4.209  1.00  0.00    -0.351 OA
HETATM   14  C16 UNK     1       1.975  -1.601   3.994  1.00  0.00     0.210 C 
ENDBRANCH   8  13
BRANCH   9  15
HETATM   15  O3  UNK     1       2.430   1.473   2.639  1.00  0.00    -0.353 OA
HETATM   16  C18 UNK     1       3.003   2.460   1.783  1.00  0.00     0.210 C 
ENDBRANCH   9  15
ENDBRANCH   3   5
ENDBRANCH   1   3
BRANCH   2  17
HETATM   17  C8  UNK     1       0.349  -0.107  -1.695  1.00  0.00    -0.036 A 
HETATM   18  C11 UNK     1      -0.747  -0.969  -1.741  1.00  0.00     0.014 A 
HETATM   19  C14 UNK     1      -0.591  -2.314  -1.404  1.00  0.00     0.037 A 
HETATM   20  C13 UNK     1       0.661  -2.796  -1.021  1.00  0.00     0.069 A 
HETATM   21  C15 UNK     1       1.756  -1.934  -0.975  1.00  0.00     0.037 A 
HETATM   22  C12 UNK     1       1.600  -0.590  -1.312  1.00  0.00     0.014 A 
BRANCH  20  23
HETATM   23  O4  UNK     1       0.813  -4.108  -0.693  1.00  0.00    -0.342 OA
BRANCH  23  24
HETATM   24  C19 UNK     1       1.823  -4.425   0.264  1.00  0.00     0.278 C 
BRANCH  24  25
HETATM   25  C20 UNK     1       1.416  -5.657   1.037  1.00  0.00     0.239 C 
HETATM   26  O6  UNK     1       0.366  -6.264   0.847  1.00  0.00    -0.271 OA
HETATM   27  N1  UNK     1       2.356  -6.020   1.978  1.00  0.00    -0.368 N 
HETATM   28  H20 UNK     1       3.216  -5.499   2.115  1.00  0.00     0.159 HD
HETATM   29  H21 UNK     1       2.214  -6.831   2.571  1.00  0.00     0.159 HD
ENDBRANCH  24  25
ENDBRANCH  23  24
ENDBRANCH  20  23
ENDBRANCH   2  17
TORSDOF 9
