REMARK  2 active torsions:
REMARK  status: ('A' for Active; 'I' for Inactive)
REMARK       I    between atoms: C6_11  and  N1_5 
REMARK    1  A    between atoms: C9_14  and  N1_5 
REMARK    2  A    between atoms: C2_7  and  C6_11 
ROOT
HETATM    1  O1  UNK     1       2.817   1.134   0.097  1.00  0.00    -0.274 OA
HETATM    2  O3  UNK     1       1.434  -0.049   1.479  1.00  0.00    -0.259 OA
HETATM    3  C1  UNK     1       2.151   1.543  -2.204  1.00  0.00    -0.001 A 
HETATM    4  C2  UNK     1       0.681   0.290  -0.742  1.00  0.00     0.108 A 
HETATM    5  C3  UNK     1       3.073   1.686  -1.173  1.00  0.00     0.089 A 
HETATM    6  C4  UNK     1       0.919   0.813  -1.951  1.00  0.00     0.037 A 
HETATM    7  C5  UNK     1       2.441   2.106  -3.450  1.00  0.00     0.014 A 
HETATM    8  C7  UNK     1       1.647   0.430   0.370  1.00  0.00     0.304 A 
HETATM    9  C8  UNK     1       4.272   2.373  -1.350  1.00  0.00     0.038 A 
HETATM   10  C10 UNK     1       3.640   2.798  -3.643  1.00  0.00     0.001 A 
HETATM   11  C11 UNK     1       4.554   2.931  -2.595  1.00  0.00     0.003 A 
ENDROOT
BRANCH   4  12
HETATM   12  C6  UNK     1      -0.589  -0.429  -0.585  1.00  0.00     0.262 C 
HETATM   13  O2  UNK     1      -1.090  -1.000  -1.551  1.00  0.00    -0.267 OA
HETATM   14  N1  UNK     1      -1.075  -0.355   0.713  1.00  0.00    -0.323 N 
HETATM   15  H4  UNK     1      -0.546   0.180   1.398  1.00  0.00     0.169 HD
BRANCH  14  16
HETATM   16  C9  UNK     1      -2.266  -0.926   1.223  1.00  0.00     0.035 A 
HETATM   17  C12 UNK     1      -3.084  -1.654   0.376  1.00  0.00     0.032 A 
HETATM   18  C14 UNK     1      -4.258  -2.215   0.878  1.00  0.00     0.044 A 
HETATM   19  C16 UNK     1      -4.597  -2.040   2.220  1.00  0.00     0.116 A 
HETATM   20  C15 UNK     1      -3.761  -1.304   3.060  1.00  0.00     0.044 A 
HETATM   21  F1  UNK     1      -5.724  -2.580   2.702  1.00  0.00    -0.206 F 
HETATM   22  C13 UNK     1      -2.587  -0.742   2.558  1.00  0.00     0.032 A 
ENDBRANCH  14  16
ENDBRANCH   4  12
TORSDOF 2
