REMARK  1 active torsions:
REMARK  status: ('A' for Active; 'I' for Inactive)
REMARK       I    between atoms: C13_21  and  N1_6 
REMARK    1  A    between atoms: C9_17  and  N2_7 
ROOT
HETATM    1  O1  UNK     1      -2.442  -0.809  -1.108  1.00  0.00    -0.291 OA
HETATM    2  O2  UNK     1      -0.882  -0.568   2.758  1.00  0.00    -0.274 OA
HETATM    3  O3  UNK     1      -0.424   2.704  -0.474  1.00  0.00    -0.271 OA
HETATM    4  O4  UNK     1       0.997   0.435   1.976  1.00  0.00    -0.259 OA
HETATM    5  O5  UNK     1       3.818   3.367  -0.485  1.00  0.00    -0.273 OA
HETATM    6  N1  UNK     1       1.876   2.044  -0.626  1.00  0.00    -0.251 N 
HETATM    7  N3  UNK     1       0.554   1.113  -4.336  1.00  0.00    -0.191 NA
HETATM    8  C1  UNK     1       0.168   0.352  -0.838  1.00  0.00     0.148 A 
HETATM    9  C2  UNK     1       1.555  -0.232  -0.912  1.00  0.00    -0.003 A 
HETATM   10  C3  UNK     1      -0.644  -0.161   0.342  1.00  0.00     0.080 A 
HETATM   11  C4  UNK     1       0.451   1.859  -0.619  1.00  0.00     0.255 A 
HETATM   12  C5  UNK     1       2.513   0.781  -0.800  1.00  0.00     0.053 A 
HETATM   13  C6  UNK     1      -0.573   0.232  -2.171  1.00  0.00     0.100 A 
HETATM   14  C7  UNK     1      -1.860  -0.697   0.140  1.00  0.00     0.105 A 
HETATM   15  C8  UNK     1       1.917  -1.563  -1.078  1.00  0.00     0.011 A 
HETATM   16  C9  UNK     1      -1.802  -0.326  -2.243  1.00  0.00     0.160 A 
HETATM   17  C10 UNK     1      -0.095  -0.064   1.728  1.00  0.00     0.299 A 
HETATM   18  C11 UNK     1       3.864   0.468  -0.857  1.00  0.00     0.031 A 
HETATM   19  C12 UNK     1      -2.667  -1.210   1.246  1.00  0.00     0.033 A 
HETATM   20  C13 UNK     1       2.592   3.247  -0.472  1.00  0.00     0.227 C 
HETATM   21  C14 UNK     1       3.272  -1.879  -1.133  1.00  0.00     0.001 A 
HETATM   22  C15 UNK     1      -2.149  -1.132   2.532  1.00  0.00     0.092 A 
HETATM   23  C16 UNK     1       4.238  -0.871  -1.024  1.00  0.00     0.002 A 
HETATM   24  C17 UNK     1       0.050   0.720  -3.368  1.00  0.00     0.101 C 
HETATM   25  C18 UNK     1      -3.937  -1.779   1.082  1.00  0.00     0.017 A 
HETATM   26  C19 UNK     1       1.745   4.479  -0.268  1.00  0.00     0.118 C 
HETATM   27  C20 UNK     1      -2.847  -1.598   3.646  1.00  0.00     0.038 A 
HETATM   28  C21 UNK     1      -4.652  -2.252   2.187  1.00  0.00     0.001 A 
HETATM   29  C22 UNK     1      -4.107  -2.161   3.468  1.00  0.00     0.003 A 
ENDROOT
BRANCH  16  30
HETATM   30  N2  UNK     1      -2.534  -0.478  -3.389  1.00  0.00    -0.379 N 
HETATM   31  H6  UNK     1      -2.176  -0.166  -4.282  1.00  0.00     0.158 HD
HETATM   32  H7  UNK     1      -3.447  -0.911  -3.330  1.00  0.00     0.158 HD
ENDBRANCH  16  30
TORSDOF 1
