REMARK  2 active torsions:
REMARK  status: ('A' for Active; 'I' for Inactive)
REMARK    1  A    between atoms: N1_5  and  O4_4 
REMARK    2  A    between atoms: C12_17  and  C8_13 
ROOT
HETATM    1  O1  UNK     1       1.826   0.996   0.072  1.00  0.00    -0.307 OA
HETATM    2  O2  UNK     1      -1.883  -1.014   2.415  1.00  0.00    -0.274 OA
HETATM    3  O3  UNK     1      -3.673  -1.977   3.462  1.00  0.00    -0.260 OA
HETATM    4  C1  UNK     1       0.020   0.284  -1.081  1.00  0.00     0.008 A 
HETATM    5  C2  UNK     1       0.600   0.410   0.175  1.00  0.00     0.095 A 
HETATM    6  C3  UNK     1      -0.001  -0.009   1.357  1.00  0.00     0.008 A 
HETATM    7  C4  UNK     1      -1.915  -0.746  -0.015  1.00  0.00     0.005 A 
HETATM    8  C5  UNK     1       0.958   0.830  -1.996  1.00  0.00    -0.013 A 
HETATM    9  C6  UNK     1      -1.269  -0.587   1.215  1.00  0.00     0.099 A 
HETATM   10  C7  UNK     1      -1.259  -0.303  -1.180  1.00  0.00     0.029 A 
HETATM   11  C8  UNK     1       2.034   1.247  -1.247  1.00  0.00     0.109 A 
HETATM   12  C9  UNK     1      -3.248  -1.368  -0.034  1.00  0.00    -0.043 A 
HETATM   13  C10 UNK     1       0.650   0.141   2.688  1.00  0.00     0.054 C 
HETATM   14  C11 UNK     1       0.809   0.930  -3.461  1.00  0.00     0.052 C 
HETATM   15  C13 UNK     1      -3.801  -1.762   1.121  1.00  0.00     0.090 A 
HETATM   16  C14 UNK     1      -3.969  -1.554  -1.337  1.00  0.00     0.049 C 
HETATM   17  C15 UNK     1      -3.137  -1.603   2.425  1.00  0.00     0.288 A 
ENDROOT
BRANCH  11  18
HETATM   18  C12 UNK     1       3.263   1.864  -1.616  1.00  0.00     0.092 C 
HETATM   19  N1  UNK     1       3.526   2.098  -2.891  1.00  0.00    -0.139 NA
HETATM   20  C16 UNK     1       4.302   2.226  -0.538  1.00  0.00     0.076 C 
BRANCH  19  21
HETATM   21  O4  UNK     1       4.764   2.706  -3.102  1.00  0.00    -0.266 OA
HETATM   22  H15 UNK     1       4.776   2.794  -4.070  1.00  0.00     0.247 HD
ENDBRANCH  19  21
ENDBRANCH  11  18
TORSDOF 2
