REMARK  3 active torsions:
REMARK  status: ('A' for Active; 'I' for Inactive)
REMARK    1  A    between atoms: C5_13  and  N1_7 
REMARK    2  A    between atoms: C10_18  and  N2_8 
REMARK    3  A    between atoms: C1_9  and  C2_10 
ROOT
HETATM    1  C1  UNK     1      -0.835  -0.337  -0.112  1.00  0.00     0.013 A 
HETATM    2  C5  UNK     1      -0.997  -0.383   1.274  1.00  0.00     0.116 A 
HETATM    3  C7  UNK     1      -1.875  -0.754  -0.946  1.00  0.00     0.017 A 
HETATM    4  C9  UNK     1      -2.193  -0.845   1.824  1.00  0.00     0.073 A 
HETATM    5  C10 UNK     1      -3.230  -1.261   0.989  1.00  0.00     0.105 A 
HETATM    6  C11 UNK     1      -3.070  -1.216  -0.396  1.00  0.00     0.037 A 
ENDROOT
BRANCH   1   7
HETATM    7  C2  UNK     1       0.412   0.143  -0.736  1.00  0.00     0.053 A 
HETATM    8  C4  UNK     1       0.535   1.448  -1.024  1.00  0.00     0.032 A 
HETATM    9  C3  UNK     1       1.738   1.967  -1.653  1.00  0.00    -0.001 A 
HETATM   10  C12 UNK     1       1.896   3.321  -1.958  1.00  0.00     0.014 A 
HETATM   11  C6  UNK     1       2.766   1.085  -1.965  1.00  0.00     0.089 A 
HETATM   12  C14 UNK     1       3.073   3.769  -2.566  1.00  0.00     0.001 A 
HETATM   13  C15 UNK     1       4.095   2.867  -2.871  1.00  0.00     0.003 A 
HETATM   14  C13 UNK     1       3.945   1.515  -2.571  1.00  0.00     0.038 A 
HETATM   15  O1  UNK     1       2.643  -0.286  -1.672  1.00  0.00    -0.274 OA
HETATM   16  C8  UNK     1       1.509  -0.811  -1.057  1.00  0.00     0.299 A 
HETATM   17  O2  UNK     1       1.431  -2.006  -0.791  1.00  0.00    -0.259 OA
ENDBRANCH   1   7
BRANCH   2  18
HETATM   18  N1  UNK     1       0.041   0.034   2.155  1.00  0.00    -0.115 N 
HETATM   19  O3  UNK     1      -0.159  -0.028   3.389  1.00  0.00    -0.532 OA
HETATM   20  O4  UNK     1       1.115   0.448   1.661  1.00  0.00    -0.532 OA
ENDBRANCH   2  18
BRANCH   5  21
HETATM   21  N2  UNK     1      -4.448  -1.730   1.548  1.00  0.00    -0.116 N 
HETATM   22  O5  UNK     1      -5.364  -2.098   0.774  1.00  0.00    -0.532 OA
HETATM   23  O6  UNK     1      -4.566  -1.762   2.796  1.00  0.00    -0.532 OA
ENDBRANCH   5  21
TORSDOF 3
