REMARK  2 active torsions:
REMARK  status: ('A' for Active; 'I' for Inactive)
REMARK    1  A    between atoms: C2_7  and  C6_11 
REMARK    2  A    between atoms: C3_8  and  C4_9 
ROOT
HETATM    1  N1  UNK     1      -0.062   0.022   1.160  1.00  0.00    -0.338 N 
HETATM    2  N2  UNK     1      -0.990   0.109  -0.856  1.00  0.00    -0.227 NA
HETATM    3  C1  UNK     1      -1.270  -0.606   1.277  1.00  0.00     0.074 A 
HETATM    4  C2  UNK     1      -1.825  -0.538   0.020  1.00  0.00     0.097 A 
HETATM    5  C3  UNK     1       0.066   0.436  -0.139  1.00  0.00     0.145 A 
HETATM    6  C5  UNK     1      -1.737  -1.171   2.518  1.00  0.00    -0.007 A 
HETATM    7  C11 UNK     1      -1.445  -2.498   2.834  1.00  0.00     0.014 A 
HETATM    8  C12 UNK     1      -2.483  -0.392   3.404  1.00  0.00     0.014 A 
HETATM    9  C17 UNK     1      -1.898  -3.046   4.034  1.00  0.00     0.001 A 
HETATM   10  C18 UNK     1      -2.935  -0.940   4.605  1.00  0.00     0.001 A 
HETATM   11  C23 UNK     1      -2.642  -2.267   4.920  1.00  0.00     0.000 A 
HETATM   12  H1  UNK     1       0.615   0.140   1.903  1.00  0.00     0.167 HD
ENDROOT
BRANCH   5  13
HETATM   13  C4  UNK     1       1.337   1.164  -0.519  1.00  0.00     0.083 A 
HETATM   14  C10 UNK     1       2.025   1.916   0.352  1.00  0.00     0.162 A 
HETATM   15  O1  UNK     1       3.187   2.606   0.110  1.00  0.00    -0.321 OA
HETATM   16  C9  UNK     1       3.732   2.510  -1.145  1.00  0.00     0.089 A 
HETATM   17  C16 UNK     1       4.928   3.190  -1.375  1.00  0.00     0.040 A 
HETATM   18  C8  UNK     1       3.138   1.773  -2.169  1.00  0.00     0.050 A 
HETATM   19  C20 UNK     1       5.529   3.130  -2.633  1.00  0.00     0.026 A 
HETATM   20  C19 UNK     1       4.934   2.393  -3.658  1.00  0.00     0.035 A 
HETATM   21  C15 UNK     1       3.737   1.713  -3.430  1.00  0.00     0.042 A 
HETATM   22 Cl1  UNK     1       5.680   2.325  -5.208  1.00  0.00    -0.084 Cl
HETATM   23  C7  UNK     1       1.871   1.069  -1.904  1.00  0.00     0.200 A 
HETATM   24  O2  UNK     1       1.288   0.456  -2.789  1.00  0.00    -0.286 OA
ENDBRANCH   5  13
BRANCH   4  25
HETATM   25  C6  UNK     1      -3.102  -1.065  -0.356  1.00  0.00    -0.005 A 
HETATM   26  C13 UNK     1      -4.246  -0.269  -0.255  1.00  0.00     0.014 A 
HETATM   27  C21 UNK     1      -5.491  -0.781  -0.621  1.00  0.00     0.001 A 
HETATM   28  C24 UNK     1      -5.595  -2.091  -1.089  1.00  0.00     0.000 A 
HETATM   29  C22 UNK     1      -4.455  -2.889  -1.190  1.00  0.00     0.001 A 
HETATM   30  C14 UNK     1      -3.211  -2.376  -0.824  1.00  0.00     0.014 A 
ENDBRANCH   4  25
TORSDOF 2
