REMARK  5 active torsions:
REMARK  status: ('A' for Active; 'I' for Inactive)
REMARK    1  A    between atoms: C15_25  and  O4_5 
REMARK       I    between atoms: C6_16  and  N1_9 
REMARK    2  A    between atoms: C7_17  and  N1_9 
REMARK    3  A    between atoms: C9_19  and  N2_10 
REMARK    4  A    between atoms: C3_13  and  C6_16 
REMARK    5  A    between atoms: C12_22  and  C15_25 
ROOT
HETATM    1  O1  UNK     1       0.569  -0.208  -2.363  1.00  0.00    -0.274 OA
HETATM    2  O3  UNK     1      -1.019  -1.439  -1.276  1.00  0.00    -0.259 OA
HETATM    3  C1  UNK     1       2.116   1.159  -1.079  1.00  0.00     0.001 A 
HETATM    4  C2  UNK     1       1.654   0.690  -2.304  1.00  0.00     0.089 A 
HETATM    5  C3  UNK     1       0.432  -0.144   0.077  1.00  0.00     0.108 A 
HETATM    6  C4  UNK     1       1.462   0.709   0.140  1.00  0.00     0.037 A 
HETATM    7  C5  UNK     1       3.194   2.048  -1.061  1.00  0.00     0.050 A 
HETATM    8  C8  UNK     1       2.236   1.082  -3.508  1.00  0.00     0.041 A 
HETATM    9  C9  UNK     1       3.788   2.451  -2.260  1.00  0.00     0.103 A 
HETATM   10  C10 UNK     1      -0.077  -0.656  -1.215  1.00  0.00     0.304 A 
HETATM   11  C11 UNK     1       3.310   1.969  -3.481  1.00  0.00     0.039 A 
ENDROOT
BRANCH   5  12
HETATM   12  C6  UNK     1      -0.160  -0.540   1.360  1.00  0.00     0.262 C 
HETATM   13  O2  UNK     1       0.542  -0.583   2.369  1.00  0.00    -0.267 OA
HETATM   14  N1  UNK     1      -1.513  -0.828   1.243  1.00  0.00    -0.321 N 
HETATM   15  H4  UNK     1      -1.954  -0.722   0.335  1.00  0.00     0.169 HD
BRANCH  14  16
HETATM   16  C7  UNK     1      -2.383  -1.235   2.263  1.00  0.00     0.058 A 
HETATM   17  C12 UNK     1      -3.706  -1.499   2.048  1.00  0.00     0.106 A 
HETATM   18  S1  UNK     1      -4.490  -1.974   3.494  1.00  0.00    -0.094 SA
HETATM   19  C14 UNK     1      -3.042  -1.820   4.394  1.00  0.00     0.053 A 
HETATM   20  C13 UNK     1      -1.985  -1.415   3.608  1.00  0.00     0.038 A 
BRANCH  17  21
HETATM   21  C15 UNK     1      -4.474  -1.437   0.844  1.00  0.00     0.302 C 
HETATM   22  O7  UNK     1      -5.688  -1.696   0.729  1.00  0.00    -0.259 OA
BRANCH  21  23
HETATM   23  O4  UNK     1      -3.714  -1.044  -0.239  1.00  0.00    -0.322 OA
HETATM   24  C16 UNK     1      -4.377  -0.944  -1.505  1.00  0.00     0.213 C 
ENDBRANCH  21  23
ENDBRANCH  17  21
ENDBRANCH  14  16
ENDBRANCH   5  12
BRANCH   9  25
HETATM   25  N2  UNK     1       4.884   3.354  -2.238  1.00  0.00    -0.116 N 
HETATM   26  O5  UNK     1       5.405   3.704  -3.325  1.00  0.00    -0.532 OA
HETATM   27  O6  UNK     1       5.301   3.777  -1.133  1.00  0.00    -0.532 OA
ENDBRANCH   9  25
TORSDOF 5
