REMARK  2 active torsions:
REMARK  status: ('A' for Active; 'I' for Inactive)
REMARK    1  A    between atoms: C5_10  and  N1_4 
REMARK       I    between atoms: C6_11  and  N2_5 
REMARK    2  A    between atoms: C6_11  and  C7_12 
ROOT
HETATM    1  O1  UNK     1       0.894  -1.264   2.671  1.00  0.00    -0.267 OA
HETATM    2  N1  UNK     1       2.445   1.395  -1.337  1.00  0.00    -0.378 N 
HETATM    3  N2  UNK     1       0.964   0.101   0.787  1.00  0.00    -0.345 N 
HETATM    4  C1  UNK     1       3.032   0.305  -0.553  1.00  0.00     0.143 C 
HETATM    5  C2  UNK     1       1.134   1.909  -0.933  1.00  0.00     0.143 C 
HETATM    6  C3  UNK     1       2.416   0.252   0.844  1.00  0.00     0.146 C 
HETATM    7  C4  UNK     1       0.284   0.801  -0.308  1.00  0.00     0.146 C 
HETATM    8  C6  UNK     1       0.324  -0.676   1.751  1.00  0.00     0.260 C 
ENDROOT
BRANCH   8   9
HETATM    9  C7  UNK     1      -1.144  -0.808   1.646  1.00  0.00     0.108 A 
HETATM   10  C10 UNK     1      -1.596  -1.831   0.911  1.00  0.00     0.037 A 
HETATM   11  C12 UNK     1      -3.025  -2.042   0.749  1.00  0.00    -0.001 A 
HETATM   12  C15 UNK     1      -3.910  -1.166   1.368  1.00  0.00     0.089 A 
HETATM   13  C17 UNK     1      -3.541  -3.097  -0.009  1.00  0.00     0.014 A 
HETATM   14  O2  UNK     1      -3.429  -0.091   2.141  1.00  0.00    -0.274 OA
HETATM   15  C18 UNK     1      -5.291  -1.313   1.252  1.00  0.00     0.038 A 
HETATM   16  C11 UNK     1      -2.067   0.137   2.314  1.00  0.00     0.304 A 
HETATM   17  O3  UNK     1      -1.657   1.077   2.988  1.00  0.00    -0.259 OA
HETATM   18  C20 UNK     1      -5.797  -2.367   0.495  1.00  0.00     0.003 A 
HETATM   19  C19 UNK     1      -4.924  -3.257  -0.134  1.00  0.00     0.001 A 
ENDBRANCH   8   9
BRANCH   2  20
HETATM   20  C5  UNK     1       3.149   1.964  -2.396  1.00  0.00     0.030 A 
HETATM   21  C8  UNK     1       4.076   1.210  -3.153  1.00  0.00     0.029 A 
HETATM   22  C13 UNK     1       4.780   1.779  -4.214  1.00  0.00     0.002 A 
HETATM   23  C16 UNK     1       4.578   3.119  -4.548  1.00  0.00     0.000 A 
HETATM   24  C14 UNK     1       3.670   3.889  -3.820  1.00  0.00     0.002 A 
HETATM   25  C9  UNK     1       2.966   3.320  -2.759  1.00  0.00     0.029 A 
ENDBRANCH   2  20
TORSDOF 2
