REMARK  1 active torsions:
REMARK  status: ('A' for Active; 'I' for Inactive)
REMARK    1  A    between atoms: C1_4  and  C3_6 
ROOT
HETATM    1  O2  UNK     1       1.807   1.391  -3.043  1.00  0.00    -0.275 OA
HETATM    2  O3  UNK     1       0.272   0.842  -4.645  1.00  0.00    -0.260 OA
HETATM    3  C1  UNK     1       0.057   0.243  -1.120  1.00  0.00     0.017 A 
HETATM    4  C2  UNK     1       1.344   0.833  -0.713  1.00  0.00     0.012 A 
HETATM    5  C4  UNK     1       2.176   1.387  -1.685  1.00  0.00     0.090 A 
HETATM    6  C8  UNK     1       1.779   0.866   0.619  1.00  0.00     0.022 A 
HETATM    7  C9  UNK     1       3.011   1.439   0.952  1.00  0.00    -0.061 A 
HETATM    8  C10 UNK     1      -0.264   0.264  -2.425  1.00  0.00     0.097 A 
HETATM    9  C11 UNK     1       3.408   1.962  -1.367  1.00  0.00     0.039 A 
HETATM   10  C12 UNK     1       3.824   1.986  -0.040  1.00  0.00     0.009 A 
HETATM   11  C14 UNK     1       0.605   0.845  -3.465  1.00  0.00     0.289 A 
HETATM   12  C16 UNK     1       3.458   1.465   2.375  1.00  0.00     0.048 C 
ENDROOT
BRANCH   3  13
HETATM   13  C3  UNK     1      -0.885  -0.351  -0.254  1.00  0.00     0.088 A 
HETATM   14  O1  UNK     1      -1.881   0.365   0.334  1.00  0.00    -0.309 OA
HETATM   15  C7  UNK     1      -2.600  -0.505   1.097  1.00  0.00     0.086 A 
HETATM   16  C15 UNK     1      -3.714  -0.179   1.870  1.00  0.00     0.038 A 
HETATM   17  C5  UNK     1      -2.065  -1.785   1.001  1.00  0.00     0.000 A 
HETATM   18  C18 UNK     1      -4.305  -1.228   2.581  1.00  0.00     0.003 A 
HETATM   19  C17 UNK     1      -3.798  -2.528   2.511  1.00  0.00     0.001 A 
HETATM   20  C13 UNK     1      -2.676  -2.825   1.724  1.00  0.00     0.014 A 
HETATM   21  C6  UNK     1      -0.955  -1.675   0.124  1.00  0.00     0.052 A 
ENDBRANCH   3  13
TORSDOF 1
