REMARK  3 active torsions:
REMARK  status: ('A' for Active; 'I' for Inactive)
REMARK    1  A    between atoms: C10_14  and  O3_3 
REMARK    2  A    between atoms: C16_20  and  O4_4 
REMARK    3  A    between atoms: C3_7  and  C6_10 
ROOT
HETATM    1  O1  UNK     1      -0.407  -0.262   2.343  1.00  0.00    -0.321 OA
HETATM    2  O2  UNK     1      -1.046  -0.167  -1.686  1.00  0.00    -0.286 OA
HETATM    3  C1  UNK     1      -1.843  -0.755   0.449  1.00  0.00     0.055 A 
HETATM    4  C2  UNK     1      -3.052  -1.266  -0.029  1.00  0.00    -0.042 A 
HETATM    5  C3  UNK     1       0.425   0.294   0.129  1.00  0.00     0.048 A 
HETATM    6  C4  UNK     1      -1.575  -0.752   1.817  1.00  0.00     0.092 A 
HETATM    7  C5  UNK     1      -0.837  -0.209  -0.481  1.00  0.00     0.198 A 
HETATM    8  C7  UNK     1      -3.990  -1.775   0.871  1.00  0.00     0.044 A 
HETATM    9  C8  UNK     1      -2.515  -1.260   2.715  1.00  0.00     0.074 A 
HETATM   10  C9  UNK     1       0.531   0.225   1.465  1.00  0.00     0.159 A 
HETATM   11  C10 UNK     1      -3.722  -1.772   2.240  1.00  0.00     0.068 A 
HETATM   12  C11 UNK     1      -3.418  -1.308  -1.478  1.00  0.00     0.049 C 
ENDROOT
BRANCH   5  13
HETATM   13  C6  UNK     1       1.526   0.827  -0.688  1.00  0.00    -0.020 A 
HETATM   14  C12 UNK     1       2.519  -0.027  -1.172  1.00  0.00     0.015 A 
HETATM   15  C14 UNK     1       3.562   0.480  -1.946  1.00  0.00     0.037 A 
HETATM   16  C16 UNK     1       3.615   1.842  -2.239  1.00  0.00     0.068 A 
HETATM   17  C15 UNK     1       2.625   2.698  -1.757  1.00  0.00     0.037 A 
HETATM   18  C13 UNK     1       1.582   2.191  -0.982  1.00  0.00     0.015 A 
BRANCH  16  19
HETATM   19  O4  UNK     1       4.633   2.336  -2.995  1.00  0.00    -0.356 OA
HETATM   20  C17 UNK     1       4.627   3.739  -3.257  1.00  0.00     0.210 C 
ENDBRANCH  16  19
ENDBRANCH   5  13
BRANCH  11  21
HETATM   21  O3  UNK     1      -4.640  -2.268   3.114  1.00  0.00    -0.361 OA
HETATM   22  H11 UNK     1      -5.415  -2.580   2.615  1.00  0.00     0.217 HD
ENDBRANCH  11  21
TORSDOF 3
