REMARK  4 active torsions:
REMARK  status: ('A' for Active; 'I' for Inactive)
REMARK    1  A    between atoms: C18_26  and  O3_4 
REMARK    2  A    between atoms: C21_29  and  O5_6 
REMARK    3  A    between atoms: C1_9  and  C8_16 
REMARK    4  A    between atoms: C6_14  and  C9_17 
ROOT
HETATM    1  O1  UNK     1      -2.058   2.652  -0.523  1.00  0.00    -0.293 OA
HETATM    2  N1  UNK     1       1.089  -0.564   1.209  1.00  0.00    -0.357 N 
HETATM    3  N2  UNK     1       1.687   2.365   0.900  1.00  0.00    -0.375 N 
HETATM    4  C1  UNK     1      -2.605  -0.222   1.571  1.00  0.00     0.031 C 
HETATM    5  C2  UNK     1      -1.287  -0.957   1.314  1.00  0.00     0.067 C 
HETATM    6  C3  UNK     1      -0.392   1.174   0.344  1.00  0.00     0.037 C 
HETATM    7  C4  UNK     1      -2.944   0.634   0.359  1.00  0.00     0.093 C 
HETATM    8  C5  UNK     1      -0.151  -0.022   0.924  1.00  0.00     0.022 C 
HETATM    9  C6  UNK     1       0.679   2.129  -0.119  1.00  0.00     0.160 C 
HETATM   10  C7  UNK     1      -1.813   1.583   0.039  1.00  0.00     0.160 C 
HETATM   11  C10 UNK     1       2.341   0.042   1.433  1.00  0.00     0.059 A 
HETATM   12  C11 UNK     1       2.597   1.421   1.353  1.00  0.00     0.055 A 
HETATM   13  C16 UNK     1       3.394  -0.819   1.824  1.00  0.00     0.032 A 
HETATM   14  C17 UNK     1       3.881   1.890   1.714  1.00  0.00     0.031 A 
HETATM   15  C22 UNK     1       4.658  -0.336   2.157  1.00  0.00     0.002 A 
HETATM   16  C23 UNK     1       4.899   1.027   2.111  1.00  0.00     0.002 A 
HETATM   17  H7  UNK     1       1.072  -1.562   1.396  1.00  0.00     0.166 HD
HETATM   18  H8  UNK     1       1.934   3.338   1.061  1.00  0.00     0.160 HD
ENDROOT
BRANCH   9  19
HETATM   19  C9  UNK     1       1.313   1.715  -1.415  1.00  0.00     0.042 A 
HETATM   20  C14 UNK     1       2.379   2.575  -1.989  1.00  0.00     0.195 A 
HETATM   21  O4  UNK     1       2.753   3.602  -1.439  1.00  0.00    -0.287 OA
HETATM   22  C20 UNK     1       2.968   2.123  -3.263  1.00  0.00     0.050 A 
HETATM   23  C24 UNK     1       2.503   0.943  -3.844  1.00  0.00     0.089 A 
HETATM   24  C25 UNK     1       3.978   2.862  -3.883  1.00  0.00     0.042 A 
HETATM   25  O2  UNK     1       1.514   0.177  -3.279  1.00  0.00    -0.321 OA
HETATM   26  C26 UNK     1       3.046   0.496  -5.049  1.00  0.00     0.040 A 
HETATM   27  C15 UNK     1       0.975   0.611  -2.093  1.00  0.00     0.156 A 
HETATM   28  C28 UNK     1       4.055   1.233  -5.670  1.00  0.00     0.026 A 
HETATM   29  C27 UNK     1       4.519   2.413  -5.088  1.00  0.00     0.035 A 
HETATM   30 Cl1  UNK     1       5.765   3.317  -5.860  1.00  0.00    -0.084 Cl
ENDBRANCH   9  19
BRANCH   4  31
HETATM   31  C8  UNK     1      -3.730  -1.173   1.935  1.00  0.00    -0.050 A 
HETATM   32  C12 UNK     1      -4.141  -2.143   1.023  1.00  0.00     0.047 A 
HETATM   33  C18 UNK     1      -5.176  -3.017   1.357  1.00  0.00     0.102 A 
HETATM   34  C21 UNK     1      -5.797  -2.919   2.602  1.00  0.00     0.101 A 
HETATM   35  C19 UNK     1      -5.383  -1.947   3.513  1.00  0.00     0.040 A 
HETATM   36  C13 UNK     1      -4.348  -1.073   3.179  1.00  0.00     0.010 A 
BRANCH  33  37
HETATM   37  O3  UNK     1      -5.570  -3.962   0.459  1.00  0.00    -0.353 OA
HETATM   38  C29 UNK     1      -4.884  -3.995  -0.791  1.00  0.00     0.210 C 
ENDBRANCH  33  37
BRANCH  34  39
HETATM   39  O5  UNK     1      -6.808  -3.766   2.941  1.00  0.00    -0.353 OA
HETATM   40  C30 UNK     1      -6.443  -4.984   3.587  1.00  0.00     0.210 C 
ENDBRANCH  34  39
ENDBRANCH   4  31
TORSDOF 4
