REMARK  6 active torsions:
REMARK  status: ('A' for Active; 'I' for Inactive)
REMARK    1  A    between atoms: C2_6  and  O1_1 
REMARK    2  A    between atoms: C4_8  and  O2_2 
REMARK    3  A    between atoms: C5_9  and  O3_3 
REMARK    4  A    between atoms: C1_5  and  C7_11 
REMARK    5  A    between atoms: C10_14  and  C8_12 
REMARK    6  A    between atoms: C10_14  and  C9_13 
ROOT
HETATM    1  C1  UNK     1      -1.203  -0.715  -0.195  1.00  0.00     0.000 A 
HETATM    2  C2  UNK     1      -2.527  -0.945  -0.537  1.00  0.00     0.081 A 
HETATM    3  C3  UNK     1      -0.780  -0.781   1.124  1.00  0.00     0.054 A 
HETATM    4  C4  UNK     1      -1.703  -1.084   2.125  1.00  0.00     0.102 A 
HETATM    5  C5  UNK     1      -3.038  -1.317   1.795  1.00  0.00     0.104 A 
HETATM    6  C6  UNK     1      -3.450  -1.247   0.464  1.00  0.00     0.077 A 
ENDROOT
BRANCH   1   7
HETATM    7  C7  UNK     1      -0.208  -0.391  -1.233  1.00  0.00     0.018 C 
HETATM    8  C8  UNK     1       0.864   0.391  -1.041  1.00  0.00     0.056 C 
BRANCH   8   9
HETATM    9  C10 UNK     1       1.816   0.675  -2.169  1.00  0.00     0.182 C 
HETATM   10  O4  UNK     1       1.622   0.191  -3.294  1.00  0.00    -0.288 OA
BRANCH   9  11
HETATM   11  C9  UNK     1       2.949   1.553  -1.920  1.00  0.00     0.014 A 
HETATM   12  C11 UNK     1       3.516   1.616  -0.647  1.00  0.00     0.015 A 
HETATM   13  C14 UNK     1       4.604   2.457  -0.410  1.00  0.00     0.001 A 
HETATM   14  C18 UNK     1       5.123   3.234  -1.445  1.00  0.00     0.000 A 
HETATM   15  C15 UNK     1       4.556   3.171  -2.717  1.00  0.00     0.001 A 
HETATM   16  C12 UNK     1       3.468   2.330  -2.955  1.00  0.00     0.015 A 
ENDBRANCH   9  11
ENDBRANCH   8   9
ENDBRANCH   1   7
BRANCH   2  17
HETATM   17  O1  UNK     1      -2.956  -0.882  -1.830  1.00  0.00    -0.355 OA
HETATM   18  C13 UNK     1      -3.411   0.385  -2.299  1.00  0.00     0.210 C 
ENDBRANCH   2  17
BRANCH   4  19
HETATM   19  O2  UNK     1      -1.290  -1.148   3.421  1.00  0.00    -0.353 OA
HETATM   20  C16 UNK     1      -1.344   0.060   4.179  1.00  0.00     0.210 C 
ENDBRANCH   4  19
BRANCH   5  21
HETATM   21  O3  UNK     1      -3.949  -1.615   2.763  1.00  0.00    -0.353 OA
HETATM   22  C17 UNK     1      -4.130  -2.993   3.081  1.00  0.00     0.210 C 
ENDBRANCH   5  21
TORSDOF 6
