REMARK  7 active torsions:
REMARK  status: ('A' for Active; 'I' for Inactive)
REMARK    1  A    between atoms: C22_29  and  S1_1 
REMARK    2  A    between atoms: C24_31  and  S1_1 
REMARK    3  A    between atoms: C12_19  and  O3_4 
REMARK    4  A    between atoms: C20_27  and  O3_4 
REMARK    5  A    between atoms: C1_8  and  C10_17 
REMARK    6  A    between atoms: C12_19  and  C6_13 
REMARK    7  A    between atoms: C20_27  and  C22_29 
ROOT
HETATM    1  O1  UNK     1      -2.298  -3.237  -0.702  1.00  0.00    -0.293 OA
HETATM    2  N1  UNK     1      -2.790   0.431   2.254  1.00  0.00    -0.362 N 
HETATM    3  C1  UNK     1      -0.958  -1.344   1.013  1.00  0.00     0.104 C 
HETATM    4  C2  UNK     1      -2.454  -1.341   0.719  1.00  0.00     0.024 C 
HETATM    5  C3  UNK     1      -3.281  -0.459   1.318  1.00  0.00     0.020 C 
HETATM    6  C4  UNK     1      -4.756  -0.379   1.027  1.00  0.00     0.058 C 
HETATM    7  C5  UNK     1      -5.112  -1.002  -0.317  1.00  0.00     0.014 C 
HETATM    8  C6  UNK     1      -0.577  -0.405   2.162  1.00  0.00     0.052 C 
HETATM    9  C7  UNK     1      -4.515  -2.392  -0.443  1.00  0.00     0.084 C 
HETATM   10  C8  UNK     1      -3.021  -2.376  -0.202  1.00  0.00     0.158 C 
HETATM   11  C9  UNK     1      -1.482   0.437   2.714  1.00  0.00     0.018 C 
HETATM   12  C13 UNK     1      -1.226   1.403   3.840  1.00  0.00     0.069 C 
HETATM   13  H8  UNK     1      -3.446   1.069   2.689  1.00  0.00     0.165 HD
ENDROOT
BRANCH   3  14
HETATM   14  C10 UNK     1      -0.185  -0.986  -0.228  1.00  0.00     0.029 A 
HETATM   15  C14 UNK     1       0.687  -1.808  -0.826  1.00  0.00     0.154 A 
HETATM   16  O2  UNK     1       1.422  -1.544  -1.956  1.00  0.00    -0.321 OA
HETATM   17  C16 UNK     1       1.258  -0.318  -2.549  1.00  0.00     0.089 A 
HETATM   18  C15 UNK     1       0.386   0.650  -2.049  1.00  0.00     0.049 A 
HETATM   19  C18 UNK     1       2.007  -0.058  -3.697  1.00  0.00     0.039 A 
HETATM   20  C11 UNK     1      -0.395   0.353  -0.834  1.00  0.00     0.194 A 
HETATM   21  C17 UNK     1       0.260   1.883  -2.694  1.00  0.00     0.025 A 
HETATM   22  O4  UNK     1      -1.173   1.168  -0.357  1.00  0.00    -0.287 OA
HETATM   23  C19 UNK     1       1.011   2.141  -3.841  1.00  0.00    -0.061 A 
HETATM   24  C21 UNK     1       1.882   1.173  -4.342  1.00  0.00     0.009 A 
HETATM   25  C23 UNK     1       0.882   3.455  -4.535  1.00  0.00     0.048 C 
ENDBRANCH   3  14
BRANCH   8  26
HETATM   26  C12 UNK     1       0.817  -0.487   2.629  1.00  0.00     0.292 C 
HETATM   27  O5  UNK     1       1.185  -1.245   3.507  1.00  0.00    -0.259 OA
BRANCH  26  28
HETATM   28  O3  UNK     1       1.557   0.400   1.921  1.00  0.00    -0.317 OA
BRANCH  28  29
HETATM   29  C20 UNK     1       2.946   0.439   2.261  1.00  0.00     0.189 C 
BRANCH  29  30
HETATM   30  C22 UNK     1       3.771   0.830   1.044  1.00  0.00     0.100 C 
BRANCH  30  31
HETATM   31  S1  UNK     1       3.290   2.467   0.414  1.00  0.00    -0.167 SA
BRANCH  31  32
HETATM   32  C24 UNK     1       4.448   2.562  -0.970  1.00  0.00     0.069 C 
HETATM   33  C25 UNK     1       4.278   3.871  -1.717  1.00  0.00     0.016 C 
ENDBRANCH  31  32
ENDBRANCH  30  31
ENDBRANCH  29  30
ENDBRANCH  28  29
ENDBRANCH  26  28
ENDBRANCH   8  26
TORSDOF 7
