REMARK  6 active torsions:
REMARK  status: ('A' for Active; 'I' for Inactive)
REMARK    1  A    between atoms: C13_20  and  S1_1 
REMARK       I    between atoms: C16_23  and  N1_7 
REMARK    2  A    between atoms: C2_9  and  N1_7 
REMARK    3  A    between atoms: C1_8  and  C8_15 
REMARK    4  A    between atoms: C5_12  and  C9_16 
REMARK    5  A    between atoms: C10_17  and  C8_15 
REMARK    6  A    between atoms: C16_23  and  C17_24 
ROOT
HETATM    1  C1  UNK     1      -1.347  -0.284  -1.208  1.00  0.00     0.014 A 
HETATM    2  C2  UNK     1      -2.896  -1.474   0.743  1.00  0.00     0.035 A 
HETATM    3  C3  UNK     1      -1.247   0.167   0.093  1.00  0.00     0.018 A 
HETATM    4  C4  UNK     1      -2.197  -1.312  -1.564  1.00  0.00     0.018 A 
HETATM    5  C6  UNK     1      -2.029  -0.434   1.078  1.00  0.00     0.030 A 
HETATM    6  C7  UNK     1      -2.980  -1.913  -0.579  1.00  0.00     0.030 A 
ENDROOT
BRANCH   1   7
HETATM    7  C8  UNK     1      -0.514   0.355  -2.256  1.00  0.00     0.182 C 
HETATM    8  O1  UNK     1      -0.912   0.383  -3.416  1.00  0.00    -0.288 OA
BRANCH   7   9
HETATM    9  C10 UNK     1       0.804   0.914  -1.847  1.00  0.00     0.056 C 
HETATM   10  C9  UNK     1       1.620   1.481  -2.764  1.00  0.00     0.015 C 
BRANCH  10  11
HETATM   11  C5  UNK     1       2.932   2.042  -2.485  1.00  0.00    -0.036 A 
HETATM   12  C11 UNK     1       3.272   2.407  -1.182  1.00  0.00     0.012 A 
HETATM   13  C14 UNK     1       4.531   2.946  -0.915  1.00  0.00     0.019 A 
HETATM   14  C13 UNK     1       5.449   3.121  -1.950  1.00  0.00    -0.000 A 
HETATM   15  C15 UNK     1       5.109   2.757  -3.252  1.00  0.00     0.019 A 
HETATM   16  C12 UNK     1       3.851   2.217  -3.520  1.00  0.00     0.012 A 
BRANCH  14  17
HETATM   17  S1  UNK     1       7.056   3.811  -1.608  1.00  0.00    -0.134 SA
HETATM   18  C18 UNK     1       8.156   2.471  -2.145  1.00  0.00     0.095 C 
ENDBRANCH  14  17
ENDBRANCH  10  11
ENDBRANCH   7   9
ENDBRANCH   1   7
BRANCH   2  19
HETATM   19  N1  UNK     1      -3.679  -2.076   1.728  1.00  0.00    -0.320 N 
HETATM   20  C16 UNK     1      -3.732  -1.776   3.095  1.00  0.00     0.330 C 
HETATM   21  O2  UNK     1      -3.091  -0.920   3.696  1.00  0.00    -0.263 OA
HETATM   22  H9  UNK     1      -4.285  -2.826   1.403  1.00  0.00     0.169 HD
BRANCH  20  23
HETATM   23  C17 UNK     1      -4.709  -2.659   3.818  1.00  0.00     0.472 C 
HETATM   24  F1  UNK     1      -5.313  -3.542   2.983  1.00  0.00    -0.162 F 
HETATM   25  F2  UNK     1      -4.107  -3.387   4.794  1.00  0.00    -0.162 F 
HETATM   26  F3  UNK     1      -5.697  -1.946   4.415  1.00  0.00    -0.162 F 
ENDBRANCH  20  23
ENDBRANCH   2  19
TORSDOF 6
