REMARK  2 active torsions:
REMARK  status: ('A' for Active; 'I' for Inactive)
REMARK    1  A    between atoms: C11_14  and  O2_2 
REMARK    2  A    between atoms: C5_8  and  O2_2 
ROOT
HETATM    1  O1  UNK     1      -2.312  -0.951  -0.484  1.00  0.00    -0.275 OA
HETATM    2  O3  UNK     1      -3.826  -2.011   0.863  1.00  0.00    -0.260 OA
HETATM    3  C1  UNK     1      -0.311   0.034   0.513  1.00  0.00     0.007 A 
HETATM    4  C2  UNK     1      -0.771  -0.425   1.831  1.00  0.00    -0.043 A 
HETATM    5  C3  UNK     1      -1.098  -0.244  -0.605  1.00  0.00     0.090 A 
HETATM    6  C4  UNK     1       0.882   0.741   0.308  1.00  0.00     0.051 A 
HETATM    7  C5  UNK     1       1.261   1.147  -0.976  1.00  0.00     0.069 A 
HETATM    8  C6  UNK     1      -0.734   0.155  -1.892  1.00  0.00     0.041 A 
HETATM    9  C7  UNK     1       0.454   0.855  -2.074  1.00  0.00     0.039 A 
HETATM   10  C8  UNK     1      -1.930  -1.094   1.916  1.00  0.00     0.090 A 
HETATM   11  C9  UNK     1       0.052  -0.141   3.053  1.00  0.00     0.049 C 
HETATM   12  C10 UNK     1      -2.772  -1.396   0.746  1.00  0.00     0.288 A 
ENDROOT
BRANCH   7  13
HETATM   13  O2  UNK     1       2.425   1.833  -1.153  1.00  0.00    -0.351 OA
BRANCH  13  14
HETATM   14  C11 UNK     1       3.094   1.662  -2.402  1.00  0.00     0.171 C 
HETATM   15  C12 UNK     1       4.582   1.843  -2.192  1.00  0.00     0.034 C 
ENDBRANCH  13  14
ENDBRANCH   7  13
TORSDOF 2
