REMARK  1 active torsions:
REMARK  status: ('A' for Active; 'I' for Inactive)
REMARK    1  A    between atoms: C4_6  and  C6_8 
ROOT
HETATM    1  O1  UNK     1       0.296  -1.116   0.157  1.00  0.00    -0.308 OA
HETATM    2  O2  UNK     1       0.991  -2.374   3.969  1.00  0.00    -0.287 OA
HETATM    3  C1  UNK     1       0.611  -2.429   0.396  1.00  0.00     0.096 A 
HETATM    4  C2  UNK     1       0.859  -2.926   1.675  1.00  0.00     0.048 A 
HETATM    5  C3  UNK     1       0.679  -3.279  -0.707  1.00  0.00    -0.027 A 
HETATM    6  C4  UNK     1       0.213  -0.249   1.236  1.00  0.00     0.090 A 
HETATM    7  C5  UNK     1       0.782  -2.007   2.821  1.00  0.00     0.187 A 
HETATM    8  C7  UNK     1       0.437  -0.605   2.510  1.00  0.00     0.093 A 
HETATM    9  C8  UNK     1       1.176  -4.273   1.860  1.00  0.00     0.018 A 
HETATM   10  C9  UNK     1       0.995  -4.626  -0.527  1.00  0.00     0.009 A 
HETATM   11  C10 UNK     1       1.243  -5.122   0.754  1.00  0.00     0.002 A 
HETATM   12  C11 UNK     1       0.416  -2.776  -2.089  1.00  0.00     0.051 C 
ENDROOT
BRANCH   6  13
HETATM   13  C6  UNK     1      -0.126   1.140   0.865  1.00  0.00    -0.002 A 
HETATM   14  C12 UNK     1       0.355   2.208   1.627  1.00  0.00     0.014 A 
HETATM   15  C14 UNK     1       0.034   3.519   1.277  1.00  0.00     0.001 A 
HETATM   16  C16 UNK     1      -0.769   3.767   0.164  1.00  0.00     0.000 A 
HETATM   17  C15 UNK     1      -1.252   2.704  -0.599  1.00  0.00     0.001 A 
HETATM   18  C13 UNK     1      -0.931   1.392  -0.249  1.00  0.00     0.014 A 
ENDBRANCH   6  13
TORSDOF 1
