REMARK  5 active torsions:
REMARK  status: ('A' for Active; 'I' for Inactive)
REMARK    1  A    between atoms: C19_24  and  O2_2 
REMARK    2  A    between atoms: C6_11  and  O2_2 
REMARK    3  A    between atoms: C12_17  and  O3_3 
REMARK    4  A    between atoms: C22_27  and  O3_3 
REMARK    5  A    between atoms: C19_24  and  C22_27 
ROOT
HETATM    1  C19 UNK     1       0.338  -0.689   0.290  1.00  0.00     0.287 C 
ENDROOT
BRANCH   1   2
HETATM    2  O2  UNK     1      -0.565  -1.582  -0.362  1.00  0.00    -0.341 OA
BRANCH   2   3
HETATM    3  C6  UNK     1      -1.806  -1.713   0.180  1.00  0.00     0.072 A 
HETATM    4  C7  UNK     1      -1.992  -1.551   1.549  1.00  0.00     0.075 A 
HETATM    5  C2  UNK     1      -3.274  -1.690   2.084  1.00  0.00     0.092 A 
HETATM    6  C1  UNK     1      -4.384  -1.987   1.291  1.00  0.00     0.004 A 
HETATM    7  O1  UNK     1      -3.399  -1.514   3.476  1.00  0.00    -0.275 OA
HETATM    8  C3  UNK     1      -5.696  -2.114   1.939  1.00  0.00    -0.043 A 
HETATM    9  C4  UNK     1      -4.176  -2.146  -0.085  1.00  0.00     0.017 A 
HETATM   10  C10 UNK     1      -5.785  -1.942   3.265  1.00  0.00     0.090 A 
HETATM   11  C13 UNK     1      -6.909  -2.433   1.115  1.00  0.00     0.049 C 
HETATM   12  C18 UNK     1      -4.624  -1.628   4.114  1.00  0.00     0.288 A 
HETATM   13  O4  UNK     1      -4.743  -1.477   5.325  1.00  0.00    -0.260 OA
HETATM   14  C9  UNK     1      -2.897  -2.010  -0.636  1.00  0.00     0.038 A 
ENDBRANCH   2   3
ENDBRANCH   1   2
BRANCH   1  15
HETATM   15  C22 UNK     1       1.287  -0.125  -0.735  1.00  0.00     0.288 C 
HETATM   16  O5  UNK     1       1.264  -0.380  -1.932  1.00  0.00    -0.262 OA
BRANCH  15  17
HETATM   17  O3  UNK     1       2.175   0.726  -0.082  1.00  0.00    -0.277 OA
BRANCH  17  18
HETATM   18  C12 UNK     1       3.105   1.307  -0.946  1.00  0.00     0.080 A 
HETATM   19  C11 UNK     1       2.794   2.511  -1.540  1.00  0.00     0.049 A 
HETATM   20  C5  UNK     1       3.719   3.109  -2.411  1.00  0.00    -0.023 A 
HETATM   21  C15 UNK     1       3.447   4.335  -3.040  1.00  0.00     0.012 A 
HETATM   22  C8  UNK     1       4.953   2.462  -2.661  1.00  0.00    -0.026 A 
HETATM   23  C20 UNK     1       4.377   4.915  -3.903  1.00  0.00     0.001 A 
HETATM   24  C21 UNK     1       5.590   4.278  -4.149  1.00  0.00     0.001 A 
HETATM   25  C17 UNK     1       5.878   3.060  -3.533  1.00  0.00     0.012 A 
HETATM   26  C14 UNK     1       5.225   1.236  -2.032  1.00  0.00     0.015 A 
HETATM   27  C16 UNK     1       4.295   0.656  -1.170  1.00  0.00     0.038 A 
ENDBRANCH  17  18
ENDBRANCH  15  17
ENDBRANCH   1  15
TORSDOF 5
