REMARK  4 active torsions:
REMARK  status: ('A' for Active; 'I' for Inactive)
REMARK    1  A    between atoms: C13_18  and  O2_2 
REMARK    2  A    between atoms: C1_6  and  N1_5 
REMARK       I    between atoms: C4_9  and  N1_5 
REMARK    3  A    between atoms: C1_6  and  C2_7 
REMARK    4  A    between atoms: C4_9  and  C7_12 
ROOT
HETATM    1  O3  UNK     1       2.060   0.048   1.806  1.00  0.00    -0.267 OA
HETATM    2  N1  UNK     1      -0.147   0.181   1.068  1.00  0.00    -0.348 N 
HETATM    3  C4  UNK     1       1.226   0.284   0.934  1.00  0.00     0.258 C 
HETATM    4  H2  UNK     1      -0.743   0.466   0.297  1.00  0.00     0.163 HD
ENDROOT
BRANCH   3   5
HETATM    5  C7  UNK     1       1.637   0.719  -0.406  1.00  0.00     0.108 A 
HETATM    6  C14 UNK     1       0.843   0.401  -1.614  1.00  0.00     0.304 A 
HETATM    7  O1  UNK     1       1.337   0.868  -2.828  1.00  0.00    -0.274 OA
HETATM    8  O4  UNK     1      -0.200  -0.242  -1.553  1.00  0.00    -0.259 OA
HETATM    9  C10 UNK     1       2.534   1.608  -2.908  1.00  0.00     0.089 A 
HETATM   10  C8  UNK     1       3.265   1.895  -1.761  1.00  0.00    -0.001 A 
HETATM   11  C16 UNK     1       2.948   2.034  -4.169  1.00  0.00     0.038 A 
HETATM   12  C15 UNK     1       4.447   2.631  -1.881  1.00  0.00     0.014 A 
HETATM   13  C9  UNK     1       2.775   1.421  -0.476  1.00  0.00     0.037 A 
HETATM   14  C17 UNK     1       4.875   3.065  -3.139  1.00  0.00     0.001 A 
HETATM   15  C18 UNK     1       4.127   2.767  -4.280  1.00  0.00     0.003 A 
ENDBRANCH   3   5
BRANCH   2  16
HETATM   16  C1  UNK     1      -0.790  -0.231   2.295  1.00  0.00     0.114 C 
HETATM   17  C3  UNK     1      -1.019   0.963   3.215  1.00  0.00     0.037 C 
BRANCH  16  18
HETATM   18  C2  UNK     1      -2.068  -0.976   1.973  1.00  0.00    -0.036 A 
HETATM   19  C5  UNK     1      -2.174  -2.313   2.312  1.00  0.00     0.012 A 
HETATM   20  C11 UNK     1      -3.351  -3.000   2.015  1.00  0.00     0.037 A 
HETATM   21  C13 UNK     1      -4.404  -2.338   1.384  1.00  0.00     0.068 A 
HETATM   22  C12 UNK     1      -4.280  -0.989   1.049  1.00  0.00     0.037 A 
HETATM   23  C6  UNK     1      -3.102  -0.303   1.346  1.00  0.00     0.012 A 
BRANCH  21  24
HETATM   24  O2  UNK     1      -5.553  -3.008   1.094  1.00  0.00    -0.356 OA
HETATM   25  C19 UNK     1      -6.589  -2.271   0.448  1.00  0.00     0.210 C 
ENDBRANCH  21  24
ENDBRANCH  16  18
ENDBRANCH   2  16
TORSDOF 4
