REMARK  5 active torsions:
REMARK  status: ('A' for Active; 'I' for Inactive)
REMARK    1  A    between atoms: C12_20  and  O3_5 
REMARK    2  A    between atoms: C20_28  and  O3_5 
REMARK    3  A    between atoms: C7_15  and  N1_8 
REMARK    4  A    between atoms: C1_9  and  C5_13 
REMARK    5  A    between atoms: C12_20  and  C3_11 
ROOT
HETATM    1  O1  UNK     1       2.090   0.313   0.821  1.00  0.00    -0.292 OA
HETATM    2  O2  UNK     1       1.082   2.131  -2.811  1.00  0.00    -0.274 OA
HETATM    3  O4  UNK     1      -1.119   2.103  -2.219  1.00  0.00    -0.259 OA
HETATM    4  C1  UNK     1      -0.699   0.740   0.283  1.00  0.00     0.106 C 
HETATM    5  C2  UNK     1       0.409   1.138  -0.675  1.00  0.00     0.066 A 
HETATM    6  C3  UNK     1      -0.149   0.320   1.636  1.00  0.00     0.081 C 
HETATM    7  C4  UNK     1       1.694   0.900  -0.369  1.00  0.00     0.104 A 
HETATM    8  C6  UNK     1       2.768   1.248  -1.295  1.00  0.00     0.033 A 
HETATM    9  C7  UNK     1       1.168   0.118   1.853  1.00  0.00     0.155 C 
HETATM   10  C8  UNK     1       0.042   1.822  -1.942  1.00  0.00     0.298 A 
HETATM   11  C9  UNK     1       2.427   1.854  -2.500  1.00  0.00     0.092 A 
HETATM   12  C13 UNK     1       4.123   1.004  -1.039  1.00  0.00     0.017 A 
HETATM   13  C14 UNK     1       3.387   2.217  -3.446  1.00  0.00     0.038 A 
HETATM   14  C17 UNK     1       5.097   1.362  -1.976  1.00  0.00     0.001 A 
HETATM   15  C19 UNK     1       4.729   1.967  -3.178  1.00  0.00     0.003 A 
ENDROOT
BRANCH   4  16
HETATM   16  C5  UNK     1      -1.527  -0.364  -0.306  1.00  0.00    -0.023 A 
HETATM   17  C10 UNK     1      -2.883  -0.193  -0.569  1.00  0.00     0.043 A 
HETATM   18 Cl1  UNK     1      -3.685   1.298  -0.234  1.00  0.00    -0.084 Cl
HETATM   19  C15 UNK     1      -3.620  -1.243  -1.116  1.00  0.00     0.048 A 
HETATM   20  C18 UNK     1      -2.998  -2.459  -1.398  1.00  0.00     0.035 A 
HETATM   21  C16 UNK     1      -1.639  -2.626  -1.132  1.00  0.00     0.024 A 
HETATM   22 Cl2  UNK     1      -3.907  -3.755  -2.074  1.00  0.00    -0.084 Cl
HETATM   23  C11 UNK     1      -0.902  -1.576  -0.585  1.00  0.00     0.011 A 
ENDBRANCH   4  16
BRANCH   6  24
HETATM   24  C12 UNK     1      -1.131   0.170   2.725  1.00  0.00     0.294 C 
HETATM   25  O5  UNK     1      -1.463   1.085   3.454  1.00  0.00    -0.259 OA
BRANCH  24  26
HETATM   26  O3  UNK     1      -1.556  -1.115   2.740  1.00  0.00    -0.318 OA
BRANCH  26  27
HETATM   27  C20 UNK     1      -2.522  -1.421   3.751  1.00  0.00     0.174 C 
HETATM   28  C21 UNK     1      -2.901  -2.883   3.646  1.00  0.00     0.034 C 
ENDBRANCH  26  27
ENDBRANCH  24  26
ENDBRANCH   6  24
BRANCH   9  29
HETATM   29  N1  UNK     1       1.747  -0.274   3.026  1.00  0.00    -0.379 N 
HETATM   30  H7  UNK     1       1.180  -0.448   3.846  1.00  0.00     0.158 HD
HETATM   31  H8  UNK     1       2.751  -0.391   3.063  1.00  0.00     0.158 HD
ENDBRANCH   9  29
TORSDOF 5
