REMARK  9 active torsions:
REMARK  status: ('A' for Active; 'I' for Inactive)
REMARK    1  A    between atoms: C13_21  and  O1_2 
REMARK    2  A    between atoms: C3_11  and  O1_2 
REMARK    3  A    between atoms: C5_13  and  O2_3 
REMARK    4  A    between atoms: C4_12  and  O3_4 
REMARK    5  A    between atoms: C6_14  and  O4_5 
REMARK    6  A    between atoms: C7_15  and  O5_6 
REMARK    7  A    between atoms: C1_9  and  C13_21 
REMARK    8  A    between atoms: C14_22  and  C2_10 
REMARK    9  A    between atoms: C15_23  and  C16_24 
ROOT
HETATM    1  N1  UNK     1      -1.609  -3.075   3.341  1.00  0.00    -0.191 NA
HETATM    2  C14 UNK     1      -3.533  -1.349   1.059  1.00  0.00     0.035 C 
HETATM    3  C15 UNK     1      -3.720  -2.211   2.094  1.00  0.00     0.055 C 
HETATM    4  C26 UNK     1      -2.545  -2.684   2.778  1.00  0.00     0.100 C 
ENDROOT
BRANCH   3   5
HETATM    5  C16 UNK     1      -5.027  -2.668   2.541  1.00  0.00    -0.015 A 
HETATM    6  C17 UNK     1      -5.587  -3.823   1.996  1.00  0.00     0.014 A 
HETATM    7  C19 UNK     1      -6.839  -4.261   2.425  1.00  0.00     0.024 A 
HETATM    8  C21 UNK     1      -7.532  -3.544   3.401  1.00  0.00     0.034 A 
HETATM    9  C20 UNK     1      -6.972  -2.388   3.946  1.00  0.00     0.024 A 
HETATM   10 Cl1  UNK     1      -9.077  -4.084   3.931  1.00  0.00    -0.084 Cl
HETATM   11  C18 UNK     1      -5.719  -1.950   3.517  1.00  0.00     0.014 A 
ENDBRANCH   3   5
BRANCH   2  12
HETATM   12  C2  UNK     1      -2.234  -0.856   0.578  1.00  0.00    -0.032 A 
HETATM   13  C10 UNK     1      -1.707   0.310   1.112  1.00  0.00     0.051 A 
HETATM   14  C4  UNK     1      -0.474   0.777   0.655  1.00  0.00     0.102 A 
HETATM   15  C3  UNK     1       0.217   0.072  -0.331  1.00  0.00     0.112 A 
HETATM   16  C12 UNK     1      -0.325  -1.100  -0.859  1.00  0.00     0.041 A 
HETATM   17  C11 UNK     1      -1.557  -1.566  -0.403  1.00  0.00     0.014 A 
BRANCH  14  18
HETATM   18  O3  UNK     1       0.044   1.923   1.179  1.00  0.00    -0.353 OA
HETATM   19  C25 UNK     1       0.881   1.790   2.327  1.00  0.00     0.210 C 
ENDBRANCH  14  18
BRANCH  15  20
HETATM   20  O1  UNK     1       1.421   0.518  -0.785  1.00  0.00    -0.272 OA
BRANCH  20  21
HETATM   21  C13 UNK     1       1.338   1.385  -1.876  1.00  0.00     0.298 C 
HETATM   22  O6  UNK     1       0.308   1.739  -2.428  1.00  0.00    -0.259 OA
BRANCH  21  23
HETATM   23  C1  UNK     1       2.687   1.826  -2.312  1.00  0.00     0.045 A 
HETATM   24  C8  UNK     1       2.896   2.113  -3.646  1.00  0.00     0.057 A 
HETATM   25  C6  UNK     1       4.164   2.526  -4.056  1.00  0.00     0.105 A 
HETATM   26  C5  UNK     1       5.195   2.642  -3.124  1.00  0.00     0.135 A 
HETATM   27  C7  UNK     1       4.959   2.346  -1.782  1.00  0.00     0.105 A 
HETATM   28  C9  UNK     1       3.691   1.933  -1.371  1.00  0.00     0.057 A 
BRANCH  25  29
HETATM   29  O4  UNK     1       4.382   2.811  -5.370  1.00  0.00    -0.353 OA
HETATM   30  C23 UNK     1       4.160   4.157  -5.787  1.00  0.00     0.210 C 
ENDBRANCH  25  29
BRANCH  26  31
HETATM   31  O2  UNK     1       6.434   3.046  -3.525  1.00  0.00    -0.351 OA
HETATM   32  C22 UNK     1       7.349   2.027  -3.924  1.00  0.00     0.210 C 
ENDBRANCH  26  31
BRANCH  27  33
HETATM   33  O5  UNK     1       5.957   2.455  -0.861  1.00  0.00    -0.353 OA
HETATM   34  C24 UNK     1       6.105   3.717  -0.214  1.00  0.00     0.210 C 
ENDBRANCH  27  33
ENDBRANCH  21  23
ENDBRANCH  20  21
ENDBRANCH  15  20
ENDBRANCH   2  12
TORSDOF 9
