REMARK  6 active torsions:
REMARK  status: ('A' for Active; 'I' for Inactive)
REMARK    1  A    between atoms: C2_8  and  O1_2 
REMARK    2  A    between atoms: C3_9  and  O1_2 
REMARK    3  A    between atoms: C16_22  and  N1_5 
REMARK    4  A    between atoms: C1_7  and  C8_14 
REMARK    5  A    between atoms: C2_8  and  C4_10 
REMARK    6  A    between atoms: C11_17  and  C5_11 
ROOT
HETATM    1  N2  UNK     1       1.456   1.378  -4.792  1.00  0.00    -0.191 NA
HETATM    2  C5  UNK     1       3.053   2.177  -1.751  1.00  0.00    -0.015 A 
HETATM    3  C12 UNK     1       3.273   2.179  -3.129  1.00  0.00     0.057 A 
HETATM    4  C13 UNK     1       4.055   2.615  -0.885  1.00  0.00     0.015 A 
HETATM    5  C16 UNK     1       5.496   3.056  -2.773  1.00  0.00     0.104 A 
HETATM    6  C17 UNK     1       4.495   2.618  -3.639  1.00  0.00     0.059 A 
HETATM    7  C18 UNK     1       5.276   3.055  -1.395  1.00  0.00     0.037 A 
HETATM    8  C22 UNK     1       2.268   1.736  -4.049  1.00  0.00     0.100 C 
ENDROOT
BRANCH   2   9
HETATM    9  C11 UNK     1       1.793   1.726  -1.170  1.00  0.00     0.014 C 
HETATM   10  C8  UNK     1       1.533   0.463  -0.767  1.00  0.00     0.012 C 
BRANCH  10  11
HETATM   11  C1  UNK     1       0.268   0.011  -0.162  1.00  0.00    -0.036 A 
HETATM   12  C6  UNK     1      -0.880   0.765  -0.347  1.00  0.00     0.014 A 
HETATM   13  C9  UNK     1      -2.078   0.337   0.226  1.00  0.00     0.037 A 
HETATM   14  C3  UNK     1      -2.112  -0.839   0.975  1.00  0.00     0.069 A 
HETATM   15  C10 UNK     1      -0.948  -1.587   1.152  1.00  0.00     0.037 A 
HETATM   16  C7  UNK     1       0.250  -1.159   0.580  1.00  0.00     0.014 A 
BRANCH  14  17
HETATM   17  O1  UNK     1      -3.281  -1.257   1.533  1.00  0.00    -0.347 OA
BRANCH  17  18
HETATM   18  C2  UNK     1      -3.244  -2.467   2.287  1.00  0.00     0.214 C 
BRANCH  18  19
HETATM   19  C4  UNK     1      -4.625  -2.774   2.788  1.00  0.00    -0.034 A 
HETATM   20  C14 UNK     1      -5.034  -2.282   4.023  1.00  0.00     0.012 A 
HETATM   21  C19 UNK     1      -6.318  -2.567   4.488  1.00  0.00     0.043 A 
HETATM   22  C21 UNK     1      -7.183  -3.342   3.716  1.00  0.00     0.116 A 
HETATM   23  C20 UNK     1      -6.766  -3.832   2.479  1.00  0.00     0.043 A 
HETATM   24  F1  UNK     1      -8.416  -3.615   4.163  1.00  0.00    -0.206 F 
HETATM   25  C15 UNK     1      -5.482  -3.546   2.013  1.00  0.00     0.012 A 
ENDBRANCH  18  19
ENDBRANCH  17  18
ENDBRANCH  14  17
ENDBRANCH  10  11
ENDBRANCH   2   9
BRANCH   5  26
HETATM   26  N1  UNK     1       6.739   3.505  -3.292  1.00  0.00    -0.116 N 
HETATM   27  O2  UNK     1       7.626   3.896  -2.494  1.00  0.00    -0.532 OA
HETATM   28  O3  UNK     1       6.918   3.499  -4.534  1.00  0.00    -0.532 OA
ENDBRANCH   5  26
TORSDOF 6
