REMARK  6 active torsions:
REMARK  status: ('A' for Active; 'I' for Inactive)
REMARK    1  A    between atoms: C4_10  and  S1_1 
REMARK    2  A    between atoms: N2_6  and  S1_1 
REMARK    3  A    between atoms: C2_8  and  N1_5 
REMARK       I    between atoms: C5_11  and  N1_5 
REMARK    4  A    between atoms: C1_7  and  C3_9 
REMARK    5  A    between atoms: C1_7  and  C5_11 
REMARK    6  A    between atoms: C11_17  and  C6_12 
ROOT
HETATM    1  O1  UNK     1       1.264  -1.173  -0.757  1.00  0.00    -0.267 OA
HETATM    2  N1  UNK     1      -0.342   0.514  -0.533  1.00  0.00    -0.323 N 
HETATM    3  C5  UNK     1       0.906  -0.003  -0.859  1.00  0.00     0.257 C 
HETATM    4  H1  UNK     1      -0.485   1.513  -0.669  1.00  0.00     0.169 HD
ENDROOT
BRANCH   3   5
HETATM    5  C1  UNK     1       1.864   1.047  -1.374  1.00  0.00     0.043 C 
HETATM    6  C6  UNK     1       2.651   1.653  -0.447  1.00  0.00     0.029 C 
BRANCH   5   7
HETATM    7  C3  UNK     1       1.958   1.369  -2.812  1.00  0.00    -0.021 A 
HETATM    8  C12 UNK     1       2.343   2.642  -3.196  1.00  0.00     0.012 A 
HETATM    9  C16 UNK     1       2.432   2.946  -4.554  1.00  0.00     0.001 A 
HETATM   10  C18 UNK     1       2.135   1.972  -5.507  1.00  0.00     0.000 A 
HETATM   11  C17 UNK     1       1.748   0.695  -5.103  1.00  0.00     0.001 A 
HETATM   12  C13 UNK     1       1.659   0.391  -3.744  1.00  0.00     0.012 A 
ENDBRANCH   5   7
BRANCH   6  13
HETATM   13  C11 UNK     1       2.642   1.413   0.988  1.00  0.00    -0.035 A 
HETATM   14  C14 UNK     1       1.821   2.176   1.817  1.00  0.00     0.011 A 
HETATM   15  C19 UNK     1       1.811   1.945   3.193  1.00  0.00     0.001 A 
HETATM   16  C21 UNK     1       2.624   0.952   3.739  1.00  0.00     0.000 A 
HETATM   17  C20 UNK     1       3.446   0.189   2.910  1.00  0.00     0.001 A 
HETATM   18  C15 UNK     1       3.455   0.419   1.534  1.00  0.00     0.011 A 
ENDBRANCH   6  13
ENDBRANCH   3   5
BRANCH   2  19
HETATM   19  C2  UNK     1      -1.462  -0.191  -0.026  1.00  0.00     0.035 A 
HETATM   20  C7  UNK     1      -2.631   0.500   0.241  1.00  0.00     0.031 A 
HETATM   21  C9  UNK     1      -3.733  -0.194   0.741  1.00  0.00     0.027 A 
HETATM   22  C4  UNK     1      -3.648  -1.568   0.965  1.00  0.00     0.079 A 
HETATM   23  C10 UNK     1      -2.462  -2.248   0.690  1.00  0.00     0.027 A 
HETATM   24  C8  UNK     1      -1.360  -1.554   0.190  1.00  0.00     0.031 A 
BRANCH  22  25
HETATM   25  S1  UNK     1      -5.027  -2.437   1.590  1.00  0.00     0.256 S 
HETATM   26  O2  UNK     1      -6.232  -1.692   1.252  1.00  0.00    -0.201 OA
HETATM   27  O3  UNK     1      -4.908  -3.836   1.201  1.00  0.00    -0.201 OA
BRANCH  25  28
HETATM   28  N2  UNK     1      -4.756  -2.311   3.273  1.00  0.00    -0.324 N 
HETATM   29  H16 UNK     1      -5.379  -1.698   3.812  1.00  0.00     0.169 HD
HETATM   30  H17 UNK     1      -4.473  -3.162   3.775  1.00  0.00     0.169 HD
ENDBRANCH  25  28
ENDBRANCH  22  25
ENDBRANCH   2  19
TORSDOF 6
