REMARK  2 active torsions:
REMARK  status: ('A' for Active; 'I' for Inactive)
REMARK    1  A    between atoms: C10_14  and  O2_2 
REMARK    2  A    between atoms: C5_9  and  O2_2 
ROOT
HETATM    1  O1  UNK     1      -1.087  -0.320   1.791  1.00  0.00    -0.275 OA
HETATM    2  O3  UNK     1      -2.489  -1.448   3.208  1.00  0.00    -0.260 OA
HETATM    3  C1  UNK     1      -1.437  -0.499  -0.610  1.00  0.00    -0.002 A 
HETATM    4  C2  UNK     1      -0.722   0.010   0.470  1.00  0.00     0.092 A 
HETATM    5  C3  UNK     1       0.371   0.856   0.294  1.00  0.00     0.075 A 
HETATM    6  C4  UNK     1      -1.044  -0.149  -1.904  1.00  0.00     0.017 A 
HETATM    7  C5  UNK     1       0.756   1.200  -1.001  1.00  0.00     0.081 A 
HETATM    8  C6  UNK     1       0.050   0.699  -2.097  1.00  0.00     0.038 A 
HETATM    9  C7  UNK     1      -2.566  -1.377  -0.353  1.00  0.00     0.020 A 
HETATM   10  C8  UNK     1      -2.906  -1.684   0.901  1.00  0.00     0.083 A 
HETATM   11  C9  UNK     1      -2.165  -1.157   2.062  1.00  0.00     0.288 A 
ENDROOT
BRANCH   7  12
HETATM   12  O2  UNK     1       1.820   2.025  -1.198  1.00  0.00    -0.279 OA
BRANCH  12  13
HETATM   13  C10 UNK     1       3.050   1.357  -1.319  1.00  0.00     0.260 C 
HETATM   14  O4  UNK     1       3.214   0.146  -1.260  1.00  0.00    -0.265 OA
HETATM   15  C11 UNK     1       4.154   2.349  -1.533  1.00  0.00     0.126 C 
ENDBRANCH  12  13
ENDBRANCH   7  12
TORSDOF 2
