REMARK  4 active torsions:
REMARK  status: ('A' for Active; 'I' for Inactive)
REMARK    1  A    between atoms: C11_18  and  N1_5 
REMARK    2  A    between atoms: C4_11  and  N1_5 
REMARK    3  A    between atoms: C11_18  and  N2_6 
REMARK    4  A    between atoms: C12_19  and  N2_6 
ROOT
HETATM    1  N1  UNK     1      -1.189  -0.549  -2.365  1.00  0.00    -0.333 N 
HETATM    2  H8  UNK     1      -1.526  -0.649  -3.321  1.00  0.00     0.168 HD
ENDROOT
BRANCH   1   3
HETATM    3  C11 UNK     1      -2.089  -1.039  -1.409  1.00  0.00     0.177 C 
HETATM    4  S1  UNK     1      -3.319  -2.055  -1.954  1.00  0.00    -0.040 SA
BRANCH   3   5
HETATM    5  N2  UNK     1      -1.798  -0.727  -0.094  1.00  0.00    -0.318 N 
HETATM    6  H9  UNK     1      -1.068  -0.049   0.071  1.00  0.00     0.170 HD
BRANCH   5   7
HETATM    7  C12 UNK     1      -2.472  -1.049   1.111  1.00  0.00     0.129 A 
HETATM    8  N3  UNK     1      -3.667  -1.657   1.017  1.00  0.00    -0.242 NA
HETATM    9  C16 UNK     1      -4.272  -1.945   2.192  1.00  0.00     0.142 A 
HETATM   10  C15 UNK     1      -3.733  -1.652   3.434  1.00  0.00     0.051 A 
HETATM   11  C14 UNK     1      -2.493  -1.023   3.474  1.00  0.00     0.029 A 
HETATM   12 Cl1  UNK     1      -4.567  -2.053   4.877  1.00  0.00    -0.083 Cl
HETATM   13  C13 UNK     1      -1.840  -0.710   2.287  1.00  0.00     0.052 A 
ENDBRANCH   5   7
ENDBRANCH   3   5
ENDBRANCH   1   3
BRANCH   1  14
HETATM   14  C4  UNK     1      -0.027   0.213  -2.247  1.00  0.00     0.036 A 
HETATM   15  C6  UNK     1       0.787   0.077  -1.128  1.00  0.00     0.067 A 
HETATM   16  C2  UNK     1       1.946   0.849  -1.030  1.00  0.00     0.092 A 
HETATM   17  C1  UNK     1       2.323   1.757  -2.021  1.00  0.00     0.004 A 
HETATM   18  O1  UNK     1       2.730   0.667   0.127  1.00  0.00    -0.275 OA
HETATM   19  C3  UNK     1       3.560   2.528  -1.836  1.00  0.00    -0.043 A 
HETATM   20  C5  UNK     1       1.490   1.879  -3.141  1.00  0.00     0.017 A 
HETATM   21  C8  UNK     1       4.285   2.334  -0.725  1.00  0.00     0.090 A 
HETATM   22  C9  UNK     1       3.992   3.513  -2.883  1.00  0.00     0.049 C 
HETATM   23  C10 UNK     1       3.902   1.380   0.328  1.00  0.00     0.288 A 
HETATM   24  O2  UNK     1       4.591   1.229   1.331  1.00  0.00    -0.260 OA
HETATM   25  C7  UNK     1       0.324   1.112  -3.253  1.00  0.00     0.030 A 
ENDBRANCH   1  14
TORSDOF 4
