REMARK  3 active torsions:
REMARK  status: ('A' for Active; 'I' for Inactive)
REMARK    1  A    between atoms: C2_8  and  N1_6 
REMARK       I    between atoms: C7_13  and  N1_6 
REMARK    2  A    between atoms: C2_8  and  C6_12 
REMARK    3  A    between atoms: C3_9  and  C7_13 
ROOT
HETATM    1 Br1  UNK     1       5.871   4.081  -2.037  1.00  0.00    -0.051 Br
HETATM    2  O1  UNK     1       0.919   0.646  -2.736  1.00  0.00    -0.274 OA
HETATM    3  O3  UNK     1      -0.718  -0.679  -1.850  1.00  0.00    -0.259 OA
HETATM    4  C1  UNK     1       2.607   1.608  -1.274  1.00  0.00     0.000 A 
HETATM    5  C3  UNK     1       0.873   0.203  -0.331  1.00  0.00     0.108 A 
HETATM    6  C4  UNK     1       2.068   1.438  -2.546  1.00  0.00     0.089 A 
HETATM    7  C5  UNK     1       1.965   0.954  -0.145  1.00  0.00     0.037 A 
HETATM    8  C8  UNK     1       3.748   2.401  -1.126  1.00  0.00     0.033 A 
HETATM    9  C9  UNK     1       0.283   0.008  -1.675  1.00  0.00     0.304 A 
HETATM   10  C10 UNK     1       2.635   2.037  -3.669  1.00  0.00     0.039 A 
HETATM   11  C13 UNK     1       4.328   3.008  -2.244  1.00  0.00     0.011 A 
HETATM   12  C14 UNK     1       3.772   2.827  -3.512  1.00  0.00     0.022 A 
ENDROOT
BRANCH   5  13
HETATM   13  C7  UNK     1       0.298  -0.415   0.869  1.00  0.00     0.258 C 
HETATM   14  O2  UNK     1       0.402   0.126   1.969  1.00  0.00    -0.267 OA
HETATM   15  N1  UNK     1      -0.336  -1.616   0.605  1.00  0.00    -0.352 N 
HETATM   16  H4  UNK     1      -0.354  -1.988  -0.339  1.00  0.00     0.163 HD
BRANCH  15  17
HETATM   17  C2  UNK     1      -0.976  -2.410   1.629  1.00  0.00     0.161 C 
BRANCH  17  18
HETATM   18  C6  UNK     1      -2.420  -2.041   1.806  1.00  0.00    -0.040 A 
HETATM   19  C11 UNK     1      -2.770  -1.053   2.719  1.00  0.00     0.010 A 
HETATM   20  C15 UNK     1      -4.112  -0.710   2.885  1.00  0.00     0.024 A 
HETATM   21  C17 UNK     1      -5.095  -1.358   2.136  1.00  0.00     0.034 A 
HETATM   22  C16 UNK     1      -4.735  -2.348   1.221  1.00  0.00     0.024 A 
HETATM   23 Cl1  UNK     1      -6.750  -0.936   2.341  1.00  0.00    -0.084 Cl
HETATM   24  C12 UNK     1      -3.393  -2.691   1.056  1.00  0.00     0.010 A 
ENDBRANCH  17  18
ENDBRANCH  15  17
ENDBRANCH   5  13
TORSDOF 3
