REMARK  3 active torsions:
REMARK  status: ('A' for Active; 'I' for Inactive)
REMARK    1  A    between atoms: C6_10  and  O2_2 
REMARK    2  A    between atoms: C15_19  and  O3_3 
REMARK    3  A    between atoms: C2_6  and  C5_9 
ROOT
HETATM    1  O1  UNK     1       1.919   1.024   0.239  1.00  0.00    -0.271 OA
HETATM    2  O4  UNK     1       0.862   0.213   2.091  1.00  0.00    -0.259 OA
HETATM    3  C1  UNK     1       0.901   0.764  -1.949  1.00  0.00     0.002 A 
HETATM    4  C2  UNK     1      -0.263  -0.081   0.015  1.00  0.00     0.051 A 
HETATM    5  C3  UNK     1       1.950   1.211  -1.155  1.00  0.00     0.123 A 
HETATM    6  C4  UNK     1      -0.229   0.106  -1.313  1.00  0.00     0.032 A 
HETATM    7  C6  UNK     1       3.061   1.852  -1.699  1.00  0.00     0.102 A 
HETATM    8  C7  UNK     1       0.859   0.385   0.876  1.00  0.00     0.299 A 
HETATM    9  C8  UNK     1       0.966   0.966  -3.330  1.00  0.00     0.014 A 
HETATM   10  C11 UNK     1       3.119   2.049  -3.077  1.00  0.00     0.040 A 
HETATM   11  C12 UNK     1       2.074   1.607  -3.891  1.00  0.00     0.004 A 
ENDROOT
BRANCH   4  12
HETATM   12  C5  UNK     1      -1.439  -0.739   0.615  1.00  0.00    -0.020 A 
HETATM   13  C10 UNK     1      -2.526   0.027   1.035  1.00  0.00     0.015 A 
HETATM   14  C14 UNK     1      -3.639  -0.595   1.602  1.00  0.00     0.037 A 
HETATM   15  C15 UNK     1      -3.664  -1.982   1.748  1.00  0.00     0.068 A 
HETATM   16  C13 UNK     1      -2.576  -2.747   1.327  1.00  0.00     0.037 A 
HETATM   17  C9  UNK     1      -1.463  -2.125   0.760  1.00  0.00     0.015 A 
BRANCH  15  18
HETATM   18  O3  UNK     1      -4.749  -2.589   2.300  1.00  0.00    -0.356 OA
HETATM   19  C17 UNK     1      -5.826  -1.747   2.708  1.00  0.00     0.210 C 
ENDBRANCH  15  18
ENDBRANCH   4  12
BRANCH   7  20
HETATM   20  O2  UNK     1       4.081   2.284  -0.910  1.00  0.00    -0.353 OA
HETATM   21  C16 UNK     1       5.177   2.930  -1.558  1.00  0.00     0.210 C 
ENDBRANCH   7  20
TORSDOF 3
