REMARK  7 active torsions:
REMARK  status: ('A' for Active; 'I' for Inactive)
REMARK    1  A    between atoms: C5_9  and  O1_1 
REMARK    2  A    between atoms: C6_10  and  O1_1 
REMARK    3  A    between atoms: C1_5  and  C2_6 
REMARK    4  A    between atoms: C1_5  and  C3_7 
REMARK    5  A    between atoms: C1_5  and  C5_9 
REMARK    6  A    between atoms: C11_15  and  C13_17 
REMARK    7  A    between atoms: C13_17  and  C20_24 
ROOT
HETATM    1  O3  UNK     1      -3.412  -2.519  -0.200  1.00  0.00    -0.274 OA
HETATM    2  O4  UNK     1      -2.178  -3.456   1.465  1.00  0.00    -0.259 OA
HETATM    3  C6  UNK     1      -1.438  -0.537  -0.470  1.00  0.00     0.104 A 
HETATM    4  C11 UNK     1      -1.269  -1.501   0.455  1.00  0.00     0.057 A 
HETATM    5  C12 UNK     1      -2.626  -0.515  -1.326  1.00  0.00     0.033 A 
HETATM    6  C14 UNK     1      -3.582  -1.513  -1.165  1.00  0.00     0.092 A 
HETATM    7  C19 UNK     1      -2.299  -2.567   0.628  1.00  0.00     0.297 A 
HETATM    8  C23 UNK     1      -2.856   0.459  -2.307  1.00  0.00     0.017 A 
HETATM    9  C24 UNK     1      -4.741  -1.565  -1.940  1.00  0.00     0.038 A 
HETATM   10  C25 UNK     1      -4.013   0.421  -3.093  1.00  0.00     0.001 A 
HETATM   11  C28 UNK     1      -4.955  -0.591  -2.909  1.00  0.00     0.003 A 
ENDROOT
BRANCH   3  12
HETATM   12  O1  UNK     1      -0.550   0.492  -0.699  1.00  0.00    -0.276 OA
BRANCH  12  13
HETATM   13  C5  UNK     1       0.418   0.215  -1.642  1.00  0.00     0.281 C 
HETATM   14  O2  UNK     1       0.546  -0.851  -2.236  1.00  0.00    -0.263 OA
BRANCH  13  15
HETATM   15  C1  UNK     1       1.361   1.436  -1.821  1.00  0.00     0.099 C 
HETATM   16  C4  UNK     1       0.708   2.243  -2.982  1.00  0.00     0.037 C 
BRANCH  15  17
HETATM   17  C2  UNK     1       1.407   2.234  -0.493  1.00  0.00    -0.035 A 
HETATM   18  C7  UNK     1       1.930   1.615   0.607  1.00  0.00     0.009 A 
HETATM   19  C15 UNK     1       1.971   2.333   1.802  1.00  0.00     0.001 A 
HETATM   20  C21 UNK     1       1.488   3.641   1.847  1.00  0.00     0.000 A 
HETATM   21  C17 UNK     1       0.964   4.231   0.696  1.00  0.00     0.001 A 
HETATM   22  C9  UNK     1       0.923   3.512  -0.499  1.00  0.00     0.009 A 
ENDBRANCH  15  17
BRANCH  15  23
HETATM   23  C3  UNK     1       2.799   1.030  -2.231  1.00  0.00    -0.035 A 
HETATM   24  C10 UNK     1       3.506   1.891  -3.023  1.00  0.00     0.009 A 
HETATM   25  C18 UNK     1       4.800   1.526  -3.392  1.00  0.00     0.001 A 
HETATM   26  C22 UNK     1       5.335   0.314  -2.954  1.00  0.00     0.000 A 
HETATM   27  C16 UNK     1       4.574  -0.532  -2.147  1.00  0.00     0.001 A 
HETATM   28  C8  UNK     1       3.280  -0.166  -1.778  1.00  0.00     0.009 A 
ENDBRANCH  15  23
ENDBRANCH  13  15
ENDBRANCH  12  13
ENDBRANCH   3  12
BRANCH   4  29
HETATM   29  C13 UNK     1      -0.089  -1.631   1.380  1.00  0.00     0.086 C 
BRANCH  29  30
HETATM   30  C20 UNK     1      -0.419  -1.214   2.783  1.00  0.00    -0.054 A 
HETATM   31  C26 UNK     1      -1.138  -0.044   3.002  1.00  0.00     0.007 A 
HETATM   32  C29 UNK     1      -1.444   0.344   4.306  1.00  0.00     0.001 A 
HETATM   33  C31 UNK     1      -1.029  -0.440   5.383  1.00  0.00     0.000 A 
HETATM   34  C30 UNK     1      -0.308  -1.611   5.155  1.00  0.00     0.001 A 
HETATM   35  C27 UNK     1      -0.001  -2.000   3.851  1.00  0.00     0.007 A 
ENDBRANCH  29  30
ENDBRANCH   4  29
TORSDOF 7
