REMARK  3 active torsions:
REMARK  status: ('A' for Active; 'I' for Inactive)
REMARK    1  A    between atoms: C12_17  and  O2_3 
REMARK    2  A    between atoms: C13_18  and  O3_4 
REMARK    3  A    between atoms: C2_7  and  C4_9 
ROOT
HETATM    1 Cl1  UNK     1      -3.792  -2.576   4.445  1.00  0.00    -0.084 Cl
HETATM    2  O1  UNK     1      -2.817  -0.472  -0.966  1.00  0.00    -0.274 OA
HETATM    3  O4  UNK     1      -1.447   0.394  -2.560  1.00  0.00    -0.259 OA
HETATM    4  C1  UNK     1      -0.597  -0.571   0.795  1.00  0.00    -0.032 A 
HETATM    5  C2  UNK     1      -0.445  -0.100  -0.462  1.00  0.00     0.057 A 
HETATM    6  C3  UNK     1      -1.932  -1.031   1.233  1.00  0.00     0.006 A 
HETATM    7  C5  UNK     1      -2.995  -0.966   0.336  1.00  0.00     0.090 A 
HETATM    8  C6  UNK     1      -1.586  -0.032  -1.418  1.00  0.00     0.300 A 
HETATM    9  C7  UNK     1       0.528  -0.660   1.799  1.00  0.00     0.050 C 
HETATM   10  C9  UNK     1      -2.204  -1.539   2.513  1.00  0.00     0.038 A 
HETATM   11  C11 UNK     1      -4.287  -1.381   0.671  1.00  0.00     0.040 A 
HETATM   12  C15 UNK     1      -3.492  -1.959   2.865  1.00  0.00     0.035 A 
HETATM   13  C16 UNK     1      -4.534  -1.880   1.944  1.00  0.00     0.026 A 
ENDROOT
BRANCH   5  14
HETATM   14  C4  UNK     1       0.858   0.362  -0.934  1.00  0.00    -0.017 A 
HETATM   15  C10 UNK     1       1.731  -0.534  -1.544  1.00  0.00     0.015 A 
HETATM   16  C14 UNK     1       2.974  -0.093  -1.995  1.00  0.00     0.040 A 
HETATM   17  C13 UNK     1       3.340   1.244  -1.833  1.00  0.00     0.101 A 
HETATM   18  C12 UNK     1       2.463   2.138  -1.221  1.00  0.00     0.102 A 
HETATM   19  C8  UNK     1       1.219   1.697  -0.771  1.00  0.00     0.052 A 
BRANCH  17  20
HETATM   20  O3  UNK     1       4.558   1.663  -2.277  1.00  0.00    -0.353 OA
HETATM   21  C18 UNK     1       4.630   2.138  -3.620  1.00  0.00     0.210 C 
ENDBRANCH  17  20
BRANCH  18  22
HETATM   22  O2  UNK     1       2.809   3.446  -1.058  1.00  0.00    -0.353 OA
HETATM   23  C17 UNK     1       3.482   3.792   0.151  1.00  0.00     0.210 C 
ENDBRANCH  18  22
ENDBRANCH   5  14
TORSDOF 3
