REMARK  3 active torsions:
REMARK  status: ('A' for Active; 'I' for Inactive)
REMARK    1  A    between atoms: C1_5  and  C6_10 
REMARK    2  A    between atoms: C2_6  and  C4_8 
REMARK    3  A    between atoms: C3_7  and  C8_12 
ROOT
HETATM    1  N1  UNK     1      -0.056   0.027   1.153  1.00  0.00    -0.338 N 
HETATM    2  N2  UNK     1      -0.988   0.105  -0.861  1.00  0.00    -0.227 NA
HETATM    3  C1  UNK     1      -1.264  -0.600   1.275  1.00  0.00     0.074 A 
HETATM    4  C2  UNK     1       0.069   0.436  -0.148  1.00  0.00     0.145 A 
HETATM    5  C3  UNK     1      -1.821  -0.539   0.019  1.00  0.00     0.097 A 
HETATM    6  H1  UNK     1       0.622   0.149   1.894  1.00  0.00     0.167 HD
ENDROOT
BRANCH   4   7
HETATM    7  C4  UNK     1       1.340   1.162  -0.533  1.00  0.00     0.083 A 
HETATM    8  C10 UNK     1       2.028   1.918   0.333  1.00  0.00     0.162 A 
HETATM    9  O1  UNK     1       3.190   2.608   0.086  1.00  0.00    -0.321 OA
HETATM   10  C9  UNK     1       3.733   2.506  -1.169  1.00  0.00     0.089 A 
HETATM   11  C13 UNK     1       4.929   3.186  -1.405  1.00  0.00     0.039 A 
HETATM   12  C5  UNK     1       3.138   1.765  -2.189  1.00  0.00     0.049 A 
HETATM   13  C16 UNK     1       5.527   3.121  -2.663  1.00  0.00     0.009 A 
HETATM   14  C12 UNK     1       4.931   2.379  -3.684  1.00  0.00    -0.061 A 
HETATM   15  C11 UNK     1       3.734   1.699  -3.451  1.00  0.00     0.025 A 
HETATM   16  C19 UNK     1       5.575   2.314  -5.028  1.00  0.00     0.048 C 
HETATM   17  C7  UNK     1       1.871   1.061  -1.919  1.00  0.00     0.200 A 
HETATM   18  O2  UNK     1       1.287   0.445  -2.800  1.00  0.00    -0.286 OA
ENDBRANCH   4   7
BRANCH   3  19
HETATM   19  C6  UNK     1      -1.729  -1.159   2.520  1.00  0.00    -0.007 A 
HETATM   20  C14 UNK     1      -1.436  -2.485   2.841  1.00  0.00     0.014 A 
HETATM   21  C20 UNK     1      -1.886  -3.028   4.045  1.00  0.00     0.001 A 
HETATM   22  C24 UNK     1      -2.629  -2.245   4.928  1.00  0.00     0.000 A 
HETATM   23  C21 UNK     1      -2.923  -0.919   4.607  1.00  0.00     0.001 A 
HETATM   24  C15 UNK     1      -2.473  -0.377   3.404  1.00  0.00     0.014 A 
ENDBRANCH   3  19
BRANCH   5  25
HETATM   25  C8  UNK     1      -3.099  -1.067  -0.352  1.00  0.00    -0.005 A 
HETATM   26  C17 UNK     1      -4.243  -0.271  -0.253  1.00  0.00     0.014 A 
HETATM   27  C22 UNK     1      -5.488  -0.786  -0.615  1.00  0.00     0.001 A 
HETATM   28  C25 UNK     1      -5.593  -2.098  -1.076  1.00  0.00     0.000 A 
HETATM   29  C23 UNK     1      -4.453  -2.895  -1.176  1.00  0.00     0.001 A 
HETATM   30  C18 UNK     1      -3.207  -2.381  -0.815  1.00  0.00     0.014 A 
ENDBRANCH   5  25
TORSDOF 3
