REMARK  4 active torsions:
REMARK  status: ('A' for Active; 'I' for Inactive)
REMARK    1  A    between atoms: C11_15  and  O2_2 
REMARK    2  A    between atoms: C13_17  and  O2_2 
REMARK    3  A    between atoms: C14_18  and  O4_4 
REMARK    4  A    between atoms: C13_17  and  C14_18 
ROOT
HETATM    1  O1  UNK     1      -0.196   0.336  -2.054  1.00  0.00    -0.274 OA
HETATM    2  O3  UNK     1       0.969   0.982  -3.925  1.00  0.00    -0.259 OA
HETATM    3  C1  UNK     1       3.278   1.521   0.131  1.00  0.00     0.040 C 
HETATM    4  C2  UNK     1       2.011   1.073  -0.511  1.00  0.00    -0.033 A 
HETATM    5  C3  UNK     1       3.972   2.275  -1.010  1.00  0.00     0.009 C 
HETATM    6  C4  UNK     1       3.339   1.778  -2.313  1.00  0.00     0.046 C 
HETATM    7  C5  UNK     1       2.045   1.216  -1.838  1.00  0.00     0.025 A 
HETATM    8  C6  UNK     1       0.844   0.529   0.153  1.00  0.00     0.005 A 
HETATM    9  C7  UNK     1      -0.244   0.172  -0.648  1.00  0.00     0.092 A 
HETATM   10  C8  UNK     1       0.925   0.849  -2.708  1.00  0.00     0.295 A 
HETATM   11  C9  UNK     1       0.749   0.341   1.533  1.00  0.00     0.017 A 
HETATM   12  C10 UNK     1      -1.413  -0.360  -0.107  1.00  0.00     0.075 A 
HETATM   13  C11 UNK     1      -1.497  -0.540   1.271  1.00  0.00     0.071 A 
HETATM   14  C12 UNK     1      -0.419  -0.192   2.089  1.00  0.00     0.038 A 
ENDROOT
BRANCH  13  15
HETATM   15  O2  UNK     1      -2.629  -1.058   1.823  1.00  0.00    -0.349 OA
BRANCH  15  16
HETATM   16  C13 UNK     1      -3.691  -1.392   0.931  1.00  0.00     0.201 C 
BRANCH  16  17
HETATM   17  C14 UNK     1      -4.843  -1.971   1.730  1.00  0.00     0.190 C 
BRANCH  17  18
HETATM   18  O4  UNK     1      -4.403  -3.149   2.394  1.00  0.00    -0.399 OA
HETATM   19  H14 UNK     1      -4.130  -3.786   1.712  1.00  0.00     0.209 HD
ENDBRANCH  17  18
ENDBRANCH  16  17
ENDBRANCH  15  16
ENDBRANCH  13  15
TORSDOF 4
