REMARK  12 active torsions:
REMARK  status: ('A' for Active; 'I' for Inactive)
REMARK    1  A    between atoms: C10_14  and  N1_4 
REMARK       I    between atoms: C13_17  and  N1_4 
REMARK    2  A    between atoms: C1_5  and  C2_6 
REMARK    3  A    between atoms: C1_5  and  C3_7 
REMARK    4  A    between atoms: C2_6  and  C4_8 
REMARK    5  A    between atoms: C3_7  and  C5_9 
REMARK    6  A    between atoms: C4_8  and  C6_10 
REMARK    7  A    between atoms: C5_9  and  C7_11 
REMARK    8  A    between atoms: C6_10  and  C8_12 
REMARK    9  A    between atoms: C7_11  and  C9_13 
REMARK   10  A    between atoms: C10_14  and  C8_12 
REMARK   11  A    between atoms: C11_15  and  C9_13 
REMARK   12  A    between atoms: C13_17  and  C14_18 
ROOT
HETATM    1  O2  UNK     1      -4.283  -0.229  -0.987  1.00  0.00    -0.267 OA
HETATM    2  N1  UNK     1      -2.345  -1.487  -1.307  1.00  0.00    -0.357 N 
HETATM    3  C13 UNK     1      -3.353  -0.904  -0.557  1.00  0.00     0.257 C 
HETATM    4  H26 UNK     1      -1.626  -2.030  -0.838  1.00  0.00     0.162 HD
ENDROOT
BRANCH   2   5
HETATM    5  C10 UNK     1      -2.262  -1.368  -2.737  1.00  0.00     0.123 C 
BRANCH   5   6
HETATM    6  C8  UNK     1      -1.448  -0.155  -3.173  1.00  0.00     0.020 C 
BRANCH   6   7
HETATM    7  C6  UNK     1       0.001  -0.210  -2.680  1.00  0.00     0.002 C 
BRANCH   7   8
HETATM    8  C4  UNK     1       0.806   0.990  -3.186  1.00  0.00     0.000 C 
BRANCH   8   9
HETATM    9  C2  UNK     1       2.245   0.950  -2.668  1.00  0.00     0.000 C 
BRANCH   9  10
HETATM   10  C1  UNK     1       3.088   2.146  -3.119  1.00  0.00     0.000 C 
BRANCH  10  11
HETATM   11  C3  UNK     1       4.548   2.069  -2.663  1.00  0.00     0.000 C 
BRANCH  11  12
HETATM   12  C5  UNK     1       5.357   3.252  -3.203  1.00  0.00     0.000 C 
BRANCH  12  13
HETATM   13  C7  UNK     1       6.823   3.240  -2.760  1.00  0.00     0.000 C 
BRANCH  13  14
HETATM   14  C9  UNK     1       7.613   4.460  -3.237  1.00  0.00    -0.000 C 
BRANCH  14  15
HETATM   15  C11 UNK     1       9.047   4.432  -2.707  1.00  0.00    -0.005 C 
HETATM   16  C12 UNK     1       9.827   5.661  -3.146  1.00  0.00     0.005 C 
ENDBRANCH  14  15
ENDBRANCH  13  14
ENDBRANCH  12  13
ENDBRANCH  11  12
ENDBRANCH  10  11
ENDBRANCH   9  10
ENDBRANCH   8   9
ENDBRANCH   7   8
ENDBRANCH   6   7
ENDBRANCH   5   6
ENDBRANCH   2   5
BRANCH   3  17
HETATM   17  C14 UNK     1      -3.223  -1.171   0.887  1.00  0.00     0.108 A 
HETATM   18  C15 UNK     1      -4.245  -1.816   1.463  1.00  0.00     0.037 A 
HETATM   19  C16 UNK     1      -4.209  -2.125   2.884  1.00  0.00    -0.001 A 
HETATM   20  C18 UNK     1      -3.099  -1.739   3.629  1.00  0.00     0.089 A 
HETATM   21  C19 UNK     1      -5.251  -2.797   3.527  1.00  0.00     0.014 A 
HETATM   22  O1  UNK     1      -2.027  -1.060   3.016  1.00  0.00    -0.274 OA
HETATM   23  C20 UNK     1      -3.002  -2.004   4.993  1.00  0.00     0.038 A 
HETATM   24  C17 UNK     1      -2.033  -0.751   1.659  1.00  0.00     0.304 A 
HETATM   25  O3  UNK     1      -1.096  -0.159   1.135  1.00  0.00    -0.259 OA
HETATM   26  C22 UNK     1      -4.047  -2.674   5.627  1.00  0.00     0.003 A 
HETATM   27  C21 UNK     1      -5.169  -3.070   4.895  1.00  0.00     0.001 A 
ENDBRANCH   3  17
TORSDOF 12
