REMARK  6 active torsions:
REMARK  status: ('A' for Active; 'I' for Inactive)
REMARK    1  A    between atoms: C26_33  and  O4_4 
REMARK    2  A    between atoms: C5_12  and  N1_5 
REMARK    3  A    between atoms: C6_13  and  N2_6 
REMARK    4  A    between atoms: C5_12  and  C7_14 
REMARK    5  A    between atoms: C6_13  and  C8_15 
REMARK    6  A    between atoms: C14_21  and  C20_27 
ROOT
HETATM    1  N1  UNK     1      -2.136  -1.496  -0.259  1.00  0.00     0.096 N 
HETATM    2  N2  UNK     1      -0.815   0.111  -2.266  1.00  0.00     0.097 N 
HETATM    3  C1  UNK     1      -2.435  -1.662  -1.687  1.00  0.00     0.303 C 
HETATM    4  C2  UNK     1      -0.756  -1.031  -0.076  1.00  0.00     0.303 C 
HETATM    5  C3  UNK     1      -2.195  -0.355  -2.450  1.00  0.00     0.303 C 
HETATM    6  C4  UNK     1      -0.514   0.276  -0.839  1.00  0.00     0.303 C 
ENDROOT
BRANCH   2   7
HETATM    7  C6  UNK     1      -0.588   1.360  -2.992  1.00  0.00     0.334 C 
BRANCH   7   8
HETATM    8  C8  UNK     1       0.875   1.514  -3.261  1.00  0.00     0.095 A 
HETATM    9  C10 UNK     1       1.603   1.086  -4.343  1.00  0.00     0.078 A 
HETATM   10  O1  UNK     1       2.900   1.454  -4.147  1.00  0.00    -0.294 OA
HETATM   11  C16 UNK     1       1.295   0.363  -5.581  1.00  0.00     0.079 C 
HETATM   12  C14 UNK     1       2.872   2.090  -2.944  1.00  0.00     0.180 A 
HETATM   13  N3  UNK     1       1.693   2.157  -2.368  1.00  0.00    -0.224 NA
BRANCH  12  14
HETATM   14  C20 UNK     1       4.139   2.592  -2.487  1.00  0.00     0.017 A 
HETATM   15  C22 UNK     1       5.282   2.410  -3.265  1.00  0.00     0.018 A 
HETATM   16  C24 UNK     1       6.511   2.898  -2.822  1.00  0.00     0.037 A 
HETATM   17  C26 UNK     1       6.597   3.567  -1.602  1.00  0.00     0.068 A 
HETATM   18  C25 UNK     1       5.454   3.749  -0.824  1.00  0.00     0.037 A 
HETATM   19  C23 UNK     1       4.224   3.261  -1.267  1.00  0.00     0.018 A 
BRANCH  17  20
HETATM   20  O4  UNK     1       7.797   4.043  -1.169  1.00  0.00    -0.356 OA
HETATM   21  C27 UNK     1       7.814   4.717   0.088  1.00  0.00     0.210 C 
ENDBRANCH  17  20
ENDBRANCH  12  14
ENDBRANCH   7   8
ENDBRANCH   2   7
BRANCH   1  22
HETATM   22  C5  UNK     1      -2.365  -2.743   0.467  1.00  0.00     0.312 C 
BRANCH  22  23
HETATM   23  C7  UNK     1      -2.610  -2.512   1.918  1.00  0.00    -0.011 A 
HETATM   24  C11 UNK     1      -1.599  -2.491   2.797  1.00  0.00     0.092 A 
HETATM   25  C15 UNK     1      -1.793  -2.266   4.240  1.00  0.00     0.288 A 
HETATM   26  O2  UNK     1      -3.096  -2.070   4.670  1.00  0.00    -0.275 OA
HETATM   27  O3  UNK     1      -0.843  -2.254   5.015  1.00  0.00    -0.260 OA
HETATM   28  C12 UNK     1      -4.179  -2.087   3.769  1.00  0.00     0.090 A 
HETATM   29  C9  UNK     1      -3.980  -2.301   2.405  1.00  0.00     0.006 A 
HETATM   30  C17 UNK     1      -5.448  -1.878   4.314  1.00  0.00     0.045 A 
HETATM   31  C13 UNK     1      -5.110  -2.303   1.575  1.00  0.00     0.015 A 
HETATM   32  C18 UNK     1      -6.388  -2.096   2.107  1.00  0.00     0.007 A 
HETATM   33  C19 UNK     1      -6.556  -1.884   3.474  1.00  0.00    -0.059 A 
HETATM   34  C21 UNK     1      -7.921  -1.663   4.033  1.00  0.00     0.048 C 
ENDBRANCH  22  23
ENDBRANCH   1  22
TORSDOF 6
