REMARK  1 active torsions:
REMARK  status: ('A' for Active; 'I' for Inactive)
REMARK       I    between atoms: C8_12  and  N1_4 
REMARK    1  A    between atoms: C8_12  and  C9_13 
ROOT
HETATM    1  O2  UNK     1      -3.003  -0.314  -0.347  1.00  0.00    -0.274 OA
HETATM    2  O3  UNK     1      -2.199   0.450  -2.345  1.00  0.00    -0.259 OA
HETATM    3  C9  UNK     1      -0.610  -0.445  -0.833  1.00  0.00     0.108 A 
HETATM    4  C10 UNK     1      -0.371  -1.004   0.359  1.00  0.00     0.037 A 
HETATM    5  C11 UNK     1      -1.977  -0.063  -1.254  1.00  0.00     0.304 A 
HETATM    6  C12 UNK     1      -1.466  -1.254   1.285  1.00  0.00    -0.001 A 
HETATM    7  C13 UNK     1      -2.758  -0.903   0.909  1.00  0.00     0.089 A 
HETATM    8  C14 UNK     1      -1.263  -1.836   2.538  1.00  0.00     0.014 A 
HETATM    9  C15 UNK     1      -3.850  -1.116   1.748  1.00  0.00     0.038 A 
HETATM   10  C16 UNK     1      -2.348  -2.056   3.391  1.00  0.00     0.001 A 
HETATM   11  C17 UNK     1      -3.639  -1.697   2.996  1.00  0.00     0.003 A 
ENDROOT
BRANCH   3  12
HETATM   12  C8  UNK     1       0.565  -0.232  -1.700  1.00  0.00     0.260 C 
HETATM   13  O1  UNK     1       0.879  -1.143  -2.468  1.00  0.00    -0.267 OA
HETATM   14  N1  UNK     1       1.242   0.980  -1.590  1.00  0.00    -0.347 N 
HETATM   15  C4  UNK     1       2.417   1.225  -2.430  1.00  0.00     0.130 C 
HETATM   16  C5  UNK     1       0.880   2.108  -0.720  1.00  0.00     0.130 C 
HETATM   17  C1  UNK     1       3.640   1.561  -1.567  1.00  0.00    -0.000 C 
HETATM   18  C3  UNK     1       3.325   2.723  -0.609  1.00  0.00     0.011 C 
HETATM   19  C6  UNK     1       4.845   1.896  -2.444  1.00  0.00     0.011 C 
HETATM   20  C2  UNK     1       2.042   2.490   0.208  1.00  0.00    -0.000 C 
HETATM   21  C7  UNK     1       2.247   1.442   1.305  1.00  0.00     0.011 C 
ENDBRANCH   3  12
TORSDOF 1
