REMARK  3 active torsions:
REMARK  status: ('A' for Active; 'I' for Inactive)
REMARK    1  A    between atoms: C6_9  and  N1_2 
REMARK    2  A    between atoms: C11_14  and  C12_15 
REMARK    3  A    between atoms: C13_16  and  C14_17 
ROOT
HETATM    1  N2  UNK     1      -3.016  -1.897   4.397  1.00  0.00    -0.191 NA
HETATM    2  C12 UNK     1      -0.484  -0.528   2.549  1.00  0.00     0.034 C 
HETATM    3  C13 UNK     1      -1.715  -1.002   2.342  1.00  0.00     0.055 C 
HETATM    4  C19 UNK     1      -2.432  -1.496   3.478  1.00  0.00     0.100 C 
ENDROOT
BRANCH   3   5
HETATM    5  C14 UNK     1      -2.383  -1.068   1.027  1.00  0.00    -0.015 A 
HETATM    6  C15 UNK     1      -3.156   0.001   0.608  1.00  0.00     0.016 A 
HETATM    7  C17 UNK     1      -3.787  -0.061  -0.634  1.00  0.00     0.043 A 
HETATM    8  C20 UNK     1      -3.635  -1.190  -1.438  1.00  0.00     0.116 A 
HETATM    9  C18 UNK     1      -2.852  -2.258  -1.000  1.00  0.00     0.043 A 
HETATM   10  F1  UNK     1      -4.241  -1.249  -2.631  1.00  0.00    -0.206 F 
HETATM   11  C16 UNK     1      -2.221  -2.196   0.243  1.00  0.00     0.016 A 
ENDBRANCH   3   5
BRANCH   2  12
HETATM   12  C11 UNK     1       0.356   0.017   1.495  1.00  0.00    -0.035 A 
HETATM   13  C10 UNK     1       0.325   1.383   1.214  1.00  0.00     0.013 A 
HETATM   14  C8  UNK     1       1.130   1.905   0.202  1.00  0.00     0.030 A 
HETATM   15  C6  UNK     1       1.982   1.072  -0.548  1.00  0.00     0.030 A 
HETATM   16  C7  UNK     1       1.998  -0.304  -0.248  1.00  0.00     0.030 A 
HETATM   17  C9  UNK     1       1.193  -0.826   0.764  1.00  0.00     0.013 A 
BRANCH  15  18
HETATM   18  N1  UNK     1       2.792   1.596  -1.563  1.00  0.00    -0.381 N 
HETATM   19  C4  UNK     1       3.279   2.976  -1.457  1.00  0.00     0.123 C 
HETATM   20  C2  UNK     1       4.544   3.165  -2.294  1.00  0.00     0.020 C 
HETATM   21  C1  UNK     1       4.339   2.705  -3.732  1.00  0.00     0.003 C 
HETATM   22  C3  UNK     1       3.858   1.259  -3.758  1.00  0.00     0.020 C 
HETATM   23  C5  UNK     1       2.592   1.077  -2.924  1.00  0.00     0.123 C 
ENDBRANCH  15  18
ENDBRANCH   2  12
TORSDOF 3
