REMARK  4 active torsions:
REMARK  status: ('A' for Active; 'I' for Inactive)
REMARK    1  A    between atoms: C15_22  and  O3_3 
REMARK    2  A    between atoms: C18_25  and  O5_5 
REMARK    3  A    between atoms: C5_12  and  N1_6 
REMARK       I    between atoms: C6_13  and  N2_7 
REMARK    4  A    between atoms: C6_13  and  C7_14 
ROOT
HETATM    1  O1  UNK     1       0.479  -0.259   3.455  1.00  0.00    -0.267 OA
HETATM    2  N1  UNK     1       2.435   1.422  -0.892  1.00  0.00    -0.378 N 
HETATM    3  N2  UNK     1       0.749   0.471   1.261  1.00  0.00    -0.345 N 
HETATM    4  C1  UNK     1       3.005   0.792   0.302  1.00  0.00     0.143 C 
HETATM    5  C2  UNK     1       0.994   1.682  -0.913  1.00  0.00     0.143 C 
HETATM    6  C3  UNK     1       2.091   0.993   1.509  1.00  0.00     0.146 C 
HETATM    7  C4  UNK     1       0.238   0.627  -0.105  1.00  0.00     0.146 C 
HETATM    8  C6  UNK     1       0.050  -0.128   2.308  1.00  0.00     0.260 C 
ENDROOT
BRANCH   8   9
HETATM    9  C7  UNK     1      -1.299  -0.650   2.006  1.00  0.00     0.108 A 
HETATM   10  C10 UNK     1      -1.362  -1.922   1.596  1.00  0.00     0.037 A 
HETATM   11  C13 UNK     1      -2.646  -2.527   1.275  1.00  0.00     0.002 A 
HETATM   12  C16 UNK     1      -3.801  -1.761   1.402  1.00  0.00     0.123 A 
HETATM   13  C17 UNK     1      -2.760  -3.850   0.844  1.00  0.00     0.014 A 
HETATM   14  O2  UNK     1      -3.727  -0.422   1.835  1.00  0.00    -0.271 OA
HETATM   15  C18 UNK     1      -5.061  -2.279   1.111  1.00  0.00     0.102 A 
HETATM   16  C14 UNK     1      -2.514   0.183   2.150  1.00  0.00     0.304 A 
HETATM   17  O4  UNK     1      -2.460   1.349   2.526  1.00  0.00    -0.259 OA
HETATM   18  C20 UNK     1      -5.165  -3.600   0.681  1.00  0.00     0.040 A 
HETATM   19  C19 UNK     1      -4.017  -4.384   0.548  1.00  0.00     0.004 A 
BRANCH  15  20
HETATM   20  O5  UNK     1      -6.181  -1.519   1.239  1.00  0.00    -0.353 OA
HETATM   21  C22 UNK     1      -6.596  -0.773   0.095  1.00  0.00     0.210 C 
ENDBRANCH  15  20
ENDBRANCH   8   9
BRANCH   2  22
HETATM   22  C5  UNK     1       3.256   1.816  -1.945  1.00  0.00     0.030 A 
HETATM   23  C8  UNK     1       4.462   1.134  -2.234  1.00  0.00     0.032 A 
HETATM   24  C11 UNK     1       5.284   1.529  -3.290  1.00  0.00     0.039 A 
HETATM   25  C15 UNK     1       4.924   2.616  -4.086  1.00  0.00     0.068 A 
HETATM   26  C12 UNK     1       3.741   3.309  -3.827  1.00  0.00     0.039 A 
HETATM   27  C9  UNK     1       2.919   2.915  -2.771  1.00  0.00     0.032 A 
BRANCH  25  28
HETATM   28  O3  UNK     1       5.726   3.000  -5.116  1.00  0.00    -0.356 OA
HETATM   29  C21 UNK     1       5.298   4.120  -5.890  1.00  0.00     0.210 C 
ENDBRANCH  25  28
ENDBRANCH   2  22
TORSDOF 4
