REMARK  5 active torsions:
REMARK  status: ('A' for Active; 'I' for Inactive)
REMARK    1  A    between atoms: C6_16  and  S1_2 
REMARK    2  A    between atoms: N1_8  and  S1_2 
REMARK    3  A    between atoms: C5_15  and  N2_9 
REMARK    4  A    between atoms: C5_15  and  N3_10 
REMARK    5  A    between atoms: C9_19  and  N3_10 
ROOT
HETATM    1  N1  UNK     1       0.716   1.312  -2.125  1.00  0.00    -0.203 NA
HETATM    2  N2  UNK     1      -0.021   1.412   0.603  1.00  0.00    -0.356 N 
HETATM    3  C1  UNK     1       0.624   2.632  -1.427  1.00  0.00     0.127 C 
HETATM    4  C2  UNK     1       1.154   0.225  -1.195  1.00  0.00     0.127 C 
HETATM    5  C3  UNK     1      -0.366   2.526  -0.272  1.00  0.00     0.140 C 
HETATM    6  C4  UNK     1       0.164   0.118  -0.041  1.00  0.00     0.140 C 
ENDROOT
BRANCH   2   7
HETATM    7  C5  UNK     1       0.045   1.557   1.949  1.00  0.00     0.174 C 
HETATM    8  S2  UNK     1       0.645   2.976   2.611  1.00  0.00    -0.041 SA
BRANCH   7   9
HETATM    9  N3  UNK     1      -0.320   0.519   2.767  1.00  0.00    -0.333 N 
HETATM   10  H9  UNK     1       0.170   0.484   3.658  1.00  0.00     0.168 HD
BRANCH   9  11
HETATM   11  C9  UNK     1      -1.278  -0.509   2.597  1.00  0.00     0.036 A 
HETATM   12  C12 UNK     1      -2.392  -0.275   1.815  1.00  0.00     0.067 A 
HETATM   13  C15 UNK     1      -3.324  -1.303   1.660  1.00  0.00     0.092 A 
HETATM   14  C14 UNK     1      -3.166  -2.550   2.267  1.00  0.00     0.004 A 
HETATM   15  O3  UNK     1      -4.445  -1.021   0.854  1.00  0.00    -0.275 OA
HETATM   16  C17 UNK     1      -2.024  -2.750   3.053  1.00  0.00     0.017 A 
HETATM   17  C18 UNK     1      -4.197  -3.573   2.049  1.00  0.00    -0.043 A 
HETATM   18  C13 UNK     1      -1.080  -1.729   3.217  1.00  0.00     0.030 A 
HETATM   19  C19 UNK     1      -5.253  -3.278   1.278  1.00  0.00     0.090 A 
HETATM   20  C20 UNK     1      -4.057  -4.924   2.688  1.00  0.00     0.049 C 
HETATM   21  C21 UNK     1      -5.433  -1.967   0.631  1.00  0.00     0.288 A 
HETATM   22  O4  UNK     1      -6.412  -1.733  -0.069  1.00  0.00    -0.260 OA
ENDBRANCH   9  11
ENDBRANCH   7   9
ENDBRANCH   2   7
BRANCH   1  23
HETATM   23  S1  UNK     1       1.512   1.341  -3.643  1.00  0.00     0.243 S 
HETATM   24  O1  UNK     1       1.112   2.531  -4.362  1.00  0.00    -0.206 OA
HETATM   25  O2  UNK     1       1.409   0.031  -4.250  1.00  0.00    -0.206 OA
BRANCH  23  26
HETATM   26  C6  UNK     1       3.180   1.565  -3.111  1.00  0.00     0.074 A 
HETATM   27  C8  UNK     1       3.675   2.850  -2.959  1.00  0.00     0.026 A 
HETATM   28  C11 UNK     1       4.993   3.028  -2.537  1.00  0.00     0.025 A 
HETATM   29  C16 UNK     1       5.797   1.918  -2.274  1.00  0.00     0.034 A 
HETATM   30  C10 UNK     1       5.283   0.631  -2.432  1.00  0.00     0.025 A 
HETATM   31 Cl1  UNK     1       7.422   2.137  -1.753  1.00  0.00    -0.084 Cl
HETATM   32  C7  UNK     1       3.965   0.454  -2.854  1.00  0.00     0.026 A 
ENDBRANCH  23  26
ENDBRANCH   1  23
TORSDOF 5
