REMARK  7 active torsions:
REMARK  status: ('A' for Active; 'I' for Inactive)
REMARK    1  A    between atoms: C1_7  and  O1_1 
REMARK    2  A    between atoms: C3_9  and  O2_2 
REMARK    3  A    between atoms: C6_12  and  O2_2 
REMARK    4  A    between atoms: C2_8  and  O3_3 
REMARK    5  A    between atoms: C7_13  and  O5_5 
REMARK    6  A    between atoms: C1_7  and  C2_8 
REMARK    7  A    between atoms: C2_8  and  C3_9 
ROOT
HETATM    1  O4  UNK     1       3.199   1.349  -0.128  1.00  0.00    -0.275 OA
HETATM    2  O6  UNK     1       5.092   2.638  -0.157  1.00  0.00    -0.260 OA
HETATM    3  C6  UNK     1       0.059  -0.447  -0.746  1.00  0.00     0.104 A 
HETATM    4  C7  UNK     1      -0.267  -0.005  -2.026  1.00  0.00     0.102 A 
HETATM    5  C8  UNK     1       1.213   0.004  -0.116  1.00  0.00     0.077 A 
HETATM    6  C9  UNK     1       1.729   1.362  -2.068  1.00  0.00     0.001 A 
HETATM    7  C10 UNK     1       2.035   0.906  -0.789  1.00  0.00     0.092 A 
HETATM    8  C11 UNK     1       0.567   0.900  -2.690  1.00  0.00     0.054 A 
HETATM    9  C12 UNK     1       2.631   2.302  -2.711  1.00  0.00     0.020 A 
HETATM   10  C13 UNK     1       3.732   2.716  -2.079  1.00  0.00     0.083 A 
HETATM   11  C14 UNK     1       4.077   2.248  -0.724  1.00  0.00     0.288 A 
ENDROOT
BRANCH   3  12
HETATM   12  O2  UNK     1      -0.756  -1.332  -0.093  1.00  0.00    -0.346 OA
BRANCH  12  13
HETATM   13  C3  UNK     1      -1.310  -0.897   1.146  1.00  0.00     0.210 C 
BRANCH  13  14
HETATM   14  C2  UNK     1      -2.685  -1.538   1.347  1.00  0.00     0.176 C 
BRANCH  14  15
HETATM   15  C1  UNK     1      -3.378  -1.174   2.681  1.00  0.00     0.078 C 
HETATM   16  C4  UNK     1      -3.681   0.329   2.754  1.00  0.00     0.048 C 
HETATM   17  C5  UNK     1      -4.673  -1.968   2.883  1.00  0.00     0.048 C 
BRANCH  15  18
HETATM   18  O1  UNK     1      -2.490  -1.492   3.756  1.00  0.00    -0.388 OA
HETATM   19  H10 UNK     1      -2.379  -2.457   3.782  1.00  0.00     0.210 HD
ENDBRANCH  15  18
ENDBRANCH  14  15
BRANCH  14  20
HETATM   20  O3  UNK     1      -2.507  -2.959   1.277  1.00  0.00    -0.390 OA
HETATM   21  H11 UNK     1      -1.853  -3.214   1.950  1.00  0.00     0.210 HD
ENDBRANCH  14  20
ENDBRANCH  13  14
ENDBRANCH  12  13
ENDBRANCH   3  12
BRANCH   4  22
HETATM   22  O5  UNK     1      -1.399  -0.446  -2.645  1.00  0.00    -0.353 OA
HETATM   23  C15 UNK     1      -2.588   0.314  -2.439  1.00  0.00     0.210 C 
ENDBRANCH   4  22
TORSDOF 7
