REMARK  4 active torsions:
REMARK  status: ('A' for Active; 'I' for Inactive)
REMARK    1  A    between atoms: C11_14  and  O1_1 
REMARK    2  A    between atoms: C3_6  and  O1_1 
REMARK    3  A    between atoms: C1_4  and  C6_9 
REMARK    4  A    between atoms: C11_14  and  C14_17 
ROOT
HETATM    1  O2  UNK     1      -3.208  -1.553  -0.420  1.00  0.00    -0.275 OA
HETATM    2  O3  UNK     1      -5.336  -2.342  -0.149  1.00  0.00    -0.260 OA
HETATM    3  C1  UNK     1       0.310   0.021   1.180  1.00  0.00    -0.024 A 
HETATM    4  C2  UNK     1      -1.952  -0.805   1.538  1.00  0.00     0.005 A 
HETATM    5  C3  UNK     1       0.195  -0.206  -0.190  1.00  0.00     0.078 A 
HETATM    6  C4  UNK     1      -0.755  -0.276   2.038  1.00  0.00     0.024 A 
HETATM    7  C5  UNK     1      -2.039  -1.022   0.162  1.00  0.00     0.092 A 
HETATM    8  C7  UNK     1      -3.110  -1.141   2.377  1.00  0.00    -0.043 A 
HETATM    9  C8  UNK     1      -0.985  -0.731  -0.707  1.00  0.00     0.075 A 
HETATM   10  C10 UNK     1      -4.209  -1.643   1.797  1.00  0.00     0.090 A 
HETATM   11  C12 UNK     1      -3.049  -0.921   3.861  1.00  0.00     0.049 C 
HETATM   12  C13 UNK     1      -4.315  -1.879   0.347  1.00  0.00     0.288 A 
ENDROOT
BRANCH   5  13
HETATM   13  O1  UNK     1       1.225   0.079  -1.034  1.00  0.00    -0.346 OA
BRANCH  13  14
HETATM   14  C11 UNK     1       0.974   1.034  -2.064  1.00  0.00     0.214 C 
BRANCH  14  15
HETATM   15  C14 UNK     1       2.257   1.731  -2.410  1.00  0.00    -0.034 A 
HETATM   16  C15 UNK     1       2.613   2.892  -1.733  1.00  0.00     0.009 A 
HETATM   17  C17 UNK     1       3.806   3.540  -2.054  1.00  0.00     0.001 A 
HETATM   18  C19 UNK     1       4.634   3.023  -3.051  1.00  0.00     0.000 A 
HETATM   19  C18 UNK     1       4.270   1.858  -3.725  1.00  0.00     0.001 A 
HETATM   20  C16 UNK     1       3.077   1.209  -3.404  1.00  0.00     0.009 A 
ENDBRANCH  14  15
ENDBRANCH  13  14
ENDBRANCH   5  13
BRANCH   3  21
HETATM   21  C6  UNK     1       1.569   0.585   1.753  1.00  0.00     0.037 C 
HETATM   22  C9  UNK     1       2.560  -0.506   2.150  1.00  0.00     0.010 C 
ENDBRANCH   3  21
TORSDOF 4
