REMARK  6 active torsions:
REMARK  status: ('A' for Active; 'I' for Inactive)
REMARK    1  A    between atoms: C11_17  and  O2_2 
REMARK    2  A    between atoms: C4_10  and  O2_2 
REMARK    3  A    between atoms: C13_19  and  O3_3 
REMARK    4  A    between atoms: C6_12  and  O3_3 
REMARK    5  A    between atoms: C11_17  and  C12_18 
REMARK    6  A    between atoms: C13_19  and  C14_20 
ROOT
HETATM    1  O1  UNK     1       1.730   0.726   3.400  1.00  0.00    -0.275 OA
HETATM    2  O4  UNK     1       3.378   1.833   4.534  1.00  0.00    -0.260 OA
HETATM    3  C1  UNK     1       1.814   0.632   0.960  1.00  0.00     0.038 A 
HETATM    4  C2  UNK     1       1.190   0.310   2.166  1.00  0.00     0.095 A 
HETATM    5  C3  UNK     1       3.055   1.419   0.998  1.00  0.00    -0.040 A 
HETATM    6  C4  UNK     1       1.214   0.181  -0.223  1.00  0.00     0.095 A 
HETATM    7  C5  UNK     1       0.009  -0.433   2.220  1.00  0.00     0.075 A 
HETATM    8  C6  UNK     1      -0.571  -0.872   1.034  1.00  0.00     0.085 A 
HETATM    9  C7  UNK     1       0.031  -0.565  -0.185  1.00  0.00     0.075 A 
HETATM   10  C8  UNK     1       3.546   1.800   2.185  1.00  0.00     0.090 A 
HETATM   11  C9  UNK     1       3.793   1.810  -0.251  1.00  0.00     0.049 C 
HETATM   12  C10 UNK     1       2.899   1.468   3.466  1.00  0.00     0.288 A 
ENDROOT
BRANCH   6  13
HETATM   13  O2  UNK     1       1.725   0.429  -1.463  1.00  0.00    -0.274 OA
BRANCH  13  14
HETATM   14  C11 UNK     1       0.868   1.143  -2.303  1.00  0.00     0.298 C 
HETATM   15  O5  UNK     1      -0.248   1.545  -2.009  1.00  0.00    -0.259 OA
BRANCH  14  16
HETATM   16  C12 UNK     1       1.491   1.374  -3.631  1.00  0.00     0.039 A 
HETATM   17  C15 UNK     1       1.156   2.512  -4.336  1.00  0.00     0.017 A 
HETATM   18  C19 UNK     1       1.741   2.729  -5.583  1.00  0.00     0.001 A 
HETATM   19  C21 UNK     1       2.648   1.804  -6.098  1.00  0.00     0.000 A 
HETATM   20  C20 UNK     1       2.971   0.661  -5.366  1.00  0.00     0.001 A 
HETATM   21  C16 UNK     1       2.386   0.444  -4.118  1.00  0.00     0.017 A 
ENDBRANCH  14  16
ENDBRANCH  13  14
ENDBRANCH   6  13
BRANCH   8  22
HETATM   22  O3  UNK     1      -1.721  -1.598   1.064  1.00  0.00    -0.275 OA
BRANCH  22  23
HETATM   23  C13 UNK     1      -2.888  -0.831   1.012  1.00  0.00     0.298 C 
HETATM   24  O6  UNK     1      -2.935   0.388   0.936  1.00  0.00    -0.259 OA
BRANCH  23  25
HETATM   25  C14 UNK     1      -4.098  -1.690   1.048  1.00  0.00     0.039 A 
HETATM   26  C17 UNK     1      -5.240  -1.262   0.402  1.00  0.00     0.017 A 
HETATM   27  C22 UNK     1      -6.377  -2.069   0.436  1.00  0.00     0.001 A 
HETATM   28  C24 UNK     1      -6.347  -3.287   1.117  1.00  0.00     0.000 A 
HETATM   29  C23 UNK     1      -5.181  -3.697   1.762  1.00  0.00     0.001 A 
HETATM   30  C18 UNK     1      -4.044  -2.890   1.728  1.00  0.00     0.017 A 
ENDBRANCH  23  25
ENDBRANCH  22  23
ENDBRANCH   8  22
TORSDOF 6
