REMARK  3 active torsions:
REMARK  status: ('A' for Active; 'I' for Inactive)
REMARK    1  A    between atoms: C7_11  and  O2_2 
REMARK    2  A    between atoms: C16_20  and  O4_4 
REMARK    3  A    between atoms: C3_7  and  C4_8 
ROOT
HETATM    1  O1  UNK     1       0.371  -1.517  -0.038  1.00  0.00    -0.306 OA
HETATM    2  O3  UNK     1       1.167  -3.080   3.640  1.00  0.00    -0.284 OA
HETATM    3  C1  UNK     1       0.914  -3.451   1.324  1.00  0.00     0.051 A 
HETATM    4  C2  UNK     1       0.633  -2.856   0.096  1.00  0.00     0.090 A 
HETATM    5  C3  UNK     1       0.400  -0.720   1.095  1.00  0.00     0.123 A 
HETATM    6  C5  UNK     1       0.932  -2.613   2.533  1.00  0.00     0.220 A 
HETATM    7  C6  UNK     1       1.173  -4.821   1.401  1.00  0.00     0.025 A 
HETATM    8  C7  UNK     1       0.649  -1.171   2.338  1.00  0.00     0.152 A 
HETATM    9  C8  UNK     1       1.148  -5.593   0.238  1.00  0.00    -0.061 A 
HETATM   10  C9  UNK     1       0.608  -3.629  -1.065  1.00  0.00     0.039 A 
HETATM   11  C10 UNK     1       0.866  -4.998  -0.992  1.00  0.00     0.009 A 
HETATM   12  C13 UNK     1       1.424  -7.057   0.312  1.00  0.00     0.048 C 
ENDROOT
BRANCH   5  13
HETATM   13  C4  UNK     1       0.103   0.695   0.811  1.00  0.00     0.001 A 
HETATM   14  C11 UNK     1       1.140   1.581   0.519  1.00  0.00     0.017 A 
HETATM   15  C14 UNK     1       0.858   2.921   0.251  1.00  0.00     0.037 A 
HETATM   16  C16 UNK     1      -0.460   3.374   0.275  1.00  0.00     0.068 A 
HETATM   17  C15 UNK     1      -1.498   2.489   0.567  1.00  0.00     0.037 A 
HETATM   18  C12 UNK     1      -1.216   1.149   0.835  1.00  0.00     0.017 A 
BRANCH  16  19
HETATM   19  O4  UNK     1      -0.735   4.681   0.014  1.00  0.00    -0.356 OA
HETATM   20  C17 UNK     1      -2.105   5.078   0.055  1.00  0.00     0.210 C 
ENDBRANCH  16  19
ENDBRANCH   5  13
BRANCH   8  21
HETATM   21  O2  UNK     1       0.638  -0.356   3.450  1.00  0.00    -0.355 OA
HETATM   22  H11 UNK     1       0.438   0.557   3.188  1.00  0.00     0.218 HD
ENDBRANCH   8  21
TORSDOF 3
