REMARK  2 active torsions:
REMARK  status: ('A' for Active; 'I' for Inactive)
REMARK    1  A    between atoms: C10_13  and  O2_2 
REMARK    2  A    between atoms: C4_7  and  C9_12 
ROOT
HETATM    1  O1  UNK     1       0.466  -0.643   1.637  1.00  0.00    -0.309 OA
HETATM    2  O3  UNK     1      -0.038  -2.469  -1.969  1.00  0.00    -0.287 OA
HETATM    3  C1  UNK     1       0.568  -2.671   0.306  1.00  0.00     0.054 A 
HETATM    4  C2  UNK     1       0.721  -1.984   1.509  1.00  0.00     0.093 A 
HETATM    5  C3  UNK     1       0.843  -4.039   0.233  1.00  0.00    -0.042 A 
HETATM    6  C4  UNK     1       0.029   0.056   0.523  1.00  0.00     0.090 A 
HETATM    7  C5  UNK     1       0.113  -1.931  -0.881  1.00  0.00     0.188 A 
HETATM    8  C6  UNK     1       1.153  -2.663   2.649  1.00  0.00     0.074 A 
HETATM    9  C7  UNK     1      -0.151  -0.491  -0.690  1.00  0.00     0.093 A 
HETATM   10  C8  UNK     1       1.275  -4.715   1.375  1.00  0.00     0.044 A 
HETATM   11  C10 UNK     1       1.429  -4.028   2.580  1.00  0.00     0.068 A 
HETATM   12  C11 UNK     1       0.704  -4.844  -1.018  1.00  0.00     0.049 C 
ENDROOT
BRANCH   6  13
HETATM   13  C9  UNK     1      -0.210   1.492   0.771  1.00  0.00    -0.002 A 
HETATM   14  C12 UNK     1      -0.018   2.423  -0.253  1.00  0.00     0.014 A 
HETATM   15  C14 UNK     1      -0.244   3.780  -0.019  1.00  0.00     0.001 A 
HETATM   16  C16 UNK     1      -0.662   4.210   1.240  1.00  0.00     0.000 A 
HETATM   17  C15 UNK     1      -0.855   3.283   2.265  1.00  0.00     0.001 A 
HETATM   18  C13 UNK     1      -0.630   1.927   2.031  1.00  0.00     0.014 A 
ENDBRANCH   6  13
BRANCH  11  19
HETATM   19  O2  UNK     1       1.850  -4.693   3.692  1.00  0.00    -0.361 OA
HETATM   20  H12 UNK     1       1.901  -4.066   4.433  1.00  0.00     0.217 HD
ENDBRANCH  11  19
TORSDOF 2
