REMARK  4 active torsions:
REMARK  status: ('A' for Active; 'I' for Inactive)
REMARK    1  A    between atoms: C1_7  and  N1_4 
REMARK       I    between atoms: C9_15  and  N1_4 
REMARK    2  A    between atoms: C6_12  and  N2_5 
REMARK    3  A    between atoms: C1_7  and  C2_8 
REMARK    4  A    between atoms: C10_16  and  C9_15 
ROOT
HETATM    1  O2  UNK     1       0.619  -0.141  -3.526  1.00  0.00    -0.267 OA
HETATM    2  N1  UNK     1      -0.376   0.362  -1.479  1.00  0.00    -0.348 N 
HETATM    3  C9  UNK     1       0.660   0.339  -2.395  1.00  0.00     0.258 C 
HETATM    4  H2  UNK     1      -0.246   0.842  -0.593  1.00  0.00     0.163 HD
ENDROOT
BRANCH   2   5
HETATM    5  C1  UNK     1      -1.681  -0.197  -1.751  1.00  0.00     0.114 C 
HETATM    6  C3  UNK     1      -2.553   0.845  -2.454  1.00  0.00     0.037 C 
BRANCH   5   7
HETATM    7  C2  UNK     1      -2.336  -0.717  -0.487  1.00  0.00    -0.036 A 
HETATM    8  C4  UNK     1      -2.643  -2.062  -0.392  1.00  0.00     0.011 A 
HETATM    9  C7  UNK     1      -3.246  -2.540   0.771  1.00  0.00     0.030 A 
HETATM   10  C6  UNK     1      -3.533  -1.666   1.819  1.00  0.00     0.039 A 
HETATM   11  C8  UNK     1      -3.215  -0.312   1.704  1.00  0.00     0.030 A 
HETATM   12  C5  UNK     1      -2.612   0.166   0.541  1.00  0.00     0.011 A 
BRANCH  10  13
HETATM   13  N2  UNK     1      -4.131  -2.140   2.972  1.00  0.00    -0.315 N 
HETATM   14  C16 UNK     1      -4.471  -1.406   4.079  1.00  0.00     0.117 A 
HETATM   15  C21 UNK     1      -5.029  -2.310   4.952  1.00  0.00     0.135 A 
HETATM   16  N3  UNK     1      -5.042  -3.573   4.416  1.00  0.00    -0.254 NA
HETATM   17  C18 UNK     1      -4.497  -3.438   3.227  1.00  0.00     0.214 A 
ENDBRANCH  10  13
ENDBRANCH   5   7
ENDBRANCH   2   5
BRANCH   3  18
HETATM   18  C10 UNK     1       1.884   0.970  -1.888  1.00  0.00     0.108 A 
HETATM   19  C12 UNK     1       2.675   1.546  -2.802  1.00  0.00     0.037 A 
HETATM   20  C11 UNK     1       3.911   2.196  -2.396  1.00  0.00    -0.001 A 
HETATM   21  C13 UNK     1       4.254   2.209  -1.048  1.00  0.00     0.089 A 
HETATM   22  C15 UNK     1       4.766   2.810  -3.315  1.00  0.00     0.014 A 
HETATM   23  O1  UNK     1       3.418   1.601  -0.091  1.00  0.00    -0.274 OA
HETATM   24  C17 UNK     1       5.424   2.814  -0.594  1.00  0.00     0.038 A 
HETATM   25  C14 UNK     1       2.229   0.971  -0.449  1.00  0.00     0.304 A 
HETATM   26  O3  UNK     1       1.508   0.444   0.391  1.00  0.00    -0.259 OA
HETATM   27  C20 UNK     1       6.271   3.424  -1.517  1.00  0.00     0.003 A 
HETATM   28  C19 UNK     1       5.943   3.422  -2.875  1.00  0.00     0.001 A 
ENDBRANCH   3  18
TORSDOF 4
