REMARK  6 active torsions:
REMARK  status: ('A' for Active; 'I' for Inactive)
REMARK    1  A    between atoms: C6_12  and  N1_4 
REMARK    2  A    between atoms: C10_16  and  N2_5 
REMARK    3  A    between atoms: C8_14  and  N2_5 
REMARK    4  A    between atoms: C10_16  and  N3_6 
REMARK    5  A    between atoms: C11_17  and  N3_6 
REMARK    6  A    between atoms: C6_12  and  C8_14 
ROOT
HETATM    1  N3  UNK     1      -0.556  -0.028  -1.132  1.00  0.00    -0.333 N 
HETATM    2  H20 UNK     1       0.389   0.306  -0.971  1.00  0.00     0.168 HD
ENDROOT
BRANCH   1   3
HETATM    3  C10 UNK     1      -1.068   0.265  -2.391  1.00  0.00     0.172 C 
HETATM    4  S1  UNK     1      -2.674   0.326  -2.877  1.00  0.00    -0.041 SA
BRANCH   3   5
HETATM    5  N2  UNK     1      -0.106   0.586  -3.344  1.00  0.00    -0.361 N 
HETATM    6  H19 UNK     1      -0.460   0.854  -4.258  1.00  0.00     0.162 HD
BRANCH   5   7
HETATM    7  C8  UNK     1       1.327   0.641  -3.157  1.00  0.00     0.108 C 
HETATM    8  C9  UNK     1       2.031   0.223  -4.446  1.00  0.00     0.034 C 
BRANCH   7   9
HETATM    9  C6  UNK     1       1.729   2.042  -2.677  1.00  0.00     0.296 C 
BRANCH   9  10
HETATM   10  N1  UNK     1       3.164   2.151  -2.415  1.00  0.00     0.090 N 
HETATM   11  C4  UNK     1       3.565   1.213  -1.357  1.00  0.00     0.273 C 
HETATM   12  C2  UNK     1       5.073   1.277  -1.107  1.00  0.00     0.034 C 
HETATM   13  C1  UNK     1       5.522   2.701  -0.762  1.00  0.00    -0.015 C 
HETATM   14  C3  UNK     1       5.025   3.675  -1.836  1.00  0.00     0.034 C 
HETATM   15  C7  UNK     1       7.039   2.777  -0.613  1.00  0.00     0.010 C 
HETATM   16  C5  UNK     1       3.518   3.532  -2.061  1.00  0.00     0.273 C 
ENDBRANCH   9  10
ENDBRANCH   7   9
ENDBRANCH   5   7
ENDBRANCH   3   5
ENDBRANCH   1   3
BRANCH   1  17
HETATM   17  C11 UNK     1      -1.187  -0.394   0.085  1.00  0.00     0.036 A 
HETATM   18  C12 UNK     1      -2.321  -1.179   0.048  1.00  0.00     0.067 A 
HETATM   19  C14 UNK     1      -2.925  -1.528   1.257  1.00  0.00     0.092 A 
HETATM   20  C13 UNK     1      -2.421  -1.111   2.490  1.00  0.00     0.004 A 
HETATM   21  O1  UNK     1      -4.080  -2.331   1.176  1.00  0.00    -0.275 OA
HETATM   22  C16 UNK     1      -1.268  -0.316   2.485  1.00  0.00     0.017 A 
HETATM   23  C17 UNK     1      -3.121  -1.526   3.713  1.00  0.00    -0.043 A 
HETATM   24  C15 UNK     1      -0.650   0.043   1.281  1.00  0.00     0.030 A 
HETATM   25  C18 UNK     1      -4.218  -2.290   3.605  1.00  0.00     0.090 A 
HETATM   26  C19 UNK     1      -2.605  -1.094   5.054  1.00  0.00     0.049 C 
HETATM   27  C20 UNK     1      -4.761  -2.738   2.312  1.00  0.00     0.288 A 
HETATM   28  O2  UNK     1      -5.768  -3.436   2.253  1.00  0.00    -0.260 OA
ENDBRANCH   1  17
TORSDOF 6
