REMARK  3 active torsions:
REMARK  status: ('A' for Active; 'I' for Inactive)
REMARK       I    between atoms: C11_16  and  N1_4 
REMARK    1  A    between atoms: C8_13  and  N1_4 
REMARK    2  A    between atoms: C11_16  and  C5_10 
REMARK    3  A    between atoms: C12_17  and  C8_13 
ROOT
HETATM    1  O1  UNK     1      -0.901   0.346   0.574  1.00  0.00    -0.304 OA
HETATM    2  O2  UNK     1      -3.389  -2.360  -1.193  1.00  0.00    -0.287 OA
HETATM    3  C1  UNK     1      -2.568  -1.407   0.811  1.00  0.00     0.048 A 
HETATM    4  C2  UNK     1      -1.695  -0.461   1.351  1.00  0.00     0.090 A 
HETATM    5  C3  UNK     1      -3.353  -2.202   1.649  1.00  0.00     0.025 A 
HETATM    6  C4  UNK     1      -3.259  -2.044   3.032  1.00  0.00    -0.061 A 
HETATM    7  C5  UNK     1      -0.982   0.203  -0.795  1.00  0.00     0.147 A 
HETATM    8  C6  UNK     1      -2.646  -1.552  -0.653  1.00  0.00     0.187 A 
HETATM    9  C7  UNK     1      -1.604  -0.306   2.734  1.00  0.00     0.039 A 
HETATM   10  C9  UNK     1      -1.773  -0.660  -1.444  1.00  0.00     0.098 A 
HETATM   11  C10 UNK     1      -2.387  -1.098   3.574  1.00  0.00     0.009 A 
HETATM   12  C13 UNK     1      -4.095  -2.888   3.936  1.00  0.00     0.048 C 
ENDROOT
BRANCH   7  13
HETATM   13  C11 UNK     1      -0.129   1.074  -1.605  1.00  0.00     0.275 C 
HETATM   14  O3  UNK     1      -0.141   1.009  -2.835  1.00  0.00    -0.265 OA
HETATM   15  N1  UNK     1       0.650   1.929  -0.844  1.00  0.00    -0.351 N 
HETATM   16  H7  UNK     1       0.590   1.887   0.170  1.00  0.00     0.163 HD
BRANCH  15  17
HETATM   17  C8  UNK     1       1.574   2.880  -1.419  1.00  0.00     0.161 C 
BRANCH  17  18
HETATM   18  C12 UNK     1       2.946   2.289  -1.601  1.00  0.00    -0.038 A 
HETATM   19  C14 UNK     1       3.264   1.651  -2.787  1.00  0.00     0.028 A 
HETATM   20  C16 UNK     1       4.540   1.124  -2.905  1.00  0.00     0.116 A 
HETATM   21  N2  UNK     1       5.482   1.198  -1.938  1.00  0.00    -0.273 NA
HETATM   22  C17 UNK     1       5.124   1.831  -0.798  1.00  0.00     0.116 A 
HETATM   23  C15 UNK     1       3.875   2.391  -0.581  1.00  0.00     0.028 A 
ENDBRANCH  17  18
ENDBRANCH  15  17
ENDBRANCH   7  13
TORSDOF 3
