REMARK  2 active torsions:
REMARK  status: ('A' for Active; 'I' for Inactive)
REMARK    1  A    between atoms: C10_14  and  O2_2 
REMARK    2  A    between atoms: C10_14  and  C4_8 
ROOT
HETATM    1  O1  UNK     1      -0.378   0.307  -1.879  1.00  0.00    -0.274 OA
HETATM    2  O3  UNK     1      -2.400  -0.577  -1.289  1.00  0.00    -0.259 OA
HETATM    3  C1  UNK     1       1.292   0.735  -0.164  1.00  0.00    -0.001 A 
HETATM    4  C2  UNK     1       0.900   0.763  -1.498  1.00  0.00     0.089 A 
HETATM    5  C3  UNK     1       0.361   0.228   0.832  1.00  0.00     0.038 A 
HETATM    6  C4  UNK     1      -0.852  -0.204   0.465  1.00  0.00     0.115 A 
HETATM    7  C5  UNK     1       2.566   1.195   0.175  1.00  0.00     0.014 A 
HETATM    8  C6  UNK     1       1.743   1.237  -2.501  1.00  0.00     0.038 A 
HETATM    9  C7  UNK     1      -1.290  -0.183  -0.949  1.00  0.00     0.304 A 
HETATM   10  C8  UNK     1       3.424   1.673  -0.821  1.00  0.00     0.001 A 
HETATM   11  C9  UNK     1       3.013   1.694  -2.155  1.00  0.00     0.003 A 
ENDROOT
BRANCH   6  12
HETATM   12  C10 UNK     1      -1.719  -0.696   1.542  1.00  0.00     0.299 C 
HETATM   13  O4  UNK     1      -1.670  -0.282   2.688  1.00  0.00    -0.259 OA
BRANCH  12  14
HETATM   14  O2  UNK     1      -2.539  -1.649   1.034  1.00  0.00    -0.322 OA
HETATM   15  C11 UNK     1      -3.453  -2.230   1.971  1.00  0.00     0.213 C 
ENDBRANCH  12  14
ENDBRANCH   6  12
TORSDOF 2
