REMARK  4 active torsions:
REMARK  status: ('A' for Active; 'I' for Inactive)
REMARK    1  A    between atoms: C16_20  and  O2_2 
REMARK    2  A    between atoms: C18_22  and  O2_2 
REMARK    3  A    between atoms: C14_18  and  O3_3 
REMARK    4  A    between atoms: C4_8  and  C7_11 
ROOT
HETATM    1  O1  UNK     1       0.690   1.032  -0.303  1.00  0.00    -0.308 OA
HETATM    2  O4  UNK     1       1.213   0.260  -4.269  1.00  0.00    -0.287 OA
HETATM    3  C1  UNK     1       1.742   1.599  -0.978  1.00  0.00     0.096 A 
HETATM    4  C2  UNK     1       1.978   1.379  -2.333  1.00  0.00     0.049 A 
HETATM    5  C3  UNK     1       2.595   2.426  -0.247  1.00  0.00    -0.027 A 
HETATM    6  C4  UNK     1      -0.179   0.211  -1.006  1.00  0.00     0.090 A 
HETATM    7  C5  UNK     1       3.917   2.809  -2.235  1.00  0.00    -0.060 A 
HETATM    8  C6  UNK     1       3.066   1.982  -2.968  1.00  0.00     0.025 A 
HETATM    9  C8  UNK     1       3.683   3.031  -0.877  1.00  0.00     0.016 A 
HETATM   10  C9  UNK     1       1.064   0.500  -3.079  1.00  0.00     0.187 A 
HETATM   11  C10 UNK     1      -0.054  -0.083  -2.310  1.00  0.00     0.093 A 
HETATM   12  C11 UNK     1       2.366   2.680   1.207  1.00  0.00     0.051 C 
HETATM   13  C15 UNK     1       5.083   3.457  -2.903  1.00  0.00     0.048 C 
ENDROOT
BRANCH   6  14
HETATM   14  C7  UNK     1      -1.270  -0.351  -0.184  1.00  0.00     0.001 A 
HETATM   15  C12 UNK     1      -1.773   0.370   0.902  1.00  0.00     0.054 A 
HETATM   16  C14 UNK     1      -2.804  -0.160   1.678  1.00  0.00     0.102 A 
HETATM   17  C16 UNK     1      -3.334  -1.413   1.371  1.00  0.00     0.102 A 
HETATM   18  C17 UNK     1      -2.834  -2.136   0.288  1.00  0.00     0.040 A 
HETATM   19  C13 UNK     1      -1.803  -1.606  -0.488  1.00  0.00     0.017 A 
BRANCH  16  20
HETATM   20  O3  UNK     1      -3.284   0.555   2.733  1.00  0.00    -0.353 OA
HETATM   21  C20 UNK     1      -2.656   0.347   3.997  1.00  0.00     0.210 C 
ENDBRANCH  16  20
BRANCH  17  22
HETATM   22  O2  UNK     1      -4.341  -1.942   2.121  1.00  0.00    -0.349 OA
BRANCH  22  23
HETATM   23  C18 UNK     1      -4.082  -3.186   2.769  1.00  0.00     0.171 C 
HETATM   24  C19 UNK     1      -4.880  -3.248   4.054  1.00  0.00     0.034 C 
ENDBRANCH  22  23
ENDBRANCH  17  22
ENDBRANCH   6  14
TORSDOF 4
