REMARK  4 active torsions:
REMARK  status: ('A' for Active; 'I' for Inactive)
REMARK    1  A    between atoms: C7_13  and  O2_2 
REMARK    2  A    between atoms: C13_19  and  O3_3 
REMARK    3  A    between atoms: C3_9  and  N1_6 
REMARK       I    between atoms: C6_12  and  N1_6 
REMARK    4  A    between atoms: C2_8  and  C6_12 
ROOT
HETATM    1  O4  UNK     1       0.617   0.640   1.775  1.00  0.00    -0.267 OA
HETATM    2  N1  UNK     1      -0.836  -0.146   0.097  1.00  0.00    -0.320 N 
HETATM    3  C6  UNK     1       0.291   0.490   0.599  1.00  0.00     0.262 C 
HETATM    4  H2  UNK     1      -0.953  -0.200  -0.912  1.00  0.00     0.169 HD
ENDROOT
BRANCH   3   5
HETATM    5  C2  UNK     1       1.150   1.019  -0.468  1.00  0.00     0.108 A 
HETATM    6  C5  UNK     1       2.460   1.074  -0.200  1.00  0.00     0.037 A 
HETATM    7  C1  UNK     1       3.391   1.584  -1.194  1.00  0.00    -0.001 A 
HETATM    8  C4  UNK     1       2.897   2.012  -2.422  1.00  0.00     0.089 A 
HETATM    9  C8  UNK     1       4.766   1.659  -0.958  1.00  0.00     0.014 A 
HETATM   10  C11 UNK     1       3.735   2.511  -3.417  1.00  0.00     0.038 A 
HETATM   11  O1  UNK     1       1.517   1.951  -2.698  1.00  0.00    -0.274 OA
HETATM   12  C16 UNK     1       5.104   2.583  -3.173  1.00  0.00     0.003 A 
HETATM   13  C15 UNK     1       5.619   2.158  -1.946  1.00  0.00     0.001 A 
HETATM   14  C9  UNK     1       0.602   1.468  -1.767  1.00  0.00     0.304 A 
HETATM   15  O5  UNK     1      -0.598   1.420  -2.016  1.00  0.00    -0.259 OA
ENDBRANCH   3   5
BRANCH   2  16
HETATM   16  C3  UNK     1      -1.875  -0.770   0.830  1.00  0.00     0.068 A 
HETATM   17  C10 UNK     1      -1.801  -0.772   2.213  1.00  0.00     0.035 A 
HETATM   18  C14 UNK     1      -2.816  -1.384   2.950  1.00  0.00     0.039 A 
HETATM   19  C13 UNK     1      -3.889  -1.986   2.292  1.00  0.00     0.070 A 
HETATM   20  C12 UNK     1      -3.947  -1.976   0.899  1.00  0.00     0.075 A 
HETATM   21  C7  UNK     1      -2.933  -1.363   0.162  1.00  0.00     0.097 A 
BRANCH  19  22
HETATM   22  O3  UNK     1      -4.880  -2.581   3.011  1.00  0.00    -0.356 OA
HETATM   23  C18 UNK     1      -4.758  -2.553   4.432  1.00  0.00     0.210 C 
ENDBRANCH  19  22
BRANCH  21  24
HETATM   24  O2  UNK     1      -3.009  -1.363  -1.199  1.00  0.00    -0.354 OA
HETATM   25  C17 UNK     1      -2.408  -2.462  -1.880  1.00  0.00     0.210 C 
ENDBRANCH  21  24
ENDBRANCH   2  16
TORSDOF 4
