REMARK  8 active torsions:
REMARK  status: ('A' for Active; 'I' for Inactive)
REMARK    1  A    between atoms: C1_5  and  O1_2 
REMARK    2  A    between atoms: C4_8  and  O1_2 
REMARK    3  A    between atoms: C12_16  and  O2_3 
REMARK    4  A    between atoms: C2_6  and  O2_3 
REMARK    5  A    between atoms: C3_7  and  C9_13 
REMARK    6  A    between atoms: C4_8  and  C7_11 
REMARK    7  A    between atoms: C13_17  and  C17_21 
REMARK    8  A    between atoms: C16_20  and  C17_21 
ROOT
HETATM    1  C1  UNK     1       0.757  -0.132  -1.882  1.00  0.00     0.102 A 
HETATM    2  C2  UNK     1       0.612  -0.792  -0.662  1.00  0.00     0.102 A 
HETATM    3  C3  UNK     1      -1.587  -1.539  -1.327  1.00  0.00    -0.033 A 
HETATM    4  C5  UNK     1      -0.560  -1.495  -0.384  1.00  0.00     0.051 A 
HETATM    5  C6  UNK     1      -0.270  -0.176  -2.825  1.00  0.00     0.040 A 
HETATM    6  C8  UNK     1      -1.442  -0.879  -2.547  1.00  0.00     0.014 A 
ENDROOT
BRANCH   3   7
HETATM    7  C9  UNK     1      -2.826  -2.281  -1.034  1.00  0.00     0.015 C 
HETATM    8  C13 UNK     1      -3.646  -2.015  -0.007  1.00  0.00     0.056 C 
BRANCH   8   9
HETATM    9  C17 UNK     1      -3.339  -0.897   0.949  1.00  0.00     0.182 C 
HETATM   10  O3  UNK     1      -2.716   0.105   0.566  1.00  0.00    -0.288 OA
BRANCH   9  11
HETATM   11  C16 UNK     1      -3.814  -1.001   2.320  1.00  0.00     0.014 A 
HETATM   12  C20 UNK     1      -3.957  -2.255   2.915  1.00  0.00     0.015 A 
HETATM   13  C22 UNK     1      -4.411  -2.355   4.230  1.00  0.00     0.001 A 
HETATM   14  C24 UNK     1      -4.722  -1.202   4.950  1.00  0.00     0.000 A 
HETATM   15  C23 UNK     1      -4.578   0.052   4.355  1.00  0.00     0.001 A 
HETATM   16  C21 UNK     1      -4.124   0.152   3.040  1.00  0.00     0.015 A 
ENDBRANCH   9  11
ENDBRANCH   8   9
ENDBRANCH   3   7
BRANCH   2  17
HETATM   17  O2  UNK     1       1.609  -0.756   0.267  1.00  0.00    -0.349 OA
BRANCH  17  18
HETATM   18  C12 UNK     1       1.290  -0.189   1.536  1.00  0.00     0.171 C 
HETATM   19  C19 UNK     1       2.541   0.425   2.130  1.00  0.00     0.034 C 
ENDBRANCH  17  18
ENDBRANCH   2  17
BRANCH   1  20
HETATM   20  O1  UNK     1       1.898   0.557  -2.165  1.00  0.00    -0.344 OA
BRANCH  20  21
HETATM   21  C4  UNK     1       1.776   1.684  -3.031  1.00  0.00     0.216 C 
BRANCH  21  22
HETATM   22  C7  UNK     1       2.848   2.678  -2.695  1.00  0.00    -0.012 A 
HETATM   23  C10 UNK     1       2.772   3.481  -1.557  1.00  0.00     0.042 A 
HETATM   24 Cl1  UNK     1       1.435   3.374  -0.471  1.00  0.00    -0.084 Cl
HETATM   25  C14 UNK     1       3.789   4.394  -1.278  1.00  0.00     0.024 A 
HETATM   26  C18 UNK     1       4.883   4.504  -2.137  1.00  0.00     0.002 A 
HETATM   27  C15 UNK     1       4.959   3.701  -3.275  1.00  0.00     0.001 A 
HETATM   28  C11 UNK     1       3.942   2.788  -3.554  1.00  0.00     0.011 A 
ENDBRANCH  21  22
ENDBRANCH  20  21
ENDBRANCH   1  20
TORSDOF 8
