REMARK  5 active torsions:
REMARK  status: ('A' for Active; 'I' for Inactive)
REMARK    1  A    between atoms: C10_17  and  O1_2 
REMARK    2  A    between atoms: C9_16  and  O1_2 
REMARK       I    between atoms: C11_18  and  N1_7 
REMARK    3  A    between atoms: C8_15  and  N1_7 
REMARK    4  A    between atoms: C7_14  and  C9_16 
REMARK    5  A    between atoms: C11_18  and  C12_19 
ROOT
HETATM    1  S1  UNK     1       2.557   1.393   0.910  1.00  0.00    -0.075 SA
HETATM    2  C1  UNK     1       5.149   3.282  -2.286  1.00  0.00     0.005 C 
HETATM    3  C2  UNK     1       4.119   2.216  -2.693  1.00  0.00     0.041 C 
HETATM    4  C3  UNK     1       5.868   2.904  -0.983  1.00  0.00     0.005 C 
HETATM    5  C4  UNK     1       3.288   1.773  -1.528  1.00  0.00    -0.026 A 
HETATM    6  C5  UNK     1       4.887   2.774   0.194  1.00  0.00     0.047 C 
HETATM    7  C6  UNK     1       3.665   2.017  -0.221  1.00  0.00    -0.008 A 
HETATM    8  C7  UNK     1       2.060   1.048  -1.588  1.00  0.00     0.080 A 
HETATM    9  C8  UNK     1       1.555   0.777  -0.335  1.00  0.00     0.094 A 
ENDROOT
BRANCH   9  10
HETATM   10  N1  UNK     1       0.423   0.117   0.061  1.00  0.00    -0.316 N 
HETATM   11  C11 UNK     1      -0.000  -0.104   1.378  1.00  0.00     0.262 C 
HETATM   12  O4  UNK     1       0.543   0.240   2.420  1.00  0.00    -0.267 OA
HETATM   13  H9  UNK     1      -0.159  -0.222  -0.701  1.00  0.00     0.169 HD
BRANCH  11  14
HETATM   14  C12 UNK     1      -1.272  -0.855   1.444  1.00  0.00     0.108 A 
HETATM   15  C15 UNK     1      -2.056  -0.598   2.497  1.00  0.00     0.037 A 
HETATM   16  C16 UNK     1      -3.328  -1.287   2.650  1.00  0.00    -0.001 A 
HETATM   17  C18 UNK     1      -3.711  -2.214   1.686  1.00  0.00     0.089 A 
HETATM   18  C19 UNK     1      -4.178  -1.050   3.733  1.00  0.00     0.014 A 
HETATM   19  O3  UNK     1      -2.881  -2.480   0.579  1.00  0.00    -0.274 OA
HETATM   20  C20 UNK     1      -4.916  -2.909   1.774  1.00  0.00     0.038 A 
HETATM   21  C17 UNK     1      -1.659  -1.836   0.406  1.00  0.00     0.304 A 
HETATM   22  O5  UNK     1      -0.943  -2.075  -0.560  1.00  0.00    -0.259 OA
HETATM   23  C22 UNK     1      -5.758  -2.667   2.857  1.00  0.00     0.003 A 
HETATM   24  C21 UNK     1      -5.390  -1.739   3.834  1.00  0.00     0.001 A 
ENDBRANCH  11  14
ENDBRANCH   9  10
BRANCH   8  25
HETATM   25  C9  UNK     1       1.396   0.626  -2.796  1.00  0.00     0.297 C 
HETATM   26  O2  UNK     1       1.988   0.350  -3.850  1.00  0.00    -0.259 OA
BRANCH  25  27
HETATM   27  O1  UNK     1       0.025   0.552  -2.684  1.00  0.00    -0.313 OA
BRANCH  27  28
HETATM   28  C10 UNK     1      -0.736   0.799  -3.872  1.00  0.00     0.124 C 
HETATM   29  C13 UNK     1      -2.217   0.641  -3.560  1.00  0.00     0.040 C 
HETATM   30  C14 UNK     1      -0.412   2.190  -4.394  1.00  0.00     0.040 C 
ENDBRANCH  27  28
ENDBRANCH  25  27
ENDBRANCH   8  25
TORSDOF 5
