REMARK  9 active torsions:
REMARK  status: ('A' for Active; 'I' for Inactive)
REMARK    1  A    between atoms: C12_15  and  O1_1 
REMARK    2  A    between atoms: C14_17  and  O1_1 
REMARK    3  A    between atoms: C1_4  and  C2_5 
REMARK    4  A    between atoms: C1_4  and  C5_8 
REMARK    5  A    between atoms: C2_5  and  C7_10 
REMARK    6  A    between atoms: C3_6  and  C4_7 
REMARK    7  A    between atoms: C3_6  and  C6_9 
REMARK    8  A    between atoms: C6_9  and  C9_12 
REMARK    9  A    between atoms: C10_13  and  C12_15 
ROOT
HETATM    1  C7  UNK     1      -1.509  -0.122   3.275  1.00  0.00    -0.085 C 
HETATM    2  C10 UNK     1      -0.234  -0.430   2.968  1.00  0.00     0.002 C 
HETATM    3  C11 UNK     1      -2.123   1.159   2.773  1.00  0.00     0.043 C 
ENDROOT
BRANCH   2   4
HETATM    4  C12 UNK     1       0.717   0.376   2.143  1.00  0.00     0.203 C 
BRANCH   4   5
HETATM    5  O1  UNK     1       1.640  -0.509   1.521  1.00  0.00    -0.347 OA
BRANCH   5   6
HETATM    6  C14 UNK     1       2.158  -0.113   0.316  1.00  0.00     0.071 A 
HETATM    7  C19 UNK     1       2.314   1.240   0.045  1.00  0.00     0.075 A 
HETATM    8  C18 UNK     1       2.843   1.619  -1.187  1.00  0.00     0.092 A 
HETATM    9  C15 UNK     1       3.216   0.679  -2.144  1.00  0.00    -0.002 A 
HETATM   10  O2  UNK     1       2.992   2.998  -1.439  1.00  0.00    -0.275 OA
HETATM   11  C21 UNK     1       3.053  -0.678  -1.857  1.00  0.00     0.017 A 
HETATM   12  C22 UNK     1       3.761   1.144  -3.408  1.00  0.00     0.020 A 
HETATM   13  C20 UNK     1       2.524  -1.073  -0.625  1.00  0.00     0.038 A 
HETATM   14  C23 UNK     1       3.900   2.452  -3.639  1.00  0.00     0.083 A 
HETATM   15  C24 UNK     1       3.512   3.467  -2.641  1.00  0.00     0.288 A 
HETATM   16  O3  UNK     1       3.646   4.664  -2.868  1.00  0.00    -0.260 OA
ENDBRANCH   5   6
ENDBRANCH   4   5
ENDBRANCH   2   4
BRANCH   1  17
HETATM   17  C2  UNK     1      -2.429  -0.998   4.097  1.00  0.00     0.037 C 
BRANCH  17  18
HETATM   18  C1  UNK     1      -3.642  -1.474   3.290  1.00  0.00     0.031 C 
BRANCH  18  19
HETATM   19  C5  UNK     1      -3.217  -2.200   2.043  1.00  0.00    -0.024 C 
HETATM   20  C4  UNK     1      -3.859  -2.293   0.862  1.00  0.00    -0.087 C 
HETATM   21  C8  UNK     1      -5.189  -1.604   0.680  1.00  0.00     0.043 C 
BRANCH  20  22
HETATM   22  C3  UNK     1      -3.380  -3.094  -0.331  1.00  0.00     0.037 C 
BRANCH  22  23
HETATM   23  C6  UNK     1      -3.247  -2.277  -1.624  1.00  0.00     0.031 C 
BRANCH  23  24
HETATM   24  C9  UNK     1      -2.169  -1.232  -1.545  1.00  0.00    -0.024 C 
HETATM   25  C13 UNK     1      -2.288   0.101  -1.697  1.00  0.00    -0.091 C 
HETATM   26  C16 UNK     1      -1.163   1.092  -1.605  1.00  0.00     0.042 C 
HETATM   27  C17 UNK     1      -3.630   0.718  -1.991  1.00  0.00     0.042 C 
ENDBRANCH  23  24
ENDBRANCH  22  23
ENDBRANCH  20  22
ENDBRANCH  18  19
ENDBRANCH  17  18
ENDBRANCH   1  17
TORSDOF 9
