REMARK  2 active torsions:
REMARK  status: ('A' for Active; 'I' for Inactive)
REMARK    1  A    between atoms: C3_7  and  N1_4 
REMARK       I    between atoms: C7_11  and  N1_4 
REMARK    2  A    between atoms: C2_6  and  C7_11 
ROOT
HETATM    1  O1  UNK     1       1.283   0.559  -2.644  1.00  0.00    -0.274 OA
HETATM    2  O3  UNK     1      -0.484  -0.758  -2.043  1.00  0.00    -0.259 OA
HETATM    3  C1  UNK     1       2.606   1.653  -0.922  1.00  0.00    -0.001 A 
HETATM    4  C2  UNK     1       0.732   0.257  -0.281  1.00  0.00     0.108 A 
HETATM    5  C4  UNK     1       2.353   1.394  -2.265  1.00  0.00     0.089 A 
HETATM    6  C5  UNK     1       1.747   1.049   0.085  1.00  0.00     0.037 A 
HETATM    7  C8  UNK     1       3.676   2.486  -0.586  1.00  0.00     0.014 A 
HETATM    8  C9  UNK     1       0.445  -0.033  -1.704  1.00  0.00     0.304 A 
HETATM    9  C11 UNK     1       3.137   1.942  -3.279  1.00  0.00     0.038 A 
HETATM   10  C14 UNK     1       4.472   3.042  -1.591  1.00  0.00     0.001 A 
HETATM   11  C15 UNK     1       4.203   2.771  -2.935  1.00  0.00     0.003 A 
ENDROOT
BRANCH   4  12
HETATM   12  C7  UNK     1      -0.077  -0.305   0.807  1.00  0.00     0.262 C 
HETATM   13  O2  UNK     1       0.446  -0.527   1.898  1.00  0.00    -0.267 OA
HETATM   14  N1  UNK     1      -1.392  -0.516   0.418  1.00  0.00    -0.322 N 
HETATM   15  H2  UNK     1      -1.660  -0.253  -0.525  1.00  0.00     0.169 HD
BRANCH  14  16
HETATM   16  C3  UNK     1      -2.414  -1.039   1.217  1.00  0.00     0.041 A 
HETATM   17  C10 UNK     1      -2.130  -1.395   2.535  1.00  0.00     0.030 A 
HETATM   18  C16 UNK     1      -3.136  -1.918   3.347  1.00  0.00     0.002 A 
HETATM   19  C17 UNK     1      -4.425  -2.085   2.841  1.00  0.00     0.001 A 
HETATM   20  C12 UNK     1      -4.708  -1.729   1.523  1.00  0.00     0.009 A 
HETATM   21  C6  UNK     1      -3.702  -1.205   0.710  1.00  0.00    -0.035 A 
HETATM   22  C13 UNK     1      -4.034  -0.832  -0.698  1.00  0.00     0.050 C 
ENDBRANCH  14  16
ENDBRANCH   4  12
TORSDOF 2
