REMARK  8 active torsions:
REMARK  status: ('A' for Active; 'I' for Inactive)
REMARK    1  A    between atoms: C2_8  and  O1_1 
REMARK    2  A    between atoms: C3_9  and  O2_2 
REMARK    3  A    between atoms: C5_11  and  O3_3 
REMARK    4  A    between atoms: C12_18  and  O4_4 
REMARK    5  A    between atoms: C14_20  and  O5_5 
REMARK    6  A    between atoms: C1_7  and  C4_10 
REMARK    7  A    between atoms: C4_10  and  C9_15 
REMARK    8  A    between atoms: C10_16  and  C8_14 
ROOT
HETATM    1  O6  UNK     1       0.104  -0.587  -1.110  1.00  0.00    -0.287 OA
HETATM    2  C4  UNK     1      -0.999  -0.144  -0.812  1.00  0.00     0.187 C 
ENDROOT
BRANCH   2   3
HETATM    3  C1  UNK     1      -1.733  -0.716   0.343  1.00  0.00     0.081 A 
HETATM    4  C2  UNK     1      -2.055   0.092   1.434  1.00  0.00     0.087 A 
HETATM    5  C6  UNK     1      -2.744  -0.447   2.521  1.00  0.00     0.074 A 
HETATM    6  C5  UNK     1      -3.112  -1.792   2.516  1.00  0.00     0.073 A 
HETATM    7  C7  UNK     1      -2.790  -2.599   1.425  1.00  0.00     0.074 A 
HETATM    8  C3  UNK     1      -2.101  -2.061   0.338  1.00  0.00     0.087 A 
BRANCH   4   9
HETATM    9  O1  UNK     1      -1.705   1.409   1.459  1.00  0.00    -0.355 OA
HETATM   10  C16 UNK     1      -2.076   2.156   2.615  1.00  0.00     0.210 C 
ENDBRANCH   4   9
BRANCH   6  11
HETATM   11  O3  UNK     1      -3.784  -2.318   3.576  1.00  0.00    -0.356 OA
HETATM   12  C18 UNK     1      -4.081  -1.436   4.659  1.00  0.00     0.210 C 
ENDBRANCH   6  11
BRANCH   8  13
HETATM   13  O2  UNK     1      -1.798  -2.868  -0.717  1.00  0.00    -0.355 OA
HETATM   14  C17 UNK     1      -2.758  -2.947  -1.769  1.00  0.00     0.210 C 
ENDBRANCH   8  13
ENDBRANCH   2   3
BRANCH   2  15
HETATM   15  C9  UNK     1      -1.637   0.984  -1.547  1.00  0.00     0.056 C 
HETATM   16  C10 UNK     1      -0.875   1.937  -2.129  1.00  0.00     0.015 C 
BRANCH  16  17
HETATM   17  C8  UNK     1       0.579   1.976  -2.109  1.00  0.00    -0.033 A 
HETATM   18  C11 UNK     1       1.258   2.046  -0.893  1.00  0.00     0.051 A 
HETATM   19  C12 UNK     1       2.652   2.084  -0.874  1.00  0.00     0.102 A 
HETATM   20  C14 UNK     1       3.367   2.052  -2.071  1.00  0.00     0.101 A 
HETATM   21  C15 UNK     1       2.688   1.983  -3.287  1.00  0.00     0.040 A 
HETATM   22  C13 UNK     1       1.294   1.945  -3.306  1.00  0.00     0.014 A 
BRANCH  19  23
HETATM   23  O4  UNK     1       3.304   2.152   0.321  1.00  0.00    -0.353 OA
HETATM   24  C19 UNK     1       2.499   2.181   1.498  1.00  0.00     0.210 C 
ENDBRANCH  19  23
BRANCH  20  25
HETATM   25  O5  UNK     1       4.729   2.089  -2.065  1.00  0.00    -0.353 OA
HETATM   26  C20 UNK     1       5.383   2.053  -3.332  1.00  0.00     0.210 C 
ENDBRANCH  20  25
ENDBRANCH  16  17
ENDBRANCH   2  15
TORSDOF 8
