REMARK  5 active torsions:
REMARK  status: ('A' for Active; 'I' for Inactive)
REMARK    1  A    between atoms: C5_9  and  N1_3 
REMARK    2  A    between atoms: C6_10  and  N2_4 
REMARK    3  A    between atoms: C5_9  and  C7_11 
REMARK    4  A    between atoms: C6_10  and  C8_12 
REMARK    5  A    between atoms: C15_19  and  C22_26 
ROOT
HETATM    1  N1  UNK     1      -0.224  -0.440  -0.657  1.00  0.00     0.096 N 
HETATM    2  N2  UNK     1       1.514   1.445  -1.992  1.00  0.00     0.096 N 
HETATM    3  C1  UNK     1      -0.577   0.129  -1.963  1.00  0.00     0.303 C 
HETATM    4  C2  UNK     1       1.235  -0.510  -0.506  1.00  0.00     0.303 C 
HETATM    5  C3  UNK     1       0.056   1.514  -2.143  1.00  0.00     0.303 C 
HETATM    6  C4  UNK     1       1.869   0.874  -0.687  1.00  0.00     0.303 C 
ENDROOT
BRANCH   1   7
HETATM    7  C5  UNK     1      -0.826  -1.761  -0.486  1.00  0.00     0.312 C 
BRANCH   7   8
HETATM    8  C7  UNK     1      -2.260  -1.677  -0.089  1.00  0.00    -0.011 A 
HETATM    9  C11 UNK     1      -3.232  -1.641  -1.011  1.00  0.00     0.092 A 
HETATM   10  C16 UNK     1      -4.662  -1.559  -0.667  1.00  0.00     0.288 A 
HETATM   11  O1  UNK     1      -4.977  -1.519   0.682  1.00  0.00    -0.275 OA
HETATM   12  O2  UNK     1      -5.524  -1.528  -1.538  1.00  0.00    -0.260 OA
HETATM   13  C12 UNK     1      -3.976  -1.555   1.674  1.00  0.00     0.090 A 
HETATM   14  C9  UNK     1      -2.625  -1.633   1.333  1.00  0.00     0.007 A 
HETATM   15  C18 UNK     1      -4.409  -1.509   3.000  1.00  0.00     0.039 A 
HETATM   16  C14 UNK     1      -1.692  -1.664   2.378  1.00  0.00     0.022 A 
HETATM   17  C15 UNK     1      -2.110  -1.618   3.713  1.00  0.00    -0.058 A 
HETATM   18  C21 UNK     1      -3.467  -1.541   4.023  1.00  0.00     0.010 A 
BRANCH  17  19
HETATM   19  C22 UNK     1      -1.099  -1.653   4.809  1.00  0.00     0.034 C 
HETATM   20  C24 UNK     1      -0.631  -0.257   5.210  1.00  0.00     0.010 C 
ENDBRANCH  17  19
ENDBRANCH   7   8
ENDBRANCH   1   7
BRANCH   2  21
HETATM   21  C6  UNK     1       2.116   2.767  -2.161  1.00  0.00     0.311 C 
BRANCH  21  22
HETATM   22  C8  UNK     1       3.566   2.609  -2.487  1.00  0.00    -0.024 A 
HETATM   23  C10 UNK     1       4.533   3.394  -1.858  1.00  0.00    -0.054 A 
HETATM   24  C17 UNK     1       5.880   3.230  -2.178  1.00  0.00     0.007 A 
HETATM   25  C19 UNK     1       4.148   4.416  -0.839  1.00  0.00     0.049 C 
HETATM   26  C23 UNK     1       6.262   2.281  -3.127  1.00  0.00     0.001 A 
HETATM   27  C20 UNK     1       5.295   1.496  -3.756  1.00  0.00     0.001 A 
HETATM   28  C13 UNK     1       3.947   1.660  -3.436  1.00  0.00     0.009 A 
ENDBRANCH  21  22
ENDBRANCH   2  21
TORSDOF 5
