REMARK  5 active torsions:
REMARK  status: ('A' for Active; 'I' for Inactive)
REMARK    1  A    between atoms: C5_12  and  N1_4 
REMARK    2  A    between atoms: C6_13  and  N2_5 
REMARK    3  A    between atoms: C17_24  and  N3_6 
REMARK       I    between atoms: C9_16  and  N3_6 
REMARK    4  A    between atoms: C5_12  and  C7_14 
REMARK    5  A    between atoms: C6_13  and  C9_16 
ROOT
HETATM    1  N4  UNK     1      -9.198  -1.338   2.913  1.00  0.00    -0.191 NA
HETATM    2  C17 UNK     1      -4.441  -2.081   2.463  1.00  0.00     0.036 A 
HETATM    3  C19 UNK     1      -5.712  -1.532   2.632  1.00  0.00     0.052 A 
HETATM    4  C20 UNK     1      -4.296  -3.454   2.262  1.00  0.00     0.029 A 
HETATM    5  C21 UNK     1      -6.838  -2.356   2.600  1.00  0.00     0.046 A 
HETATM    6  C22 UNK     1      -5.421  -4.277   2.230  1.00  0.00     0.004 A 
HETATM    7  C23 UNK     1      -6.692  -3.728   2.399  1.00  0.00     0.023 A 
HETATM    8  C24 UNK     1      -8.140  -1.794   2.773  1.00  0.00     0.099 C 
ENDROOT
BRANCH   2   9
HETATM    9  N3  UNK     1      -3.299  -1.246   2.495  1.00  0.00    -0.326 N 
HETATM   10  C9  UNK     1      -1.966  -1.623   2.345  1.00  0.00     0.250 C 
HETATM   11  O2  UNK     1      -1.532  -2.756   2.161  1.00  0.00    -0.271 OA
HETATM   12  H15 UNK     1      -3.498  -0.260   2.652  1.00  0.00     0.169 HD
BRANCH  10  13
HETATM   13  C6  UNK     1      -1.062  -0.406   2.447  1.00  0.00     0.375 C 
BRANCH  13  14
HETATM   14  N2  UNK     1       0.133  -0.619   1.633  1.00  0.00     0.100 N 
HETATM   15  C3  UNK     1      -0.148  -0.355   0.216  1.00  0.00     0.303 C 
HETATM   16  C1  UNK     1       1.104  -0.575  -0.639  1.00  0.00     0.303 C 
HETATM   17  N1  UNK     1       2.212   0.266  -0.170  1.00  0.00     0.096 N 
HETATM   18  C2  UNK     1       2.493   0.003   1.246  1.00  0.00     0.303 C 
HETATM   19  C4  UNK     1       1.240   0.224   2.101  1.00  0.00     0.303 C 
BRANCH  17  20
HETATM   20  C5  UNK     1       3.407   0.051  -0.984  1.00  0.00     0.312 C 
BRANCH  20  21
HETATM   21  C7  UNK     1       3.352   0.799  -2.272  1.00  0.00    -0.011 A 
HETATM   22  C10 UNK     1       2.823   0.246  -3.372  1.00  0.00     0.092 A 
HETATM   23  C13 UNK     1       2.746   0.946  -4.666  1.00  0.00     0.288 A 
HETATM   24  O1  UNK     1       3.255   2.234  -4.707  1.00  0.00    -0.275 OA
HETATM   25  O3  UNK     1       2.255   0.408  -5.651  1.00  0.00    -0.260 OA
HETATM   26  C11 UNK     1       3.818   2.842  -3.567  1.00  0.00     0.090 A 
HETATM   27  C8  UNK     1       3.883   2.166  -2.348  1.00  0.00     0.006 A 
HETATM   28  C14 UNK     1       4.300   4.143  -3.726  1.00  0.00     0.045 A 
HETATM   29  C12 UNK     1       4.458   2.840  -1.261  1.00  0.00     0.015 A 
HETATM   30  C16 UNK     1       4.946   4.144  -1.405  1.00  0.00     0.007 A 
HETATM   31  C15 UNK     1       4.866   4.794  -2.635  1.00  0.00    -0.059 A 
HETATM   32  C18 UNK     1       5.387   6.184  -2.781  1.00  0.00     0.048 C 
ENDBRANCH  20  21
ENDBRANCH  17  20
ENDBRANCH  13  14
ENDBRANCH  10  13
ENDBRANCH   2   9
TORSDOF 5
