REMARK  5 active torsions:
REMARK  status: ('A' for Active; 'I' for Inactive)
REMARK    1  A    between atoms: C13_20  and  O3_3 
REMARK    2  A    between atoms: C18_25  and  O3_3 
REMARK       I    between atoms: C12_19  and  N2_7 
REMARK    3  A    between atoms: C7_14  and  N2_7 
REMARK    4  A    between atoms: C1_8  and  C2_9 
REMARK    5  A    between atoms: C12_19  and  C9_16 
ROOT
HETATM    1  O2  UNK     1       0.911   0.960  -3.446  1.00  0.00    -0.274 OA
HETATM    2  O5  UNK     1      -1.105   0.043  -2.884  1.00  0.00    -0.259 OA
HETATM    3  C8  UNK     1       2.434   1.677  -1.692  1.00  0.00     0.032 A 
HETATM    4  C9  UNK     1       0.298   0.704  -1.093  1.00  0.00     0.108 A 
HETATM    5  C10 UNK     1       2.136   1.526  -3.043  1.00  0.00     0.092 A 
HETATM    6  C11 UNK     1       1.460   1.241  -0.704  1.00  0.00     0.040 A 
HETATM    7  C13 UNK     1       3.659   2.242  -1.331  1.00  0.00     0.081 A 
HETATM    8  C14 UNK     1      -0.041   0.534  -2.524  1.00  0.00     0.304 A 
HETATM    9  C15 UNK     1       3.025   1.924  -4.039  1.00  0.00     0.038 A 
HETATM   10  C16 UNK     1       4.562   2.645  -2.320  1.00  0.00     0.038 A 
HETATM   11  C17 UNK     1       4.245   2.487  -3.671  1.00  0.00     0.006 A 
ENDROOT
BRANCH   4  12
HETATM   12  C12 UNK     1      -0.620   0.295  -0.023  1.00  0.00     0.263 C 
HETATM   13  O4  UNK     1      -0.613   0.897   1.049  1.00  0.00    -0.267 OA
HETATM   14  N2  UNK     1      -1.413  -0.780  -0.399  1.00  0.00    -0.305 N 
HETATM   15  H11 UNK     1      -1.298  -1.195  -1.319  1.00  0.00     0.170 HD
BRANCH  14  16
HETATM   16  C7  UNK     1      -2.392  -1.420   0.373  1.00  0.00     0.160 A 
HETATM   17  C6  UNK     1      -2.716  -1.052   1.677  1.00  0.00     0.088 A 
HETATM   18  C2  UNK     1      -3.702  -1.941   2.014  1.00  0.00     0.090 A 
HETATM   19  O1  UNK     1      -3.938  -2.778   0.971  1.00  0.00    -0.215 OA
HETATM   20  N1  UNK     1      -3.097  -2.444  -0.084  1.00  0.00    -0.110 NA
BRANCH  18  21
HETATM   21  C1  UNK     1      -4.509  -2.154   3.221  1.00  0.00     0.000 C 
HETATM   22  C3  UNK     1      -5.369  -0.893   3.602  1.00  0.00     0.021 C 
HETATM   23  C4  UNK     1      -3.632  -2.493   4.482  1.00  0.00     0.021 C 
HETATM   24  C5  UNK     1      -5.558  -3.331   3.152  1.00  0.00     0.021 C 
ENDBRANCH  18  21
ENDBRANCH  14  16
ENDBRANCH   4  12
BRANCH   7  25
HETATM   25  O3  UNK     1       4.009   2.415  -0.024  1.00  0.00    -0.351 OA
BRANCH  25  26
HETATM   26  C18 UNK     1       5.187   1.748   0.423  1.00  0.00     0.171 C 
HETATM   27  C19 UNK     1       5.044   1.431   1.897  1.00  0.00     0.034 C 
ENDBRANCH  25  26
ENDBRANCH   7  25
TORSDOF 5
