REMARK  6 active torsions:
REMARK  status: ('A' for Active; 'I' for Inactive)
REMARK    1  A    between atoms: C1_7  and  O1_4 
REMARK    2  A    between atoms: C4_10  and  O1_4 
REMARK    3  A    between atoms: C3_9  and  O2_5 
REMARK    4  A    between atoms: C2_8  and  C9_15 
REMARK    5  A    between atoms: C4_10  and  C6_12 
REMARK    6  A    between atoms: C10_16  and  C11_17 
ROOT
HETATM    1  N1  UNK     1      -2.668   1.630   1.278  1.00  0.00    -0.191 NA
HETATM    2  C9  UNK     1      -1.722  -1.633   0.684  1.00  0.00     0.036 C 
HETATM    3  C10 UNK     1      -2.746  -0.969   1.285  1.00  0.00     0.055 C 
HETATM    4  C23 UNK     1      -2.694   0.470   1.276  1.00  0.00     0.100 C 
ENDROOT
BRANCH   3   5
HETATM    5  C11 UNK     1      -3.876  -1.629   1.920  1.00  0.00    -0.015 A 
HETATM    6  C16 UNK     1      -5.016  -1.930   1.176  1.00  0.00     0.016 A 
HETATM    7  C19 UNK     1      -6.100  -2.562   1.785  1.00  0.00     0.043 A 
HETATM    8  C21 UNK     1      -6.043  -2.894   3.139  1.00  0.00     0.116 A 
HETATM    9  C20 UNK     1      -4.903  -2.593   3.883  1.00  0.00     0.043 A 
HETATM   10  F1  UNK     1      -7.084  -3.502   3.724  1.00  0.00    -0.206 F 
HETATM   11  C17 UNK     1      -3.819  -1.960   3.274  1.00  0.00     0.016 A 
ENDBRANCH   3   5
BRANCH   2  12
HETATM   12  C2  UNK     1      -0.566  -1.008   0.025  1.00  0.00    -0.015 A 
HETATM   13  C5  UNK     1       0.547  -0.744   0.814  1.00  0.00     0.052 A 
HETATM   14  C3  UNK     1       1.673  -0.152   0.241  1.00  0.00     0.102 A 
HETATM   15  C1  UNK     1       1.676   0.172  -1.116  1.00  0.00     0.103 A 
HETATM   16  C7  UNK     1       0.554  -0.097  -1.900  1.00  0.00     0.059 A 
HETATM   17  C8  UNK     1      -0.572  -0.689  -1.327  1.00  0.00     0.024 A 
HETATM   18 Br1  UNK     1      -2.066  -1.028  -2.451  1.00  0.00    -0.050 Br
BRANCH  14  19
HETATM   19  O2  UNK     1       2.763   0.105   1.017  1.00  0.00    -0.353 OA
HETATM   20  C22 UNK     1       2.679  -0.257   2.394  1.00  0.00     0.210 C 
ENDBRANCH  14  19
BRANCH  15  21
HETATM   21  O1  UNK     1       2.769   0.750  -1.686  1.00  0.00    -0.344 OA
BRANCH  21  22
HETATM   22  C4  UNK     1       2.538   1.621  -2.792  1.00  0.00     0.216 C 
BRANCH  22  23
HETATM   23  C6  UNK     1       3.626   2.654  -2.838  1.00  0.00    -0.012 A 
HETATM   24  C12 UNK     1       4.800   2.441  -3.556  1.00  0.00     0.042 A 
HETATM   25 Cl1  UNK     1       5.068   0.979  -4.433  1.00  0.00    -0.084 Cl
HETATM   26  C14 UNK     1       5.789   3.424  -3.574  1.00  0.00     0.024 A 
HETATM   27  C18 UNK     1       5.600   4.617  -2.875  1.00  0.00     0.002 A 
HETATM   28  C15 UNK     1       4.423   4.825  -2.157  1.00  0.00     0.001 A 
HETATM   29  C13 UNK     1       3.434   3.842  -2.138  1.00  0.00     0.011 A 
ENDBRANCH  22  23
ENDBRANCH  21  22
ENDBRANCH  15  21
ENDBRANCH   2  12
TORSDOF 6
