REMARK  4 active torsions:
REMARK  status: ('A' for Active; 'I' for Inactive)
REMARK    1  A    between atoms: C7_12  and  O2_2 
REMARK    2  A    between atoms: C9_14  and  O4_4 
REMARK    3  A    between atoms: C15_20  and  O5_5 
REMARK    4  A    between atoms: C3_8  and  C4_9 
ROOT
HETATM    1  O1  UNK     1       0.430  -0.969   1.619  1.00  0.00    -0.309 OA
HETATM    2  O3  UNK     1       0.401  -2.799  -2.021  1.00  0.00    -0.287 OA
HETATM    3  C1  UNK     1       0.712  -2.998   0.313  1.00  0.00     0.081 A 
HETATM    4  C2  UNK     1       0.703  -2.311   1.526  1.00  0.00     0.095 A 
HETATM    5  C3  UNK     1       0.157  -0.268   0.454  1.00  0.00     0.090 A 
HETATM    6  C5  UNK     1       0.414  -2.259  -0.924  1.00  0.00     0.190 A 
HETATM    7  C6  UNK     1       0.129  -0.818  -0.770  1.00  0.00     0.094 A 
HETATM    8  C7  UNK     1       0.997  -4.365   0.278  1.00  0.00     0.085 A 
HETATM    9  C8  UNK     1       0.980  -2.988   2.713  1.00  0.00     0.075 A 
HETATM   10  C9  UNK     1       1.265  -4.353   2.682  1.00  0.00     0.071 A 
HETATM   11  C10 UNK     1       1.274  -5.040   1.467  1.00  0.00     0.074 A 
ENDROOT
BRANCH   5  12
HETATM   12  C4  UNK     1      -0.129   1.165   0.670  1.00  0.00    -0.002 A 
HETATM   13  C11 UNK     1      -1.002   1.842  -0.185  1.00  0.00     0.017 A 
HETATM   14  C13 UNK     1      -1.273   3.195   0.019  1.00  0.00     0.037 A 
HETATM   15  C15 UNK     1      -0.671   3.875   1.078  1.00  0.00     0.065 A 
HETATM   16  C14 UNK     1       0.201   3.202   1.933  1.00  0.00     0.037 A 
HETATM   17  C12 UNK     1       0.472   1.848   1.729  1.00  0.00     0.017 A 
BRANCH  15  18
HETATM   18  O5  UNK     1      -0.936   5.195   1.278  1.00  0.00    -0.361 OA
HETATM   19  H10 UNK     1      -1.559   5.498   0.594  1.00  0.00     0.217 HD
ENDBRANCH  15  18
ENDBRANCH   5  12
BRANCH   8  20
HETATM   20  O2  UNK     1       1.017  -5.080  -0.881  1.00  0.00    -0.360 OA
HETATM   21  H8  UNK     1       0.813  -4.509  -1.637  1.00  0.00     0.217 HD
ENDBRANCH   8  20
BRANCH  10  22
HETATM   22  O4  UNK     1       1.535  -5.018   3.840  1.00  0.00    -0.361 OA
HETATM   23  H9  UNK     1       1.710  -5.952   3.634  1.00  0.00     0.217 HD
ENDBRANCH  10  22
TORSDOF 4
