REMARK  3 active torsions:
REMARK  status: ('A' for Active; 'I' for Inactive)
REMARK    1  A    between atoms: C6_12  and  N1_5 
REMARK    2  A    between atoms: C8_14  and  N2_6 
REMARK    3  A    between atoms: C1_7  and  C5_11 
ROOT
HETATM    1  O1  UNK     1       2.666   2.308  -2.332  1.00  0.00    -0.273 OA
HETATM    2  O2  UNK     1       1.371   2.035  -4.190  1.00  0.00    -0.257 OA
HETATM    3  C6  UNK     1       0.961   0.452  -0.965  1.00  0.00     0.083 A 
HETATM    4  C7  UNK     1       2.115   1.088  -0.277  1.00  0.00     0.027 A 
HETATM    5  C8  UNK     1       0.779   0.809  -2.247  1.00  0.00     0.205 A 
HETATM    6  C11 UNK     1       2.922   1.987  -0.984  1.00  0.00     0.092 A 
HETATM    7  C12 UNK     1       2.463   0.849   1.063  1.00  0.00     0.017 A 
HETATM    8  C13 UNK     1       1.601   1.753  -3.020  1.00  0.00     0.324 A 
HETATM    9  C17 UNK     1       4.025   2.626  -0.409  1.00  0.00     0.038 A 
HETATM   10  C18 UNK     1       3.565   1.482   1.653  1.00  0.00     0.001 A 
HETATM   11  C19 UNK     1       4.345   2.369   0.918  1.00  0.00     0.003 A 
ENDROOT
BRANCH   3  12
HETATM   12  N1  UNK     1       0.199  -0.422  -0.258  1.00  0.00    -0.377 N 
HETATM   13  C3  UNK     1      -0.972  -0.043   0.527  1.00  0.00     0.132 C 
HETATM   14  C1  UNK     1      -1.291  -1.294   1.371  1.00  0.00     0.038 C 
HETATM   15  C2  UNK     1      -0.830  -2.416   0.431  1.00  0.00     0.030 C 
HETATM   16  C4  UNK     1       0.447  -1.855  -0.185  1.00  0.00     0.124 C 
BRANCH  14  17
HETATM   17  C5  UNK     1      -2.717  -1.364   1.873  1.00  0.00    -0.052 A 
HETATM   18  C10 UNK     1      -3.343  -2.603   2.040  1.00  0.00     0.007 A 
HETATM   19  C15 UNK     1      -4.657  -2.668   2.503  1.00  0.00     0.001 A 
HETATM   20  C16 UNK     1      -5.350  -1.494   2.802  1.00  0.00     0.000 A 
HETATM   21  C14 UNK     1      -4.729  -0.256   2.636  1.00  0.00     0.001 A 
HETATM   22  C9  UNK     1      -3.415  -0.191   2.173  1.00  0.00     0.007 A 
ENDBRANCH  14  17
ENDBRANCH   3  12
BRANCH   5  23
HETATM   23  N2  UNK     1      -0.321   0.220  -2.942  1.00  0.00    -0.107 N 
HETATM   24  O3  UNK     1      -1.023  -0.576  -2.309  1.00  0.00    -0.531 OA
HETATM   25  O4  UNK     1      -0.483   0.552  -4.122  1.00  0.00    -0.531 OA
ENDBRANCH   5  23
TORSDOF 3
