REMARK  3 active torsions:
REMARK  status: ('A' for Active; 'I' for Inactive)
REMARK    1  A    between atoms: C9_13  and  O2_2 
REMARK    2  A    between atoms: C15_19  and  O4_4 
REMARK    3  A    between atoms: C3_7  and  C4_8 
ROOT
HETATM    1  O1  UNK     1       0.382  -0.834   1.566  1.00  0.00    -0.309 OA
HETATM    2  O3  UNK     1       0.390  -2.520  -2.143  1.00  0.00    -0.287 OA
HETATM    3  C1  UNK     1       0.673  -2.811   0.185  1.00  0.00     0.051 A 
HETATM    4  C2  UNK     1       0.653  -2.171   1.423  1.00  0.00     0.090 A 
HETATM    5  C3  UNK     1       0.124  -0.087   0.427  1.00  0.00     0.090 A 
HETATM    6  C5  UNK     1       0.392  -2.023  -1.025  1.00  0.00     0.187 A 
HETATM    7  C6  UNK     1       0.108  -0.589  -0.818  1.00  0.00     0.093 A 
HETATM    8  C7  UNK     1       0.954  -4.176   0.099  1.00  0.00     0.055 A 
HETATM    9  C8  UNK     1       0.914  -2.896   2.587  1.00  0.00     0.041 A 
HETATM   10  C9  UNK     1       1.216  -4.898   1.265  1.00  0.00     0.069 A 
HETATM   11  C10 UNK     1       1.195  -4.260   2.505  1.00  0.00     0.039 A 
ENDROOT
BRANCH   5  12
HETATM   12  C4  UNK     1      -0.162   1.337   0.695  1.00  0.00    -0.002 A 
HETATM   13  C11 UNK     1      -1.025   2.049  -0.142  1.00  0.00     0.017 A 
HETATM   14  C13 UNK     1      -1.294   3.394   0.110  1.00  0.00     0.037 A 
HETATM   15  C15 UNK     1      -0.702   4.031   1.201  1.00  0.00     0.065 A 
HETATM   16  C14 UNK     1       0.159   3.324   2.039  1.00  0.00     0.037 A 
HETATM   17  C12 UNK     1       0.429   1.978   1.786  1.00  0.00     0.017 A 
BRANCH  15  18
HETATM   18  O4  UNK     1      -0.966   5.344   1.447  1.00  0.00    -0.361 OA
HETATM   19  H12 UNK     1      -1.580   5.674   0.769  1.00  0.00     0.217 HD
ENDBRANCH  15  18
ENDBRANCH   5  12
BRANCH  10  20
HETATM   20  O2  UNK     1       1.490  -6.230   1.191  1.00  0.00    -0.356 OA
HETATM   21  C16 UNK     1       1.746  -6.908   2.420  1.00  0.00     0.210 C 
ENDBRANCH  10  20
TORSDOF 3
