REMARK  5 active torsions:
REMARK  status: ('A' for Active; 'I' for Inactive)
REMARK       I    between atoms: C2_6  and  N1_4 
REMARK    1  A    between atoms: C4_8  and  N1_4 
REMARK    2  A    between atoms: C5_9  and  N1_4 
REMARK    3  A    between atoms: C1_5  and  C2_6 
REMARK    4  A    between atoms: C11_15  and  C4_8 
REMARK    5  A    between atoms: C12_16  and  C5_9 
ROOT
HETATM    1  O1  UNK     1       2.359   0.145   0.430  1.00  0.00    -0.274 OA
HETATM    2  O3  UNK     1       1.067  -0.744   2.092  1.00  0.00    -0.259 OA
HETATM    3  C1  UNK     1      -0.048   0.574   0.468  1.00  0.00     0.108 A 
HETATM    4  C3  UNK     1       1.325   1.514  -1.293  1.00  0.00    -0.001 A 
HETATM    5  C6  UNK     1       0.039   1.314  -0.643  1.00  0.00     0.037 A 
HETATM    6  C7  UNK     1       2.457   0.923  -0.740  1.00  0.00     0.089 A 
HETATM    7  C8  UNK     1       1.143  -0.064   1.074  1.00  0.00     0.304 A 
HETATM    8  C9  UNK     1       1.463   2.279  -2.453  1.00  0.00     0.014 A 
HETATM    9  C10 UNK     1       3.718   1.074  -1.313  1.00  0.00     0.038 A 
HETATM   10  C13 UNK     1       2.722   2.440  -3.040  1.00  0.00     0.001 A 
HETATM   11  C14 UNK     1       3.847   1.838  -2.471  1.00  0.00     0.003 A 
ENDROOT
BRANCH   3  12
HETATM   12  C2  UNK     1      -1.388   0.431   1.049  1.00  0.00     0.260 C 
HETATM   13  O2  UNK     1      -1.760   1.270   1.878  1.00  0.00    -0.267 OA
HETATM   14  N1  UNK     1      -2.171  -0.644   0.616  1.00  0.00    -0.341 N 
BRANCH  14  15
HETATM   15  C4  UNK     1      -3.524  -0.872   1.117  1.00  0.00     0.153 C 
BRANCH  15  16
HETATM   16  C11 UNK     1      -3.456  -1.746   2.325  1.00  0.00    -0.017 C 
HETATM   17  C15 UNK     1      -4.073  -2.929   2.425  1.00  0.00     0.008 C 
ENDBRANCH  15  16
ENDBRANCH  14  15
BRANCH  14  18
HETATM   18  C5  UNK     1      -1.690  -1.609  -0.363  1.00  0.00     0.153 C 
BRANCH  18  19
HETATM   19  C12 UNK     1      -2.049  -1.135  -1.732  1.00  0.00    -0.017 C 
HETATM   20  C16 UNK     1      -1.315  -1.382  -2.823  1.00  0.00     0.008 C 
ENDBRANCH  18  19
ENDBRANCH  14  18
ENDBRANCH   3  12
TORSDOF 5
