REMARK  5 active torsions:
REMARK  status: ('A' for Active; 'I' for Inactive)
REMARK    1  A    between atoms: C3_8  and  N1_4 
REMARK    2  A    between atoms: C10_15  and  N2_5 
REMARK    3  A    between atoms: C15_20  and  N2_5 
REMARK    4  A    between atoms: C16_21  and  N2_5 
REMARK    5  A    between atoms: C3_8  and  C6_11 
ROOT
HETATM    1  O2  UNK     1      -0.063  -0.928  -1.080  1.00  0.00    -0.274 OA
HETATM    2  O3  UNK     1       1.804  -0.575  -2.344  1.00  0.00    -0.259 OA
HETATM    3  C6  UNK     1       1.801   0.385  -0.172  1.00  0.00     0.046 A 
HETATM    4  C7  UNK     1      -0.196  -0.001   1.161  1.00  0.00    -0.001 A 
HETATM    5  C8  UNK     1       1.130   0.564   0.973  1.00  0.00     0.029 A 
HETATM    6  C9  UNK     1      -0.763  -0.736   0.126  1.00  0.00     0.091 A 
HETATM    7  C10 UNK     1      -2.746  -1.131   1.421  1.00  0.00     0.032 A 
HETATM    8  C11 UNK     1       1.208  -0.399  -1.287  1.00  0.00     0.296 A 
HETATM    9  C12 UNK     1      -2.031  -1.305   0.239  1.00  0.00     0.067 A 
HETATM   10  C13 UNK     1      -0.919   0.168   2.343  1.00  0.00     0.016 A 
HETATM   11  C14 UNK     1      -2.192  -0.396   2.472  1.00  0.00     0.030 A 
ENDROOT
BRANCH   3  12
HETATM   12  C3  UNK     1       3.169   0.953  -0.398  1.00  0.00     0.317 C 
BRANCH  12  13
HETATM   13  N1  UNK     1       3.288   1.578  -1.714  1.00  0.00     0.097 N 
HETATM   14  C1  UNK     1       2.323   2.676  -1.858  1.00  0.00     0.299 C 
HETATM   15  C4  UNK     1       2.474   3.320  -3.234  1.00  0.00     0.198 C 
HETATM   16  O1  UNK     1       3.806   3.802  -3.414  1.00  0.00    -0.388 OA
HETATM   17  C5  UNK     1       4.750   2.735  -3.306  1.00  0.00     0.198 C 
HETATM   18  C2  UNK     1       4.653   2.076  -1.933  1.00  0.00     0.299 C 
ENDBRANCH  12  13
ENDBRANCH   3  12
BRANCH   7  19
HETATM   19  N2  UNK     1      -4.031  -1.696   1.558  1.00  0.00    -0.382 N 
BRANCH  19  20
HETATM   20  C15 UNK     1      -4.783  -1.520   2.784  1.00  0.00     0.118 C 
HETATM   21  C17 UNK     1      -4.349  -2.507   3.848  1.00  0.00     0.026 C 
ENDBRANCH  19  20
BRANCH  19  22
HETATM   22  C16 UNK     1      -4.621  -2.449   0.469  1.00  0.00     0.118 C 
HETATM   23  C18 UNK     1      -5.248  -1.534  -0.562  1.00  0.00     0.026 C 
ENDBRANCH  19  22
ENDBRANCH   7  19
TORSDOF 5
