REMARK  3 active torsions:
REMARK  status: ('A' for Active; 'I' for Inactive)
REMARK    1  A    between atoms: C7_11  and  O3_3 
REMARK    2  A    between atoms: C11_15  and  O4_4 
REMARK    3  A    between atoms: C1_5  and  C4_8 
ROOT
HETATM    1  O1  UNK     1      -0.848  -0.161  -0.538  1.00  0.00    -0.340 OA
HETATM    2  O2  UNK     1       0.912   2.594   1.941  1.00  0.00    -0.292 OA
HETATM    3  C1  UNK     1      -0.935  -0.297   0.889  1.00  0.00     0.169 C 
HETATM    4  C2  UNK     1      -0.903   1.069   1.572  1.00  0.00     0.121 C 
HETATM    5  C3  UNK     1       0.919   1.471  -0.136  1.00  0.00     0.076 A 
HETATM    6  C5  UNK     1       0.377   1.773   1.205  1.00  0.00     0.167 C 
HETATM    7  C6  UNK     1       0.262   0.536  -0.941  1.00  0.00     0.089 A 
HETATM    8  C7  UNK     1       2.048   2.142  -0.612  1.00  0.00     0.085 A 
HETATM    9  C8  UNK     1       0.717   0.296  -2.238  1.00  0.00     0.074 A 
HETATM   10  C11 UNK     1       1.843   0.966  -2.716  1.00  0.00     0.073 A 
HETATM   11  C12 UNK     1       2.510   1.883  -1.903  1.00  0.00     0.074 A 
ENDROOT
BRANCH   3  12
HETATM   12  C4  UNK     1      -2.209  -1.045   1.222  1.00  0.00    -0.029 A 
HETATM   13  C10 UNK     1      -3.336  -0.896   0.415  1.00  0.00     0.010 A 
HETATM   14  C14 UNK     1      -4.509  -1.585   0.722  1.00  0.00     0.001 A 
HETATM   15  C15 UNK     1      -4.555  -2.423   1.836  1.00  0.00     0.000 A 
HETATM   16  C13 UNK     1      -3.427  -2.571   2.643  1.00  0.00     0.001 A 
HETATM   17  C9  UNK     1      -2.254  -1.882   2.336  1.00  0.00     0.010 A 
ENDBRANCH   3  12
BRANCH   8  18
HETATM   18  O3  UNK     1       2.727   3.059   0.133  1.00  0.00    -0.360 OA
HETATM   19  H11 UNK     1       3.476   3.408  -0.380  1.00  0.00     0.217 HD
ENDBRANCH   8  18
BRANCH  10  20
HETATM   20  O4  UNK     1       2.294   0.724  -3.978  1.00  0.00    -0.356 OA
HETATM   21  C16 UNK     1       3.450   1.442  -4.403  1.00  0.00     0.210 C 
ENDBRANCH  10  20
TORSDOF 3
