REMARK  3 active torsions:
REMARK  status: ('A' for Active; 'I' for Inactive)
REMARK    1  A    between atoms: C6_10  and  O2_2 
REMARK    2  A    between atoms: C9_13  and  O4_4 
REMARK    3  A    between atoms: C3_7  and  C5_9 
ROOT
HETATM    1  O1  UNK     1      -0.227  -0.028  -0.893  1.00  0.00    -0.309 OA
HETATM    2  O3  UNK     1      -0.663   1.527   2.847  1.00  0.00    -0.287 OA
HETATM    3  C1  UNK     1      -1.408  -0.025   1.229  1.00  0.00     0.081 A 
HETATM    4  C2  UNK     1      -1.204  -0.513  -0.061  1.00  0.00     0.095 A 
HETATM    5  C3  UNK     1       0.587   0.995  -0.432  1.00  0.00     0.090 A 
HETATM    6  C4  UNK     1      -0.541   1.054   1.725  1.00  0.00     0.190 A 
HETATM    7  C6  UNK     1      -2.419  -0.557   2.033  1.00  0.00     0.085 A 
HETATM    8  C7  UNK     1       0.493   1.542   0.791  1.00  0.00     0.094 A 
HETATM    9  C8  UNK     1      -2.011  -1.538  -0.555  1.00  0.00     0.075 A 
HETATM   10  C9  UNK     1      -3.021  -2.071   0.245  1.00  0.00     0.071 A 
HETATM   11  C10 UNK     1      -3.225  -1.582   1.536  1.00  0.00     0.074 A 
ENDROOT
BRANCH   5  12
HETATM   12  C5  UNK     1       1.607   1.436  -1.404  1.00  0.00    -0.002 A 
HETATM   13  C11 UNK     1       2.837   1.926  -0.958  1.00  0.00     0.014 A 
HETATM   14  C13 UNK     1       3.800   2.343  -1.877  1.00  0.00     0.001 A 
HETATM   15  C15 UNK     1       3.537   2.270  -3.245  1.00  0.00     0.000 A 
HETATM   16  C14 UNK     1       2.310   1.781  -3.694  1.00  0.00     0.001 A 
HETATM   17  C12 UNK     1       1.346   1.365  -2.775  1.00  0.00     0.014 A 
ENDBRANCH   5  12
BRANCH   7  18
HETATM   18  O2  UNK     1      -2.658  -0.116   3.299  1.00  0.00    -0.360 OA
HETATM   19  H9  UNK     1      -2.042   0.595   3.534  1.00  0.00     0.217 HD
ENDBRANCH   7  18
BRANCH  10  20
HETATM   20  O4  UNK     1      -3.810  -3.072  -0.235  1.00  0.00    -0.361 OA
HETATM   21  H10 UNK     1      -4.455  -3.321   0.450  1.00  0.00     0.217 HD
ENDBRANCH  10  20
TORSDOF 3
