REMARK  3 active torsions:
REMARK  status: ('A' for Active; 'I' for Inactive)
REMARK    1  A    between atoms: C1_7  and  N1_4 
REMARK       I    between atoms: C5_11  and  N1_4 
REMARK    2  A    between atoms: C1_7  and  C2_8 
REMARK    3  A    between atoms: C5_11  and  C6_12 
ROOT
HETATM    1  O2  UNK     1       0.721  -1.381   1.123  1.00  0.00    -0.267 OA
HETATM    2  N1  UNK     1      -0.724   0.441   1.241  1.00  0.00    -0.348 N 
HETATM    3  C5  UNK     1       0.337  -0.287   0.695  1.00  0.00     0.259 C 
HETATM    4  C7  UNK     1      -1.143   1.732   0.700  1.00  0.00     0.153 C 
ENDROOT
BRANCH   3   5
HETATM    5  C6  UNK     1       1.045   0.299  -0.450  1.00  0.00     0.108 A 
HETATM    6  C10 UNK     1       2.091   1.082  -0.161  1.00  0.00     0.037 A 
HETATM    7  C8  UNK     1       2.856   1.708  -1.229  1.00  0.00    -0.001 A 
HETATM    8  C11 UNK     1       2.481   1.479  -2.549  1.00  0.00     0.089 A 
HETATM    9  C14 UNK     1       3.955   2.532  -0.973  1.00  0.00     0.014 A 
HETATM   10  O1  UNK     1       1.379   0.654  -2.847  1.00  0.00    -0.274 OA
HETATM   11  C15 UNK     1       3.171   2.049  -3.617  1.00  0.00     0.038 A 
HETATM   12  C13 UNK     1       0.628   0.041  -1.847  1.00  0.00     0.304 A 
HETATM   13  O3  UNK     1      -0.330  -0.675  -2.116  1.00  0.00    -0.259 OA
HETATM   14  C17 UNK     1       4.265   2.869  -3.353  1.00  0.00     0.003 A 
HETATM   15  C16 UNK     1       4.657   3.110  -2.035  1.00  0.00     0.001 A 
ENDBRANCH   3   5
BRANCH   2  16
HETATM   16  C1  UNK     1      -1.486  -0.039   2.387  1.00  0.00     0.167 C 
BRANCH  16  17
HETATM   17  C2  UNK     1      -2.667  -0.872   1.966  1.00  0.00     0.003 A 
HETATM   18  C3  UNK     1      -2.695  -2.246   1.769  1.00  0.00     0.060 A 
HETATM   19  N3  UNK     1      -3.908  -2.666   1.398  1.00  0.00    -0.178 NA
HETATM   20  C9  UNK     1      -1.603  -3.224   1.916  1.00  0.00     0.073 C 
HETATM   21  N2  UNK     1      -4.627  -1.531   1.368  1.00  0.00    -0.284 N 
HETATM   22  C12 UNK     1      -6.022  -1.578   1.001  1.00  0.00     0.179 C 
HETATM   23  C4  UNK     1      -3.915  -0.418   1.706  1.00  0.00     0.122 A 
ENDBRANCH  16  17
ENDBRANCH   2  16
TORSDOF 3
