REMARK  2 active torsions:
REMARK  status: ('A' for Active; 'I' for Inactive)
REMARK       I    between atoms: C5_11  and  N1_6 
REMARK    1  A    between atoms: C7_13  and  N1_6 
REMARK    2  A    between atoms: C2_8  and  C5_11 
ROOT
HETATM    1  O2  UNK     1      -1.063  -0.844  -1.752  1.00  0.00    -0.267 OA
HETATM    2  N1  UNK     1      -0.991  -0.357   0.555  1.00  0.00    -0.320 N 
HETATM    3  C5  UNK     1      -0.534  -0.357  -0.755  1.00  0.00     0.262 C 
HETATM    4  H3  UNK     1      -0.441   0.112   1.271  1.00  0.00     0.169 HD
ENDROOT
BRANCH   3   5
HETATM    5  C2  UNK     1       0.756   0.332  -0.884  1.00  0.00     0.108 A 
HETATM    6  C4  UNK     1       0.991   0.931  -2.058  1.00  0.00     0.037 A 
HETATM    7  C1  UNK     1       2.242   1.639  -2.282  1.00  0.00    -0.001 A 
HETATM    8  C3  UNK     1       3.184   1.681  -1.259  1.00  0.00     0.089 A 
HETATM    9  C6  UNK     1       2.530   2.278  -3.490  1.00  0.00     0.014 A 
HETATM   10  O1  UNK     1       2.930   1.049  -0.026  1.00  0.00    -0.274 OA
HETATM   11  C9  UNK     1       4.401   2.342  -1.409  1.00  0.00     0.038 A 
HETATM   12  C8  UNK     1       1.743   0.364   0.218  1.00  0.00     0.304 A 
HETATM   13  O3  UNK     1       1.532  -0.184   1.294  1.00  0.00    -0.259 OA
HETATM   14  C11 UNK     1       4.681   2.977  -2.617  1.00  0.00     0.003 A 
HETATM   15  C10 UNK     1       3.747   2.945  -3.656  1.00  0.00     0.001 A 
ENDBRANCH   3   5
BRANCH   2  16
HETATM   16  C7  UNK     1      -2.182  -0.928   1.013  1.00  0.00     0.074 A 
HETATM   17  C12 UNK     1      -2.518  -0.853   2.363  1.00  0.00     0.146 A 
HETATM   18  F1  UNK     1      -1.709  -0.235   3.235  1.00  0.00    -0.204 F 
HETATM   19  C14 UNK     1      -3.707  -1.425   2.817  1.00  0.00     0.086 A 
HETATM   20  C16 UNK     1      -4.557  -2.071   1.919  1.00  0.00     0.119 A 
HETATM   21  C15 UNK     1      -4.219  -2.145   0.568  1.00  0.00     0.044 A 
HETATM   22  F2  UNK     1      -5.698  -2.620   2.354  1.00  0.00    -0.206 F 
HETATM   23  C13 UNK     1      -3.030  -1.573   0.114  1.00  0.00     0.036 A 
ENDBRANCH   2  16
TORSDOF 2
