REMARK  4 active torsions:
REMARK  status: ('A' for Active; 'I' for Inactive)
REMARK    1  A    between atoms: C1_7  and  N1_5 
REMARK    2  A    between atoms: C2_8  and  N2_6 
REMARK       I    between atoms: C5_11  and  N2_6 
REMARK    3  A    between atoms: C1_7  and  C2_8 
REMARK    4  A    between atoms: C3_9  and  C5_11 
ROOT
HETATM    1 Br1  UNK     1       5.666   3.147  -0.726  1.00  0.00    -0.051 Br
HETATM    2  O1  UNK     1       0.355   0.900  -2.611  1.00  0.00    -0.274 OA
HETATM    3  O3  UNK     1      -1.500  -0.382  -2.242  1.00  0.00    -0.259 OA
HETATM    4  C3  UNK     1       0.091  -0.287  -0.489  1.00  0.00     0.108 A 
HETATM    5  C4  UNK     1       2.056   1.074  -0.883  1.00  0.00     0.000 A 
HETATM    6  C6  UNK     1       1.258   0.193  -0.045  1.00  0.00     0.037 A 
HETATM    7  C7  UNK     1       1.585   1.408  -2.148  1.00  0.00     0.089 A 
HETATM    8  C10 UNK     1      -0.430   0.055  -1.832  1.00  0.00     0.304 A 
HETATM    9  C11 UNK     1       3.281   1.597  -0.460  1.00  0.00     0.033 A 
HETATM   10  C12 UNK     1       2.300   2.247  -3.000  1.00  0.00     0.039 A 
HETATM   11  C13 UNK     1       4.010   2.441  -1.303  1.00  0.00     0.011 A 
HETATM   12  C14 UNK     1       3.520   2.765  -2.571  1.00  0.00     0.022 A 
ENDROOT
BRANCH   4  13
HETATM   13  C5  UNK     1      -0.641  -1.167   0.429  1.00  0.00     0.257 C 
HETATM   14  O2  UNK     1      -0.042  -1.871   1.240  1.00  0.00    -0.267 OA
HETATM   15  N2  UNK     1      -2.012  -1.099   0.262  1.00  0.00    -0.355 N 
HETATM   16  H5  UNK     1      -2.413  -0.455  -0.414  1.00  0.00     0.162 HD
BRANCH  15  17
HETATM   17  C2  UNK     1      -2.942  -1.876   1.050  1.00  0.00     0.153 C 
BRANCH  17  18
HETATM   18  C1  UNK     1      -3.361  -1.126   2.306  1.00  0.00     0.291 C 
BRANCH  18  19
HETATM   19  N1  UNK     1      -4.319  -1.914   3.071  1.00  0.00     0.081 N 
HETATM   20  C8  UNK     1      -4.710  -1.208   4.292  1.00  0.00     0.309 C 
HETATM   21  C9  UNK     1      -5.500  -2.219   2.261  1.00  0.00     0.309 C 
ENDBRANCH  18  19
ENDBRANCH  17  18
ENDBRANCH  15  17
ENDBRANCH   4  13
TORSDOF 4
