REMARK  5 active torsions:
REMARK  status: ('A' for Active; 'I' for Inactive)
REMARK    1  A    between atoms: C5_11  and  N1_4 
REMARK    2  A    between atoms: C6_12  and  N2_5 
REMARK    3  A    between atoms: C5_11  and  C7_13 
REMARK    4  A    between atoms: C6_12  and  C8_14 
REMARK    5  A    between atoms: C14_20  and  C20_26 
ROOT
HETATM    1  N1  UNK     1      -1.023  -0.950   1.089  1.00  0.00     0.096 N 
HETATM    2  N2  UNK     1       1.014   1.094   0.914  1.00  0.00     0.097 N 
HETATM    3  C1  UNK     1      -0.126  -0.865  -0.070  1.00  0.00     0.303 C 
HETATM    4  C2  UNK     1      -0.356  -0.434   2.291  1.00  0.00     0.303 C 
HETATM    5  C3  UNK     1       0.348   0.577  -0.288  1.00  0.00     0.303 C 
HETATM    6  C4  UNK     1       0.119   1.007   2.074  1.00  0.00     0.303 C 
ENDROOT
BRANCH   2   7
HETATM    7  C6  UNK     1       1.463   2.470   0.706  1.00  0.00     0.334 C 
BRANCH   7   8
HETATM    8  C8  UNK     1       2.704   2.462  -0.127  1.00  0.00     0.095 A 
HETATM    9  C10 UNK     1       4.015   2.397   0.276  1.00  0.00     0.078 A 
HETATM   10  C16 UNK     1       4.699   2.316   1.571  1.00  0.00     0.079 C 
HETATM   11  O1  UNK     1       4.797   2.419  -0.839  1.00  0.00    -0.294 OA
HETATM   12  C14 UNK     1       3.898   2.496  -1.858  1.00  0.00     0.180 A 
HETATM   13  N3  UNK     1       2.636   2.525  -1.495  1.00  0.00    -0.224 NA
BRANCH  12  14
HETATM   14  C20 UNK     1       4.469   2.534  -3.176  1.00  0.00     0.018 A 
HETATM   15  C22 UNK     1       3.639   2.613  -4.294  1.00  0.00     0.022 A 
HETATM   16  C24 UNK     1       4.194   2.651  -5.573  1.00  0.00    -0.061 A 
HETATM   17  C26 UNK     1       5.579   2.609  -5.734  1.00  0.00     0.007 A 
HETATM   18  C27 UNK     1       3.307   2.737  -6.769  1.00  0.00     0.048 C 
HETATM   19  C25 UNK     1       6.409   2.529  -4.616  1.00  0.00     0.002 A 
HETATM   20  C23 UNK     1       5.854   2.491  -3.336  1.00  0.00     0.016 A 
ENDBRANCH  12  14
ENDBRANCH   7   8
ENDBRANCH   2   7
BRANCH   1  21
HETATM   21  C5  UNK     1      -1.474  -2.325   1.296  1.00  0.00     0.312 C 
BRANCH  21  22
HETATM   22  C7  UNK     1      -2.750  -2.389   2.061  1.00  0.00    -0.011 A 
HETATM   23  C11 UNK     1      -2.753  -2.464   3.400  1.00  0.00     0.092 A 
HETATM   24  C15 UNK     1      -3.988  -2.529   4.198  1.00  0.00     0.288 A 
HETATM   25  O2  UNK     1      -5.184  -2.508   3.498  1.00  0.00    -0.275 OA
HETATM   26  O3  UNK     1      -3.952  -2.597   5.422  1.00  0.00    -0.260 OA
HETATM   27  C12 UNK     1      -5.213  -2.429   2.091  1.00  0.00     0.090 A 
HETATM   28  C9  UNK     1      -4.034  -2.369   1.347  1.00  0.00     0.006 A 
HETATM   29  C17 UNK     1      -6.474  -2.416   1.491  1.00  0.00     0.045 A 
HETATM   30  C13 UNK     1      -4.147  -2.293  -0.047  1.00  0.00     0.015 A 
HETATM   31  C18 UNK     1      -5.404  -2.278  -0.663  1.00  0.00     0.007 A 
HETATM   32  C19 UNK     1      -6.566  -2.340   0.106  1.00  0.00    -0.059 A 
HETATM   33  C21 UNK     1      -7.902  -2.324  -0.556  1.00  0.00     0.048 C 
ENDBRANCH  21  22
ENDBRANCH   1  21
TORSDOF 5
