REMARK  9 active torsions:
REMARK  status: ('A' for Active; 'I' for Inactive)
REMARK    1  A    between atoms: C2_13  and  S1_1 
REMARK    2  A    between atoms: N1_10  and  S1_1 
REMARK    3  A    between atoms: C14_25  and  O2_3 
REMARK    4  A    between atoms: C9_20  and  O2_3 
REMARK    5  A    between atoms: C1_12  and  N1_10 
REMARK    6  A    between atoms: C25_36  and  N2_11 
REMARK    7  A    between atoms: C1_12  and  C3_14 
REMARK    8  A    between atoms: C14_25  and  C3_14 
REMARK    9  A    between atoms: C6_17  and  C8_19 
ROOT
HETATM    1  O1  UNK     1      -1.502   0.887  -0.205  1.00  0.00    -0.321 OA
HETATM    2  O5  UNK     1      -1.307  -0.469   3.638  1.00  0.00    -0.286 OA
HETATM    3  C4  UNK     1      -0.362   0.857   1.938  1.00  0.00     0.049 A 
HETATM    4  C5  UNK     1      -0.474   1.279   0.613  1.00  0.00     0.091 A 
HETATM    5  C6  UNK     1      -2.493  -0.436   1.574  1.00  0.00     0.048 A 
HETATM    6  C7  UNK     1      -1.384  -0.052   2.490  1.00  0.00     0.197 A 
HETATM    7  C9  UNK     1       1.554   2.567   0.854  1.00  0.00     0.082 A 
HETATM    8  C10 UNK     1       0.484   2.135   0.069  1.00  0.00     0.075 A 
HETATM    9  C11 UNK     1       0.708   1.288   2.725  1.00  0.00     0.021 A 
HETATM   10  C15 UNK     1       1.665   2.145   2.179  1.00  0.00     0.038 A 
HETATM   11  C17 UNK     1      -2.459   0.058   0.327  1.00  0.00     0.159 A 
ENDROOT
BRANCH   7  12
HETATM   12  O2  UNK     1       2.489   3.404   0.327  1.00  0.00    -0.279 OA
BRANCH  12  13
HETATM   13  C14 UNK     1       3.577   2.746  -0.278  1.00  0.00     0.265 C 
HETATM   14  O6  UNK     1       3.722   1.532  -0.340  1.00  0.00    -0.265 OA
BRANCH  13  15
HETATM   15  C3  UNK     1       4.545   3.776  -0.825  1.00  0.00     0.132 C 
BRANCH  15  16
HETATM   16  C1  UNK     1       4.803   3.614  -2.317  1.00  0.00     0.142 C 
BRANCH  16  17
HETATM   17  N1  UNK     1       3.540   3.776  -3.072  1.00  0.00    -0.315 N 
HETATM   18  H3  UNK     1       3.026   4.652  -2.914  1.00  0.00     0.172 HD
BRANCH  17  19
HETATM   19  S1  UNK     1       3.316   2.945  -4.536  1.00  0.00     0.258 S 
HETATM   20  O3  UNK     1       4.608   2.630  -5.115  1.00  0.00    -0.201 OA
HETATM   21  O4  UNK     1       2.314   3.640  -5.322  1.00  0.00    -0.201 OA
BRANCH  19  22
HETATM   22  C2  UNK     1       2.581   1.433  -3.988  1.00  0.00     0.079 A 
HETATM   23  C12 UNK     1       1.203   1.347  -3.890  1.00  0.00     0.026 A 
HETATM   24  C18 UNK     1       0.624   0.154  -3.458  1.00  0.00     0.008 A 
HETATM   25  C16 UNK     1       1.432  -0.934  -3.130  1.00  0.00    -0.062 A 
HETATM   26  C19 UNK     1       2.819  -0.830  -3.235  1.00  0.00     0.008 A 
HETATM   27  C22 UNK     1       0.813  -2.211  -2.669  1.00  0.00     0.048 C 
HETATM   28  C13 UNK     1       3.398   0.363  -3.667  1.00  0.00     0.026 A 
ENDBRANCH  19  22
ENDBRANCH  17  19
ENDBRANCH  16  17
ENDBRANCH  15  16
ENDBRANCH  13  15
ENDBRANCH  12  13
ENDBRANCH   7  12
BRANCH   5  29
HETATM   29  C8  UNK     1      -3.598  -1.306   2.010  1.00  0.00    -0.020 A 
HETATM   30  C20 UNK     1      -3.506  -2.690   1.850  1.00  0.00     0.015 A 
HETATM   31  C23 UNK     1      -4.553  -3.513   2.266  1.00  0.00     0.037 A 
HETATM   32  C25 UNK     1      -5.693  -2.954   2.843  1.00  0.00     0.102 A 
HETATM   33  C24 UNK     1      -5.787  -1.572   3.003  1.00  0.00     0.037 A 
HETATM   34  C21 UNK     1      -4.740  -0.748   2.587  1.00  0.00     0.015 A 
BRANCH  32  35
HETATM   35  N2  UNK     1      -6.759  -3.791   3.266  1.00  0.00    -0.116 N 
HETATM   36  O7  UNK     1      -6.655  -5.032   3.112  1.00  0.00    -0.532 OA
HETATM   37  O8  UNK     1      -7.776  -3.267   3.782  1.00  0.00    -0.532 OA
ENDBRANCH  32  35
ENDBRANCH   5  29
TORSDOF 9
