REMARK  4 active torsions:
REMARK  status: ('A' for Active; 'I' for Inactive)
REMARK    1  A    between atoms: C12_19  and  O3_4 
REMARK    2  A    between atoms: C7_14  and  N1_7 
REMARK    3  A    between atoms: C1_8  and  C5_12 
REMARK    4  A    between atoms: C12_19  and  C3_10 
ROOT
HETATM    1  O1  UNK     1       0.348  -0.484  -2.198  1.00  0.00    -0.292 OA
HETATM    2  O2  UNK     1       1.858   2.705   0.053  1.00  0.00    -0.274 OA
HETATM    3  O4  UNK     1      -0.017   2.683   1.350  1.00  0.00    -0.259 OA
HETATM    4  C1  UNK     1      -1.212   0.414   0.040  1.00  0.00     0.104 C 
HETATM    5  C2  UNK     1       0.114   1.034  -0.358  1.00  0.00     0.066 A 
HETATM    6  C3  UNK     1      -1.717  -0.558  -1.013  1.00  0.00     0.081 C 
HETATM    7  C4  UNK     1       0.801   0.560  -1.409  1.00  0.00     0.104 A 
HETATM    8  C6  UNK     1       2.094   1.126  -1.784  1.00  0.00     0.033 A 
HETATM    9  C7  UNK     1      -0.953  -0.968  -2.048  1.00  0.00     0.155 C 
HETATM   10  C8  UNK     1       0.619   2.194   0.422  1.00  0.00     0.298 A 
HETATM   11  C9  UNK     1       2.592   2.187  -1.032  1.00  0.00     0.092 A 
HETATM   12  C13 UNK     1       2.865   0.658  -2.855  1.00  0.00     0.017 A 
HETATM   13  C14 UNK     1       3.820   2.784  -1.314  1.00  0.00     0.038 A 
HETATM   14  C17 UNK     1       4.099   1.247  -3.151  1.00  0.00     0.001 A 
HETATM   15  C19 UNK     1       4.576   2.308  -2.381  1.00  0.00     0.003 A 
ENDROOT
BRANCH   4  16
HETATM   16  C5  UNK     1      -1.089  -0.277   1.367  1.00  0.00    -0.043 A 
HETATM   17  C10 UNK     1      -0.209  -1.343   1.509  1.00  0.00     0.027 A 
HETATM   18  C15 UNK     1      -0.094  -1.984   2.743  1.00  0.00     0.011 A 
HETATM   19 Br1  UNK     1       1.101  -3.434   2.948  1.00  0.00    -0.051 Br
HETATM   20  C18 UNK     1      -0.860  -1.553   3.826  1.00  0.00     0.019 A 
HETATM   21  C16 UNK     1      -1.741  -0.483   3.676  1.00  0.00     0.002 A 
HETATM   22  C11 UNK     1      -1.856   0.158   2.442  1.00  0.00     0.008 A 
ENDBRANCH   4  16
BRANCH   6  23
HETATM   23  C12 UNK     1      -3.110  -1.018  -0.866  1.00  0.00     0.294 C 
HETATM   24  O5  UNK     1      -3.500  -2.100  -1.260  1.00  0.00    -0.259 OA
BRANCH  23  25
HETATM   25  O3  UNK     1      -3.816  -0.046  -0.241  1.00  0.00    -0.323 OA
HETATM   26  C20 UNK     1      -5.198  -0.346  -0.023  1.00  0.00     0.213 C 
ENDBRANCH  23  25
ENDBRANCH   6  23
BRANCH   9  27
HETATM   27  N1  UNK     1      -1.318  -1.847  -3.028  1.00  0.00    -0.379 N 
HETATM   28  H7  UNK     1      -0.653  -2.074  -3.755  1.00  0.00     0.158 HD
HETATM   29  H8  UNK     1      -2.240  -2.264  -3.029  1.00  0.00     0.158 HD
ENDBRANCH   9  27
TORSDOF 4
