REMARK  9 active torsions:
REMARK  status: ('A' for Active; 'I' for Inactive)
REMARK    1  A    between atoms: C13_20  and  O1_3 
REMARK    2  A    between atoms: C4_11  and  N1_5 
REMARK    3  A    between atoms: C16_23  and  N2_6 
REMARK    4  A    between atoms: C22_29  and  N3_7 
REMARK    5  A    between atoms: C10_17  and  C5_12 
REMARK    6  A    between atoms: C5_12  and  C6_13 
REMARK    7  A    between atoms: C5_12  and  C7_14 
REMARK    8  A    between atoms: C27_34  and  C30_37 
REMARK    9  A    between atoms: C31_38  and  C32_39 
ROOT
HETATM    1  S2  UNK     1      -1.005  -0.011  -2.613  1.00  0.00    -0.045 SA
HETATM    2  O2  UNK     1       0.846   0.102   0.729  1.00  0.00    -0.266 OA
HETATM    3  N2  UNK     1      -1.202  -0.661  -0.129  1.00  0.00    -0.292 N 
HETATM    4  N3  UNK     1      -3.081  -1.232  -1.487  1.00  0.00    -0.224 NA
HETATM    5  C7  UNK     1       0.317   0.375  -1.584  1.00  0.00     0.087 A 
HETATM    6  C11 UNK     1       0.053  -0.062  -0.189  1.00  0.00     0.267 A 
HETATM    7  C15 UNK     1      -1.910  -0.726  -1.307  1.00  0.00     0.177 A 
ENDROOT
BRANCH   5   8
HETATM    8  C5  UNK     1       1.451   0.990  -1.965  1.00  0.00    -0.001 C 
BRANCH   8   9
HETATM    9  C10 UNK     1       1.543   1.354  -3.394  1.00  0.00    -0.024 A 
HETATM   10  C18 UNK     1       1.085   2.593  -3.805  1.00  0.00     0.012 A 
HETATM   11  C21 UNK     1       1.171   2.937  -5.154  1.00  0.00     0.001 A 
HETATM   12  C23 UNK     1       1.716   2.037  -6.070  1.00  0.00     0.000 A 
HETATM   13  C20 UNK     1       2.173   0.792  -5.637  1.00  0.00     0.001 A 
HETATM   14  C17 UNK     1       2.086   0.448  -4.288  1.00  0.00     0.012 A 
ENDBRANCH   8   9
BRANCH   8  15
HETATM   15  C6  UNK     1       2.495   1.257  -0.988  1.00  0.00     0.051 C 
HETATM   16  C2  UNK     1       3.667   1.861  -1.239  1.00  0.00     0.078 A 
HETATM   17  S1  UNK     1       3.994   2.391  -2.915  1.00  0.00    -0.070 SA
HETATM   18  N1  UNK     1       4.702   2.143  -0.345  1.00  0.00    -0.340 N 
HETATM   19  C3  UNK     1       5.583   3.005  -2.361  1.00  0.00     0.036 A 
HETATM   20  C1  UNK     1       5.781   2.787  -0.979  1.00  0.00     0.052 A 
HETATM   21  C9  UNK     1       6.537   3.627  -3.154  1.00  0.00     0.058 A 
HETATM   22  C8  UNK     1       6.972   3.210  -0.396  1.00  0.00     0.034 A 
HETATM   23  C14 UNK     1       7.940   3.838  -1.187  1.00  0.00     0.039 A 
HETATM   24  C13 UNK     1       7.724   4.045  -2.555  1.00  0.00     0.069 A 
BRANCH  24  25
HETATM   25  O1  UNK     1       8.681   4.658  -3.305  1.00  0.00    -0.356 OA
HETATM   26  C26 UNK     1       8.402   4.840  -4.692  1.00  0.00     0.210 C 
ENDBRANCH  24  25
BRANCH  18  27
HETATM   27  C4  UNK     1       4.762   1.850   1.074  1.00  0.00     0.125 C 
HETATM   28  C12 UNK     1       4.216   3.019   1.872  1.00  0.00     0.027 C 
ENDBRANCH  18  27
ENDBRANCH   8  15
ENDBRANCH   5   8
BRANCH   3  29
HETATM   29  C16 UNK     1      -1.738  -1.191   1.116  1.00  0.00     0.130 C 
HETATM   30  C19 UNK     1      -2.520  -0.117   1.848  1.00  0.00     0.027 C 
ENDBRANCH   3  29
BRANCH   4  31
HETATM   31  C22 UNK     1      -3.696  -1.777  -0.345  1.00  0.00     0.059 A 
HETATM   32  C24 UNK     1      -4.498  -0.971   0.457  1.00  0.00     0.032 A 
HETATM   33  C28 UNK     1      -5.109  -1.511   1.588  1.00  0.00     0.013 A 
HETATM   34  C27 UNK     1      -4.914  -2.854   1.912  1.00  0.00    -0.036 A 
HETATM   35  C29 UNK     1      -4.109  -3.657   1.104  1.00  0.00     0.013 A 
HETATM   36  C25 UNK     1      -3.498  -3.117  -0.028  1.00  0.00     0.032 A 
BRANCH  34  37
HETATM   37  C30 UNK     1      -5.551  -3.417   3.092  1.00  0.00     0.012 C 
HETATM   38  C31 UNK     1      -6.625  -2.889   3.727  1.00  0.00     0.012 C 
BRANCH  38  39
HETATM   39  C32 UNK     1      -7.282  -3.469   4.911  1.00  0.00    -0.036 A 
HETATM   40  C33 UNK     1      -6.588  -4.377   5.695  1.00  0.00     0.011 A 
HETATM   41  C35 UNK     1      -7.210  -4.927   6.816  1.00  0.00     0.001 A 
HETATM   42  C37 UNK     1      -8.517  -4.561   7.138  1.00  0.00     0.000 A 
HETATM   43  C36 UNK     1      -9.203  -3.646   6.338  1.00  0.00     0.001 A 
HETATM   44  C34 UNK     1      -8.581  -3.096   5.217  1.00  0.00     0.011 A 
ENDBRANCH  38  39
ENDBRANCH  34  37
ENDBRANCH   4  31
TORSDOF 9
