REMARK  3 active torsions:
REMARK  status: ('A' for Active; 'I' for Inactive)
REMARK    1  A    between atoms: C9_13  and  O2_2 
REMARK    2  A    between atoms: C12_16  and  O4_4 
REMARK    3  A    between atoms: C1_5  and  C2_6 
ROOT
HETATM    1  O1  UNK     1       0.557   0.023   1.408  1.00  0.00    -0.309 OA
HETATM    2  O3  UNK     1      -1.507   1.672  -1.693  1.00  0.00    -0.287 OA
HETATM    3  C1  UNK     1       0.196  -0.723   0.296  1.00  0.00     0.090 A 
HETATM    4  C3  UNK     1      -0.512   1.972   0.429  1.00  0.00     0.048 A 
HETATM    5  C4  UNK     1       0.196   1.345   1.453  1.00  0.00     0.090 A 
HETATM    6  C5  UNK     1      -0.479  -0.232  -0.756  1.00  0.00     0.093 A 
HETATM    7  C6  UNK     1      -0.889   1.186  -0.756  1.00  0.00     0.187 A 
HETATM    8  C10 UNK     1      -0.853   3.323   0.529  1.00  0.00     0.018 A 
HETATM    9  C11 UNK     1       0.568   2.068   2.587  1.00  0.00     0.038 A 
HETATM   10  C14 UNK     1      -0.479   4.043   1.664  1.00  0.00     0.001 A 
HETATM   11  C15 UNK     1       0.229   3.417   2.691  1.00  0.00     0.003 A 
ENDROOT
BRANCH   3  12
HETATM   12  C2  UNK     1       0.641  -2.130   0.346  1.00  0.00     0.001 A 
HETATM   13  C7  UNK     1       0.752  -2.787   1.574  1.00  0.00     0.054 A 
HETATM   14  C9  UNK     1       1.172  -4.117   1.622  1.00  0.00     0.102 A 
HETATM   15  C12 UNK     1       1.480  -4.793   0.441  1.00  0.00     0.099 A 
HETATM   16  C13 UNK     1       1.369  -4.140  -0.787  1.00  0.00     0.040 A 
HETATM   17  C8  UNK     1       0.950  -2.811  -0.834  1.00  0.00     0.017 A 
BRANCH  14  18
HETATM   18  O2  UNK     1       1.276  -4.744   2.826  1.00  0.00    -0.353 OA
HETATM   19  C16 UNK     1       0.119  -5.427   3.304  1.00  0.00     0.210 C 
ENDBRANCH  14  18
BRANCH  15  20
HETATM   20  O4  UNK     1       1.890  -6.092   0.475  1.00  0.00    -0.358 OA
HETATM   21  H9  UNK     1       2.057  -6.395  -0.434  1.00  0.00     0.217 HD
ENDBRANCH  15  20
ENDBRANCH   3  12
TORSDOF 3
