REMARK  4 active torsions:
REMARK  status: ('A' for Active; 'I' for Inactive)
REMARK    1  A    between atoms: C5_8  and  N1_3 
REMARK    2  A    between atoms: C10_13  and  C15_18 
REMARK    3  A    between atoms: C16_19  and  C17_20 
REMARK    4  A    between atoms: C17_20  and  C18_21 
ROOT
HETATM    1  N1  UNK     1      -3.138  -1.971   2.176  1.00  0.00    -0.346 N 
HETATM    2  C1  UNK     1      -1.948  -1.284   2.114  1.00  0.00     0.046 A 
HETATM    3  C2  UNK     1      -1.831  -0.777   0.820  1.00  0.00     0.004 A 
HETATM    4  C3  UNK     1      -3.792  -1.925   0.968  1.00  0.00     0.046 A 
HETATM    5  C4  UNK     1      -2.996  -1.183   0.095  1.00  0.00     0.003 A 
HETATM    6  C6  UNK     1      -0.684  -0.024   0.492  1.00  0.00     0.026 A 
HETATM    7  C7  UNK     1      -0.977  -1.075   3.100  1.00  0.00     0.031 A 
HETATM    8  C8  UNK     1      -5.019  -2.481   0.586  1.00  0.00     0.030 A 
HETATM    9  C9  UNK     1      -3.448  -0.986  -1.227  1.00  0.00     0.014 A 
HETATM   10  C10 UNK     1       0.296   0.194   1.467  1.00  0.00    -0.035 A 
HETATM   11  C11 UNK     1       0.149  -0.325   2.751  1.00  0.00     0.013 A 
HETATM   12  C13 UNK     1      -5.444  -2.272  -0.728  1.00  0.00     0.002 A 
HETATM   13  C14 UNK     1      -4.672  -1.536  -1.623  1.00  0.00     0.001 A 
ENDROOT
BRANCH  10  14
HETATM   14  C15 UNK     1       1.480   0.971   1.133  1.00  0.00     0.015 C 
HETATM   15  C16 UNK     1       1.934   1.199  -0.119  1.00  0.00     0.056 C 
BRANCH  15  16
HETATM   16  C17 UNK     1       3.173   1.997  -0.336  1.00  0.00     0.182 C 
HETATM   17  O1  UNK     1       3.822   2.474   0.588  1.00  0.00    -0.288 OA
BRANCH  16  18
HETATM   18  C18 UNK     1       3.636   2.182  -1.732  1.00  0.00     0.014 A 
HETATM   19  C19 UNK     1       2.703   2.205  -2.750  1.00  0.00     0.017 A 
HETATM   20  C21 UNK     1       3.140   2.378  -4.064  1.00  0.00     0.020 A 
HETATM   21  C23 UNK     1       4.501   2.525  -4.333  1.00  0.00     0.011 A 
HETATM   22 Br1  UNK     1       5.092   2.759  -6.112  1.00  0.00    -0.051 Br
HETATM   23  C22 UNK     1       5.425   2.499  -3.288  1.00  0.00     0.020 A 
HETATM   24  C20 UNK     1       4.988   2.326  -1.975  1.00  0.00     0.017 A 
ENDBRANCH  16  18
ENDBRANCH  15  16
ENDBRANCH  10  14
BRANCH   1  25
HETATM   25  C5  UNK     1      -3.636  -2.650   3.356  1.00  0.00     0.125 C 
HETATM   26  C12 UNK     1      -4.490  -1.743   4.224  1.00  0.00     0.027 C 
ENDBRANCH   1  25
TORSDOF 4
