REMARK  2 active torsions:
REMARK  status: ('A' for Active; 'I' for Inactive)
REMARK    1  A    between atoms: C1_9  and  N4_8 
REMARK    2  A    between atoms: C8_16  and  C9_17 
ROOT
HETATM    1  O1  UNK     1       3.270   2.380   0.448  1.00  0.00    -0.332 OA
HETATM    2  O2  UNK     1       1.771  -0.279   2.376  1.00  0.00    -0.289 OA
HETATM    3  O3  UNK     1       0.239   0.030  -2.548  1.00  0.00    -0.274 OA
HETATM    4  O4  UNK     1      -1.111  -1.091  -4.020  1.00  0.00    -0.260 OA
HETATM    5  C9  UNK     1       1.136   0.543   0.226  1.00  0.00     0.044 C 
HETATM    6  C10 UNK     1       1.660   1.222  -0.970  1.00  0.00     0.048 A 
HETATM    7  C11 UNK     1       2.034   0.443   1.417  1.00  0.00     0.196 C 
HETATM    8  C12 UNK     1       3.322   1.269   1.345  1.00  0.00     0.125 C 
HETATM    9  C13 UNK     1       2.705   2.137  -0.777  1.00  0.00     0.084 A 
HETATM   10  C14 UNK     1       1.218   1.021  -2.289  1.00  0.00     0.103 A 
HETATM   11  C15 UNK     1       3.589   1.876   2.729  1.00  0.00     0.055 C 
HETATM   12  C16 UNK     1       4.491   0.352   0.962  1.00  0.00     0.055 C 
HETATM   13  C17 UNK     1       3.216   2.889  -1.840  1.00  0.00     0.039 A 
HETATM   14  C18 UNK     1       1.736   1.748  -3.366  1.00  0.00    -0.001 A 
HETATM   15  C19 UNK     1       2.730   2.697  -3.132  1.00  0.00     0.017 A 
HETATM   16  C20 UNK     1       1.230   1.500  -4.706  1.00  0.00     0.020 A 
HETATM   17  C21 UNK     1      -0.257  -0.235  -3.819  1.00  0.00     0.288 A 
HETATM   18  C22 UNK     1       0.295   0.572  -4.919  1.00  0.00     0.083 A 
ENDROOT
BRANCH   5  19
HETATM   19  C8  UNK     1      -0.124   0.109   0.383  1.00  0.00     0.100 C 
HETATM   20  N4  UNK     1      -0.655  -0.518   1.456  1.00  0.00    -0.384 N 
HETATM   21  H13 UNK     1      -0.053  -0.699   2.251  1.00  0.00     0.159 HD
BRANCH  20  22
HETATM   22  C1  UNK     1      -2.024  -0.980   1.522  1.00  0.00     0.109 C 
HETATM   23  C2  UNK     1      -2.997   0.203   1.349  1.00  0.00     0.311 C 
HETATM   24  N1  UNK     1      -4.389  -0.293   1.423  1.00  0.00     0.147 N 
HETATM   25  C5  UNK     1      -4.594  -0.953   2.735  1.00  0.00     0.547 C 
HETATM   26  C6  UNK     1      -4.596  -1.302   0.357  1.00  0.00     0.547 C 
HETATM   27  N2  UNK     1      -3.694  -2.114   2.937  1.00  0.00     0.147 N 
HETATM   28  C3  UNK     1      -2.292  -1.648   2.887  1.00  0.00     0.311 C 
HETATM   29  C7  UNK     1      -3.920  -3.076   1.832  1.00  0.00     0.547 C 
HETATM   30  N3  UNK     1      -3.697  -2.473   0.496  1.00  0.00     0.147 N 
HETATM   31  C4  UNK     1      -2.295  -2.012   0.407  1.00  0.00     0.311 C 
ENDBRANCH  20  22
ENDBRANCH   5  19
TORSDOF 2
