REMARK  2 active torsions:
REMARK  status: ('A' for Active; 'I' for Inactive)
REMARK    1  A    between atoms: C11_16  and  O2_3 
REMARK    2  A    between atoms: C6_11  and  O2_3 
ROOT
HETATM    1  I1  UNK     1      -0.428   0.837  -3.093  1.00  0.00    -0.039 I 
HETATM    2  O1  UNK     1      -1.989  -0.654  -0.780  1.00  0.00    -0.273 OA
HETATM    3  O3  UNK     1      -3.872  -1.928  -0.542  1.00  0.00    -0.260 OA
HETATM    4  C1  UNK     1      -0.623  -0.162   1.185  1.00  0.00     0.005 A 
HETATM    5  C2  UNK     1      -0.867  -0.043  -0.184  1.00  0.00     0.109 A 
HETATM    6  C3  UNK     1      -1.563  -0.940   2.002  1.00  0.00    -0.043 A 
HETATM    7  C4  UNK     1       0.515   0.475   1.700  1.00  0.00     0.017 A 
HETATM    8  C5  UNK     1      -0.024   0.678  -1.032  1.00  0.00     0.075 A 
HETATM    9  C6  UNK     1       1.100   1.302  -0.502  1.00  0.00     0.098 A 
HETATM   10  C7  UNK     1       1.369   1.201   0.862  1.00  0.00     0.040 A 
HETATM   11  C8  UNK     1      -2.622  -1.510   1.409  1.00  0.00     0.090 A 
HETATM   12  C9  UNK     1      -1.328  -1.087   3.477  1.00  0.00     0.049 C 
HETATM   13  C10 UNK     1      -2.893  -1.394  -0.034  1.00  0.00     0.288 A 
ENDROOT
BRANCH   9  14
HETATM   14  O2  UNK     1       1.964   2.022  -1.272  1.00  0.00    -0.278 OA
BRANCH  14  15
HETATM   15  C11 UNK     1       3.017   1.266  -1.810  1.00  0.00     0.260 C 
HETATM   16  O4  UNK     1       3.199   0.068  -1.638  1.00  0.00    -0.265 OA
HETATM   17  C12 UNK     1       3.908   2.145  -2.637  1.00  0.00     0.126 C 
ENDBRANCH  14  15
ENDBRANCH   9  14
TORSDOF 2
