REMARK  2 active torsions:
REMARK  status: ('A' for Active; 'I' for Inactive)
REMARK    1  A    between atoms: C6_10  and  O2_3 
REMARK    2  A    between atoms: C3_7  and  C8_12 
ROOT
HETATM    1  O1  UNK     1      -0.369   0.658   0.665  1.00  0.00    -0.306 OA
HETATM    2  O3  UNK     1      -2.170  -2.219  -1.589  1.00  0.00    -0.284 OA
HETATM    3  C1  UNK     1      -2.084  -1.048   0.455  1.00  0.00     0.051 A 
HETATM    4  C2  UNK     1      -1.424  -0.054   1.175  1.00  0.00     0.091 A 
HETATM    5  C3  UNK     1       0.052   0.382  -0.626  1.00  0.00     0.123 A 
HETATM    6  C4  UNK     1      -1.633  -1.354  -0.911  1.00  0.00     0.220 A 
HETATM    7  C5  UNK     1      -1.831   0.253   2.474  1.00  0.00     0.045 A 
HETATM    8  C6  UNK     1      -0.491  -0.557  -1.422  1.00  0.00     0.152 A 
HETATM    9  C7  UNK     1      -2.898  -0.437   3.048  1.00  0.00    -0.059 A 
HETATM   10  C9  UNK     1      -3.153  -1.741   1.027  1.00  0.00     0.019 A 
HETATM   11  C10 UNK     1      -3.558  -1.432   2.326  1.00  0.00     0.008 A 
HETATM   12  C13 UNK     1      -3.335  -0.111   4.437  1.00  0.00     0.048 C 
ENDROOT
BRANCH   5  13
HETATM   13  C8  UNK     1       1.192   1.216  -1.049  1.00  0.00     0.001 A 
HETATM   14  C11 UNK     1       1.077   2.039  -2.169  1.00  0.00     0.017 A 
HETATM   15  C14 UNK     1       2.155   2.828  -2.568  1.00  0.00     0.043 A 
HETATM   16  C16 UNK     1       3.349   2.794  -1.848  1.00  0.00     0.116 A 
HETATM   17  C15 UNK     1       3.464   1.971  -0.727  1.00  0.00     0.043 A 
HETATM   18  F1  UNK     1       4.384   3.553  -2.231  1.00  0.00    -0.206 F 
HETATM   19  C12 UNK     1       2.386   1.182  -0.328  1.00  0.00     0.017 A 
ENDBRANCH   5  13
BRANCH   8  20
HETATM   20  O2  UNK     1      -0.027  -0.829  -2.690  1.00  0.00    -0.355 OA
HETATM   21  H11 UNK     1      -0.576  -1.545  -3.055  1.00  0.00     0.218 HD
ENDBRANCH   8  20
TORSDOF 2
