REMARK  2 active torsions:
REMARK  status: ('A' for Active; 'I' for Inactive)
REMARK    1  A    between atoms: C10_13  and  O2_2 
REMARK    2  A    between atoms: C3_6  and  O2_2 
ROOT
HETATM    1  O1  UNK     1      -1.423  -0.078  -2.028  1.00  0.00    -0.275 OA
HETATM    2  O3  UNK     1      -3.376  -1.201  -1.631  1.00  0.00    -0.260 OA
HETATM    3  C1  UNK     1       0.247   0.110  -0.249  1.00  0.00     0.032 A 
HETATM    4  C2  UNK     1      -0.167   0.365  -1.559  1.00  0.00     0.092 A 
HETATM    5  C3  UNK     1      -0.675  -0.624   0.625  1.00  0.00     0.087 A 
HETATM    6  C4  UNK     1       1.518   0.565   0.126  1.00  0.00     0.024 A 
HETATM    7  C5  UNK     1       2.328   1.259  -0.782  1.00  0.00    -0.061 A 
HETATM    8  C6  UNK     1       0.628   1.056  -2.476  1.00  0.00     0.039 A 
HETATM    9  C7  UNK     1       1.883   1.506  -2.080  1.00  0.00     0.009 A 
HETATM   10  C8  UNK     1      -1.853  -1.048   0.159  1.00  0.00     0.120 A 
HETATM   11  C9  UNK     1       3.676   1.737  -0.358  1.00  0.00     0.048 C 
HETATM   12  C11 UNK     1      -2.293  -0.797  -1.223  1.00  0.00     0.290 A 
ENDROOT
BRANCH   5  13
HETATM   13  O2  UNK     1      -0.333  -0.874   1.940  1.00  0.00    -0.350 OA
BRANCH  13  14
HETATM   14  C10 UNK     1      -0.772   0.176   2.779  1.00  0.00     0.171 C 
HETATM   15  C12 UNK     1      -0.391  -0.145   4.209  1.00  0.00     0.034 C 
ENDBRANCH  13  14
ENDBRANCH   5  13
TORSDOF 2
