REMARK  6 active torsions:
REMARK  status: ('A' for Active; 'I' for Inactive)
REMARK    1  A    between atoms: C11_17  and  O3_3 
REMARK    2  A    between atoms: C18_24  and  O3_3 
REMARK    3  A    between atoms: C1_7  and  C10_16 
REMARK    4  A    between atoms: C11_17  and  C6_12 
REMARK    5  A    between atoms: C18_24  and  C20_26 
REMARK    6  A    between atoms: C20_26  and  C23_29 
ROOT
HETATM    1  O1  UNK     1       1.770   0.371  -3.835  1.00  0.00    -0.293 OA
HETATM    2  N1  UNK     1       2.993   2.545   0.193  1.00  0.00    -0.362 N 
HETATM    3  C1  UNK     1       1.795   0.242  -0.953  1.00  0.00     0.104 C 
HETATM    4  C2  UNK     1       2.272   1.436  -1.773  1.00  0.00     0.024 C 
HETATM    5  C3  UNK     1       2.815   2.519  -1.177  1.00  0.00     0.020 C 
HETATM    6  C4  UNK     1       3.257   3.745  -1.933  1.00  0.00     0.058 C 
HETATM    7  C5  UNK     1       2.593   3.848  -3.300  1.00  0.00     0.014 C 
HETATM    8  C6  UNK     1       2.186   0.345   0.523  1.00  0.00     0.052 C 
HETATM    9  C7  UNK     1       2.729   2.545  -4.067  1.00  0.00     0.084 C 
HETATM   10  C8  UNK     1       2.196   1.376  -3.266  1.00  0.00     0.158 C 
HETATM   11  C9  UNK     1       2.733   1.473   1.032  1.00  0.00     0.018 C 
HETATM   12  C13 UNK     1       3.105   1.692   2.473  1.00  0.00     0.069 C 
HETATM   13  H8  UNK     1       3.407   3.376   0.601  1.00  0.00     0.165 HD
ENDROOT
BRANCH   3  14
HETATM   14  C10 UNK     1       0.304   0.083  -1.085  1.00  0.00     0.029 A 
HETATM   15  C12 UNK     1      -0.224  -1.164  -1.696  1.00  0.00     0.194 A 
HETATM   16  O5  UNK     1       0.512  -2.058  -2.090  1.00  0.00    -0.287 OA
HETATM   17  C15 UNK     1      -1.691  -1.268  -1.803  1.00  0.00     0.048 A 
HETATM   18  C16 UNK     1      -2.482  -0.217  -1.337  1.00  0.00     0.089 A 
HETATM   19  C17 UNK     1      -2.286  -2.401  -2.363  1.00  0.00     0.018 A 
HETATM   20  O2  UNK     1      -1.951   0.919  -0.778  1.00  0.00    -0.321 OA
HETATM   21  C19 UNK     1      -3.872  -0.294  -1.429  1.00  0.00     0.038 A 
HETATM   22  C14 UNK     1      -0.584   1.002  -0.685  1.00  0.00     0.154 A 
HETATM   23  C22 UNK     1      -4.468  -1.425  -1.987  1.00  0.00     0.003 A 
HETATM   24  C21 UNK     1      -3.677  -2.476  -2.453  1.00  0.00     0.001 A 
ENDBRANCH   3  14
BRANCH   8  25
HETATM   25  C11 UNK     1       1.984  -0.863   1.341  1.00  0.00     0.292 C 
HETATM   26  O4  UNK     1       2.818  -1.742   1.452  1.00  0.00    -0.259 OA
BRANCH  25  27
HETATM   27  O3  UNK     1       0.755  -0.794   1.906  1.00  0.00    -0.317 OA
BRANCH  27  28
HETATM   28  C18 UNK     1       0.408  -1.905   2.739  1.00  0.00     0.183 C 
BRANCH  28  29
HETATM   29  C20 UNK     1      -0.540  -1.446   3.842  1.00  0.00     0.065 C 
BRANCH  29  30
HETATM   30  C23 UNK     1      -1.801  -0.825   3.292  1.00  0.00    -0.056 A 
HETATM   31  C24 UNK     1      -1.837   0.540   3.051  1.00  0.00     0.007 A 
HETATM   32  C26 UNK     1      -3.002   1.115   2.543  1.00  0.00     0.001 A 
HETATM   33  C28 UNK     1      -4.116   0.318   2.282  1.00  0.00     0.000 A 
HETATM   34  C27 UNK     1      -4.066  -1.054   2.530  1.00  0.00     0.001 A 
HETATM   35  C25 UNK     1      -2.901  -1.629   3.038  1.00  0.00     0.007 A 
ENDBRANCH  29  30
ENDBRANCH  28  29
ENDBRANCH  27  28
ENDBRANCH  25  27
ENDBRANCH   8  25
TORSDOF 6
