REMARK  5 active torsions:
REMARK  status: ('A' for Active; 'I' for Inactive)
REMARK    1  A    between atoms: C13_19  and  O2_2 
REMARK    2  A    between atoms: C5_11  and  O2_2 
REMARK    3  A    between atoms: C7_13  and  N1_6 
REMARK       I    between atoms: C8_14  and  N1_6 
REMARK    4  A    between atoms: C3_9  and  C8_14 
REMARK    5  A    between atoms: C12_18  and  C7_13 
ROOT
HETATM    1  O1  UNK     1       0.897   0.323  -1.613  1.00  0.00    -0.271 OA
HETATM    2  O5  UNK     1      -0.991  -0.896  -1.200  1.00  0.00    -0.259 OA
HETATM    3  C1  UNK     1       2.146   1.268   0.247  1.00  0.00     0.002 A 
HETATM    4  C2  UNK     1       1.984   1.072  -1.121  1.00  0.00     0.123 A 
HETATM    5  C3  UNK     1       0.143  -0.023   0.688  1.00  0.00     0.108 A 
HETATM    6  C4  UNK     1       1.174   0.688   1.161  1.00  0.00     0.037 A 
HETATM    7  C5  UNK     1       2.879   1.600  -2.049  1.00  0.00     0.103 A 
HETATM    8  C6  UNK     1       3.237   2.016   0.696  1.00  0.00     0.014 A 
HETATM    9  C9  UNK     1      -0.048  -0.245  -0.763  1.00  0.00     0.304 A 
HETATM   10  C10 UNK     1       3.964   2.345  -1.593  1.00  0.00     0.040 A 
HETATM   11  C11 UNK     1       4.143   2.553  -0.223  1.00  0.00     0.004 A 
ENDROOT
BRANCH   5  12
HETATM   12  C8  UNK     1      -0.783  -0.567   1.688  1.00  0.00     0.258 C 
HETATM   13  O4  UNK     1      -0.969   0.012   2.757  1.00  0.00    -0.267 OA
HETATM   14  N1  UNK     1      -1.376  -1.749   1.285  1.00  0.00    -0.351 N 
HETATM   15  H7  UNK     1      -1.144  -2.157   0.385  1.00  0.00     0.163 HD
BRANCH  14  16
HETATM   16  C7  UNK     1      -2.323  -2.474   2.102  1.00  0.00     0.187 C 
BRANCH  16  17
HETATM   17  C12 UNK     1      -3.740  -2.070   1.812  1.00  0.00     0.070 A 
HETATM   18  O3  UNK     1      -4.139  -2.263   0.543  1.00  0.00    -0.325 OA
HETATM   19  C17 UNK     1      -5.429  -1.838   0.502  1.00  0.00     0.142 A 
HETATM   20  C15 UNK     1      -5.828  -1.384   1.738  1.00  0.00     0.027 A 
HETATM   21  C14 UNK     1      -4.711  -1.541   2.593  1.00  0.00     0.036 A 
ENDBRANCH  16  17
ENDBRANCH  14  16
ENDBRANCH   5  12
BRANCH   7  22
HETATM   22  O2  UNK     1       2.708   1.401  -3.383  1.00  0.00    -0.349 OA
BRANCH  22  23
HETATM   23  C13 UNK     1       3.187   2.421  -4.260  1.00  0.00     0.171 C 
HETATM   24  C16 UNK     1       2.338   2.432  -5.513  1.00  0.00     0.034 C 
ENDBRANCH  22  23
ENDBRANCH   7  22
TORSDOF 5
