REMARK  4 active torsions:
REMARK  status: ('A' for Active; 'I' for Inactive)
REMARK    1  A    between atoms: C14_20  and  O3_3 
REMARK    2  A    between atoms: C20_26  and  O3_3 
REMARK    3  A    between atoms: C12_18  and  C6_12 
REMARK    4  A    between atoms: C10_16  and  C14_20 
ROOT
HETATM    1  O1  UNK     1       2.333  -1.380  -2.274  1.00  0.00    -0.293 OA
HETATM    2  N1  UNK     1       1.846   2.565   0.297  1.00  0.00    -0.362 N 
HETATM    3  C1  UNK     1       2.458   2.090  -3.404  1.00  0.00    -0.036 C 
HETATM    4  C2  UNK     1       2.640   2.748  -2.020  1.00  0.00     0.067 C 
HETATM    5  C3  UNK     1       2.985   0.649  -3.350  1.00  0.00     0.092 C 
HETATM    6  C4  UNK     1       2.142   1.900  -0.878  1.00  0.00     0.021 C 
HETATM    7  C5  UNK     1       1.988   0.563  -0.960  1.00  0.00     0.024 C 
HETATM    8  C6  UNK     1       1.437  -0.242   0.213  1.00  0.00     0.104 C 
HETATM    9  C7  UNK     1       2.404  -0.154  -2.204  1.00  0.00     0.159 C 
HETATM   10  C8  UNK     1       3.261   2.885  -4.450  1.00  0.00     0.015 C 
HETATM   11  C9  UNK     1       0.974   2.106  -3.827  1.00  0.00     0.015 C 
HETATM   12  C10 UNK     1       1.290   0.594   1.485  1.00  0.00     0.052 C 
HETATM   13  C11 UNK     1       1.470   1.935   1.473  1.00  0.00     0.018 C 
HETATM   14  C13 UNK     1       1.300   2.847   2.658  1.00  0.00     0.069 C 
HETATM   15  H12 UNK     1       1.979   3.569   0.321  1.00  0.00     0.165 HD
ENDROOT
BRANCH   8  16
HETATM   16  C12 UNK     1       0.116  -0.864  -0.154  1.00  0.00     0.029 A 
HETATM   17  C15 UNK     1      -1.020   0.031  -0.492  1.00  0.00     0.194 A 
HETATM   18  O5  UNK     1      -0.913   1.250  -0.481  1.00  0.00    -0.287 OA
HETATM   19  C17 UNK     1      -2.290  -0.631  -0.843  1.00  0.00     0.049 A 
HETATM   20  C18 UNK     1      -2.354  -2.024  -0.838  1.00  0.00     0.089 A 
HETATM   21  C19 UNK     1      -3.418   0.124  -1.177  1.00  0.00     0.025 A 
HETATM   22  O2  UNK     1      -1.278  -2.814  -0.519  1.00  0.00    -0.321 OA
HETATM   23  C21 UNK     1      -3.545  -2.671  -1.167  1.00  0.00     0.039 A 
HETATM   24  C16 UNK     1      -0.102  -2.185  -0.194  1.00  0.00     0.154 A 
HETATM   25  C23 UNK     1      -4.673  -1.920  -1.501  1.00  0.00     0.009 A 
HETATM   26  C22 UNK     1      -4.609  -0.526  -1.506  1.00  0.00    -0.061 A 
HETATM   27  C26 UNK     1      -5.817   0.272  -1.864  1.00  0.00     0.048 C 
ENDBRANCH   8  16
BRANCH  12  28
HETATM   28  C14 UNK     1       1.000  -0.139   2.728  1.00  0.00     0.292 C 
HETATM   29  O4  UNK     1       1.865  -0.605   3.446  1.00  0.00    -0.259 OA
BRANCH  28  30
HETATM   30  O3  UNK     1      -0.344  -0.184   2.894  1.00  0.00    -0.313 OA
BRANCH  30  31
HETATM   31  C20 UNK     1      -0.787  -0.869   4.070  1.00  0.00     0.124 C 
HETATM   32  C24 UNK     1      -0.189  -0.197   5.297  1.00  0.00     0.040 C 
HETATM   33  C25 UNK     1      -2.307  -0.868   4.108  1.00  0.00     0.040 C 
ENDBRANCH  30  31
ENDBRANCH  28  30
ENDBRANCH  12  28
TORSDOF 4
