REMARK  2 active torsions:
REMARK  status: ('A' for Active; 'I' for Inactive)
REMARK    1  A    between atoms: C17_22  and  O2_2 
REMARK    2  A    between atoms: C3_8  and  C6_11 
ROOT
HETATM    1  O1  UNK     1       1.006   1.241  -2.555  1.00  0.00    -0.274 OA
HETATM    2  O3  UNK     1      -1.140   0.485  -2.380  1.00  0.00    -0.259 OA
HETATM    3  C6  UNK     1       0.186   0.392  -0.405  1.00  0.00     0.086 A 
HETATM    4  C9  UNK     1       2.460   1.227  -0.609  1.00  0.00    -0.001 A 
HETATM    5  C10 UNK     1       1.374   0.647   0.164  1.00  0.00     0.035 A 
HETATM    6  C11 UNK     1       2.251   1.509  -1.954  1.00  0.00     0.092 A 
HETATM    7  C12 UNK     1      -0.058   0.696  -1.841  1.00  0.00     0.302 A 
HETATM    8  C15 UNK     1       3.708   1.507  -0.048  1.00  0.00     0.017 A 
HETATM    9  C16 UNK     1       3.250   2.061  -2.753  1.00  0.00     0.075 A 
HETATM   10  C17 UNK     1       4.492   2.339  -2.186  1.00  0.00     0.070 A 
HETATM   11  C18 UNK     1       4.721   2.063  -0.836  1.00  0.00     0.038 A 
ENDROOT
BRANCH   3  12
HETATM   12  C3  UNK     1      -0.858  -0.186   0.384  1.00  0.00     0.145 A 
HETATM   13  N1  UNK     1      -1.761  -0.986  -0.259  1.00  0.00    -0.338 N 
HETATM   14  C1  UNK     1      -2.665  -1.430   0.672  1.00  0.00     0.063 A 
HETATM   15  H1  UNK     1      -1.769  -1.227  -1.242  1.00  0.00     0.167 HD
HETATM   16  C2  UNK     1      -2.242  -0.853   1.866  1.00  0.00     0.086 A 
HETATM   17  C7  UNK     1      -3.781  -2.261   0.574  1.00  0.00     0.039 A 
HETATM   18  N2  UNK     1      -1.119  -0.084   1.668  1.00  0.00    -0.228 NA
HETATM   19  C8  UNK     1      -2.965  -1.110   3.044  1.00  0.00     0.041 A 
HETATM   20  C5  UNK     1      -4.089  -1.942   2.970  1.00  0.00    -0.054 A 
HETATM   21  C14 UNK     1      -4.857  -2.214   4.224  1.00  0.00     0.049 C 
HETATM   22  C4  UNK     1      -4.488  -2.506   1.756  1.00  0.00    -0.054 A 
HETATM   23  C13 UNK     1      -5.690  -3.394   1.691  1.00  0.00     0.049 C 
ENDBRANCH   3  12
BRANCH  10  24
HETATM   24  O2  UNK     1       5.483   2.878  -2.947  1.00  0.00    -0.356 OA
HETATM   25  C19 UNK     1       5.182   3.135  -4.317  1.00  0.00     0.210 C 
ENDBRANCH  10  24
TORSDOF 2
