REMARK  7 active torsions:
REMARK  status: ('A' for Active; 'I' for Inactive)
REMARK    1  A    between atoms: C1_9  and  S1_1 
REMARK    2  A    between atoms: N2_6  and  S1_1 
REMARK    3  A    between atoms: C2_10  and  N1_5 
REMARK       I    between atoms: C9_17  and  N1_5 
REMARK    4  A    between atoms: C14_22  and  N2_6 
REMARK    5  A    between atoms: C5_13  and  C8_16 
REMARK    6  A    between atoms: C5_13  and  C9_17 
REMARK    7  A    between atoms: C10_18  and  C11_19 
ROOT
HETATM    1  C1  UNK     1       3.097   2.361  -0.430  1.00  0.00     0.080 A 
HETATM    2  C2  UNK     1       0.863   0.937   0.375  1.00  0.00     0.035 A 
HETATM    3  C3  UNK     1       3.214   1.374   0.550  1.00  0.00     0.027 A 
HETATM    4  C4  UNK     1       1.854   2.630  -1.004  1.00  0.00     0.027 A 
HETATM    5  C6  UNK     1       2.088   0.657   0.955  1.00  0.00     0.031 A 
HETATM    6  C7  UNK     1       0.729   1.912  -0.598  1.00  0.00     0.031 A 
ENDROOT
BRANCH   2   7
HETATM    7  N1  UNK     1      -0.280   0.208   0.787  1.00  0.00    -0.323 N 
HETATM    8  C9  UNK     1      -1.583   0.347   0.323  1.00  0.00     0.257 C 
HETATM    9  O3  UNK     1      -1.978   1.138  -0.529  1.00  0.00    -0.267 OA
HETATM   10  H5  UNK     1      -0.082  -0.483   1.504  1.00  0.00     0.169 HD
BRANCH   8  11
HETATM   11  C5  UNK     1      -2.552  -0.602   0.992  1.00  0.00     0.043 C 
HETATM   12  C10 UNK     1      -3.841  -0.547   0.567  1.00  0.00     0.029 C 
BRANCH  12  13
HETATM   13  C11 UNK     1      -4.941  -1.384   1.022  1.00  0.00    -0.035 A 
HETATM   14  C15 UNK     1      -5.227  -2.579   0.362  1.00  0.00     0.011 A 
HETATM   15  C20 UNK     1      -6.281  -3.381   0.799  1.00  0.00     0.001 A 
HETATM   16  C23 UNK     1      -7.049  -2.988   1.895  1.00  0.00     0.000 A 
HETATM   17  C21 UNK     1      -6.763  -1.793   2.554  1.00  0.00     0.001 A 
HETATM   18  C16 UNK     1      -5.709  -0.991   2.118  1.00  0.00     0.011 A 
ENDBRANCH  12  13
BRANCH  11  19
HETATM   19  C8  UNK     1      -2.108  -1.559   2.026  1.00  0.00    -0.021 A 
HETATM   20  C12 UNK     1      -1.657  -2.809   1.640  1.00  0.00     0.012 A 
HETATM   21  C17 UNK     1      -1.239  -3.713   2.617  1.00  0.00     0.001 A 
HETATM   22  C19 UNK     1      -1.277  -3.352   3.963  1.00  0.00     0.000 A 
HETATM   23  C18 UNK     1      -1.735  -2.087   4.334  1.00  0.00     0.001 A 
HETATM   24  C13 UNK     1      -2.154  -1.184   3.357  1.00  0.00     0.012 A 
ENDBRANCH  11  19
ENDBRANCH   8  11
ENDBRANCH   2   7
BRANCH   1  25
HETATM   25  S1  UNK     1       4.506   3.258  -0.936  1.00  0.00     0.276 S 
HETATM   26  O1  UNK     1       5.476   3.213   0.151  1.00  0.00    -0.200 OA
HETATM   27  O2  UNK     1       4.075   4.557  -1.440  1.00  0.00    -0.200 OA
BRANCH  25  28
HETATM   28  N2  UNK     1       5.116   2.308  -2.238  1.00  0.00    -0.109 N 
HETATM   29  H6  UNK     1       5.734   1.535  -1.958  1.00  0.00     0.198 HD
BRANCH  28  30
HETATM   30  C14 UNK     1       4.210   1.946  -3.294  1.00  0.00     0.736 A 
HETATM   31  N3  UNK     1       3.909   0.642  -3.391  1.00  0.00    -0.067 NA
HETATM   32  C22 UNK     1       3.058   0.337  -4.392  1.00  0.00     0.051 A 
HETATM   33  C26 UNK     1       2.689  -1.101  -4.544  1.00  0.00     0.071 C 
HETATM   34  C24 UNK     1       2.527   1.271  -5.258  1.00  0.00     0.047 A 
HETATM   35  C25 UNK     1       2.922   2.575  -5.045  1.00  0.00     0.138 A 
HETATM   36  N4  UNK     1       3.769   2.951  -4.064  1.00  0.00    -0.074 NA
ENDBRANCH  28  30
ENDBRANCH  25  28
ENDBRANCH   1  25
TORSDOF 7
