REMARK  4 active torsions:
REMARK  status: ('A' for Active; 'I' for Inactive)
REMARK    1  A    between atoms: C4_11  and  N1_5 
REMARK    2  A    between atoms: C2_9  and  N2_6 
REMARK       I    between atoms: C7_14  and  N2_6 
REMARK    3  A    between atoms: C1_8  and  C2_9 
REMARK    4  A    between atoms: C7_14  and  C8_15 
ROOT
HETATM    1  O2  UNK     1      -0.583  -1.919  -1.859  1.00  0.00    -0.267 OA
HETATM    2  N2  UNK     1      -1.863  -0.172  -1.002  1.00  0.00    -0.348 N 
HETATM    3  C7  UNK     1      -0.709  -0.724  -1.565  1.00  0.00     0.259 C 
HETATM    4  C9  UNK     1      -1.966   1.247  -0.671  1.00  0.00     0.153 C 
ENDROOT
BRANCH   3   5
HETATM    5  C8  UNK     1       0.427   0.174  -1.807  1.00  0.00     0.108 A 
HETATM    6  C12 UNK     1       1.307   0.298  -0.807  1.00  0.00     0.037 A 
HETATM    7  C11 UNK     1       2.465   1.166  -0.952  1.00  0.00     0.000 A 
HETATM    8  C13 UNK     1       2.640   1.860  -2.145  1.00  0.00     0.089 A 
HETATM    9  C15 UNK     1       3.408   1.326   0.066  1.00  0.00     0.033 A 
HETATM   10  O1  UNK     1       1.711   1.725  -3.195  1.00  0.00    -0.274 OA
HETATM   11  C16 UNK     1       3.728   2.707  -2.348  1.00  0.00     0.039 A 
HETATM   12  C14 UNK     1       0.593   0.903  -3.085  1.00  0.00     0.304 A 
HETATM   13  O3  UNK     1      -0.211   0.791  -4.004  1.00  0.00    -0.259 OA
HETATM   14  C18 UNK     1       4.664   2.861  -1.328  1.00  0.00     0.022 A 
HETATM   15  C17 UNK     1       4.505   2.172  -0.123  1.00  0.00     0.011 A 
HETATM   16 Br1  UNK     1       5.779   2.385   1.257  1.00  0.00    -0.051 Br
ENDBRANCH   3   5
BRANCH   2  17
HETATM   17  C2  UNK     1      -3.043  -0.975  -0.706  1.00  0.00     0.167 C 
BRANCH  17  18
HETATM   18  C1  UNK     1      -2.980  -1.537   0.688  1.00  0.00     0.003 A 
HETATM   19  C3  UNK     1      -3.456  -0.961   1.818  1.00  0.00     0.036 A 
HETATM   20  N1  UNK     1      -3.166  -1.851   2.811  1.00  0.00    -0.274 N 
HETATM   21  C6  UNK     1      -4.145   0.319   2.067  1.00  0.00     0.070 C 
HETATM   22  N3  UNK     1      -2.536  -2.957   2.381  1.00  0.00    -0.184 NA
HETATM   23  C5  UNK     1      -2.425  -2.752   1.066  1.00  0.00     0.149 A 
BRANCH  20  24
HETATM   24  C4  UNK     1      -3.467  -1.712   4.216  1.00  0.00     0.146 C 
HETATM   25  C10 UNK     1      -2.347  -1.027   4.979  1.00  0.00     0.028 C 
ENDBRANCH  20  24
ENDBRANCH  17  18
ENDBRANCH   2  17
TORSDOF 4
