REMARK  3 active torsions:
REMARK  status: ('A' for Active; 'I' for Inactive)
REMARK    1  A    between atoms: C5_11  and  N1_5 
REMARK       I    between atoms: C8_14  and  N2_6 
REMARK    2  A    between atoms: C5_11  and  C6_12 
REMARK    3  A    between atoms: C12_18  and  C8_14 
ROOT
HETATM    1  C5  UNK     1      -0.043   1.749  -0.547  1.00  0.00     0.312 C 
ENDROOT
BRANCH   1   2
HETATM    2  N1  UNK     1      -0.544   0.658   0.288  1.00  0.00     0.095 N 
HETATM    3  C1  UNK     1      -0.499  -0.616  -0.445  1.00  0.00     0.292 C 
HETATM    4  C3  UNK     1      -0.981  -1.763   0.442  1.00  0.00     0.156 C 
HETATM    5  N2  UNK     1      -2.308  -1.489   0.991  1.00  0.00    -0.343 N 
HETATM    6  C4  UNK     1      -2.440  -0.179   1.641  1.00  0.00     0.156 C 
HETATM    7  C8  UNK     1      -3.307  -2.473   0.918  1.00  0.00     0.277 C 
HETATM    8  C2  UNK     1      -1.914   0.940   0.740  1.00  0.00     0.292 C 
HETATM    9  O2  UNK     1      -3.373  -3.309   0.017  1.00  0.00    -0.265 OA
BRANCH   7  10
HETATM   10  C12 UNK     1      -4.312  -2.487   1.976  1.00  0.00     0.142 A 
HETATM   11  O3  UNK     1      -5.556  -2.935   1.665  1.00  0.00    -0.317 OA
HETATM   12  C21 UNK     1      -6.295  -2.850   2.802  1.00  0.00     0.143 A 
HETATM   13  C20 UNK     1      -5.536  -2.353   3.836  1.00  0.00     0.027 A 
HETATM   14  C18 UNK     1      -4.248  -2.117   3.299  1.00  0.00     0.045 A 
ENDBRANCH   7  10
ENDBRANCH   1   2
BRANCH   1  15
HETATM   15  C6  UNK     1       1.441   1.670  -0.490  1.00  0.00    -0.011 A 
HETATM   16  C7  UNK     1       2.296   1.790  -1.679  1.00  0.00     0.012 A 
HETATM   17  C10 UNK     1       1.804   1.993  -2.975  1.00  0.00    -0.048 A 
HETATM   18  C11 UNK     1       3.679   1.698  -1.519  1.00  0.00     0.091 A 
HETATM   19  C13 UNK     1       2.677   2.099  -4.063  1.00  0.00     0.014 A 
HETATM   20  C17 UNK     1       0.355   2.118  -3.326  1.00  0.00     0.049 C 
HETATM   21  C15 UNK     1       4.054   2.002  -3.874  1.00  0.00    -0.059 A 
HETATM   22  C14 UNK     1       4.563   1.801  -2.595  1.00  0.00     0.045 A 
HETATM   23  C19 UNK     1       4.980   2.117  -5.037  1.00  0.00     0.048 C 
HETATM   24  O1  UNK     1       4.254   1.495  -0.248  1.00  0.00    -0.275 OA
HETATM   25  C16 UNK     1       3.472   1.378   0.891  1.00  0.00     0.288 A 
HETATM   26  O4  UNK     1       3.962   1.201   2.001  1.00  0.00    -0.260 OA
HETATM   27  C9  UNK     1       2.015   1.477   0.706  1.00  0.00     0.092 A 
ENDBRANCH   1  15
TORSDOF 3
