REMARK  4 active torsions:
REMARK  status: ('A' for Active; 'I' for Inactive)
REMARK    1  A    between atoms: C1_8  and  O1_2 
REMARK    2  A    between atoms: C16_23  and  O1_2 
REMARK    3  A    between atoms: C15_22  and  C6_13 
REMARK    4  A    between atoms: C16_23  and  C9_16 
ROOT
HETATM    1  O2  UNK     1      -2.129  -2.487  -1.658  1.00  0.00    -0.293 OA
HETATM    2  N1  UNK     1      -2.826  -0.588   2.625  1.00  0.00    -0.362 N 
HETATM    3  C6  UNK     1      -0.941  -1.080   0.563  1.00  0.00     0.104 C 
HETATM    4  C7  UNK     1      -2.420  -1.434   0.450  1.00  0.00     0.024 C 
HETATM    5  C8  UNK     1      -3.282  -1.156   1.451  1.00  0.00     0.020 C 
HETATM    6  C9  UNK     1      -0.554  -0.586   1.960  1.00  0.00     0.052 C 
HETATM    7  C10 UNK     1      -4.759  -1.437   1.373  1.00  0.00     0.058 C 
HETATM    8  C11 UNK     1      -5.242  -1.575  -0.065  1.00  0.00     0.014 C 
HETATM    9  C12 UNK     1      -1.490  -0.349   2.909  1.00  0.00     0.018 C 
HETATM   10  C13 UNK     1      -4.370  -2.547  -0.838  1.00  0.00     0.084 C 
HETATM   11  C14 UNK     1      -2.910  -2.158  -0.765  1.00  0.00     0.158 C 
HETATM   12  C17 UNK     1      -1.232   0.138   4.310  1.00  0.00     0.069 C 
HETATM   13  H17 UNK     1      -3.504  -0.405   3.356  1.00  0.00     0.165 HD
ENDROOT
BRANCH   3  14
HETATM   14  C15 UNK     1      -0.574  -0.052  -0.473  1.00  0.00     0.029 A 
HETATM   15  C18 UNK     1       0.429  -0.413  -1.507  1.00  0.00     0.194 A 
HETATM   16  C20 UNK     1       0.752   0.630  -2.497  1.00  0.00     0.050 A 
HETATM   17  O5  UNK     1       0.961  -1.515  -1.540  1.00  0.00    -0.287 OA
HETATM   18  C21 UNK     1       0.114   1.868  -2.411  1.00  0.00     0.089 A 
HETATM   19  C22 UNK     1       1.684   0.388  -3.510  1.00  0.00     0.042 A 
HETATM   20  O4  UNK     1      -0.809   2.161  -1.439  1.00  0.00    -0.321 OA
HETATM   21  C23 UNK     1       0.404   2.870  -3.338  1.00  0.00     0.040 A 
HETATM   22  C19 UNK     1      -1.100   1.179  -0.523  1.00  0.00     0.154 A 
HETATM   23  C25 UNK     1       1.334   2.630  -4.350  1.00  0.00     0.026 A 
HETATM   24  C24 UNK     1       1.972   1.392  -4.435  1.00  0.00     0.035 A 
HETATM   25 Cl1  UNK     1       3.119   1.103  -5.687  1.00  0.00    -0.084 Cl
ENDBRANCH   3  14
BRANCH   6  26
HETATM   26  C16 UNK     1       0.887  -0.399   2.203  1.00  0.00     0.292 C 
HETATM   27  O3  UNK     1       1.613  -1.279   2.626  1.00  0.00    -0.259 OA
BRANCH  26  28
HETATM   28  O1  UNK     1       1.212   0.875   1.877  1.00  0.00    -0.312 OA
BRANCH  28  29
HETATM   29  C1  UNK     1       2.573   1.210   2.057  1.00  0.00     0.132 C 
HETATM   30  C2  UNK     1       2.850   2.633   1.603  1.00  0.00     0.032 C 
HETATM   31  C4  UNK     1       4.356   2.658   1.371  1.00  0.00     0.002 C 
HETATM   32  C5  UNK     1       4.760   1.214   1.066  1.00  0.00     0.002 C 
HETATM   33  C3  UNK     1       3.481   0.390   1.155  1.00  0.00     0.032 C 
ENDBRANCH  28  29
ENDBRANCH  26  28
ENDBRANCH   6  26
TORSDOF 4
