REMARK  5 active torsions:
REMARK  status: ('A' for Active; 'I' for Inactive)
REMARK    1  A    between atoms: C14_20  and  N1_5 
REMARK    2  A    between atoms: C4_10  and  N1_5 
REMARK    3  A    between atoms: C14_20  and  N2_6 
REMARK    4  A    between atoms: C7_13  and  N2_6 
REMARK    5  A    between atoms: C2_8  and  C5_11 
ROOT
HETATM    1  N2  UNK     1      -1.212  -0.357  -2.596  1.00  0.00    -0.333 N 
HETATM    2  H8  UNK     1      -1.809  -0.445  -3.416  1.00  0.00     0.168 HD
ENDROOT
BRANCH   1   3
HETATM    3  C14 UNK     1       0.026   0.235  -2.877  1.00  0.00     0.176 C 
HETATM    4  S1  UNK     1       0.384   0.552  -4.493  1.00  0.00    -0.041 SA
BRANCH   3   5
HETATM    5  N1  UNK     1       0.779   0.606  -1.777  1.00  0.00    -0.333 N 
HETATM    6  H7  UNK     1       0.223   0.763  -0.949  1.00  0.00     0.168 HD
BRANCH   5   7
HETATM    7  C4  UNK     1       2.054   1.219  -1.685  1.00  0.00     0.040 A 
HETATM    8  C12 UNK     1       3.025   0.863  -2.607  1.00  0.00     0.031 A 
HETATM    9  C18 UNK     1       4.286   1.453  -2.531  1.00  0.00     0.021 A 
HETATM   10  C17 UNK     1       4.559   2.391  -1.535  1.00  0.00     0.011 A 
HETATM   11 Br1  UNK     1       6.268   3.190  -1.432  1.00  0.00    -0.051 Br
HETATM   12  C11 UNK     1       3.570   2.738  -0.614  1.00  0.00     0.028 A 
HETATM   13  C2  UNK     1       2.308   2.147  -0.690  1.00  0.00    -0.030 A 
BRANCH  13  14
HETATM   14  C5  UNK     1       1.267   2.537   0.309  1.00  0.00     0.036 C 
HETATM   15  C15 UNK     1       1.299   1.653   1.551  1.00  0.00     0.010 C 
ENDBRANCH  13  14
ENDBRANCH   5   7
ENDBRANCH   3   5
ENDBRANCH   1   3
BRANCH   1  16
HETATM   16  C7  UNK     1      -1.852  -0.655  -1.393  1.00  0.00     0.036 A 
HETATM   17  C10 UNK     1      -3.244  -0.699  -1.334  1.00  0.00     0.030 A 
HETATM   18  C9  UNK     1      -3.893  -0.996  -0.130  1.00  0.00     0.017 A 
HETATM   19  C1  UNK     1      -3.157  -1.253   1.035  1.00  0.00     0.004 A 
HETATM   20  C3  UNK     1      -1.765  -1.202   0.946  1.00  0.00     0.092 A 
HETATM   21  C6  UNK     1      -3.769  -1.571   2.332  1.00  0.00    -0.043 A 
HETATM   22  O1  UNK     1      -0.954  -1.448   2.072  1.00  0.00    -0.275 OA
HETATM   23  C8  UNK     1      -1.104  -0.907  -0.248  1.00  0.00     0.067 A 
HETATM   24  C19 UNK     1      -1.503  -1.750   3.309  1.00  0.00     0.288 A 
HETATM   25  C13 UNK     1      -2.972  -1.801   3.386  1.00  0.00     0.090 A 
HETATM   26  O2  UNK     1      -0.806  -1.966   4.295  1.00  0.00    -0.260 OA
HETATM   27  C16 UNK     1      -5.263  -1.634   2.460  1.00  0.00     0.049 C 
ENDBRANCH   1  16
TORSDOF 5
