REMARK  7 active torsions:
REMARK  status: ('A' for Active; 'I' for Inactive)
REMARK    1  A    between atoms: C10_20  and  O1_3 
REMARK    2  A    between atoms: C8_18  and  O1_3 
REMARK       I    between atoms: C11_21  and  N1_9 
REMARK    3  A    between atoms: C4_14  and  N1_9 
REMARK       I    between atoms: C5_15  and  N2_10 
REMARK    4  A    between atoms: C7_17  and  N2_10 
REMARK    5  A    between atoms: C2_12  and  C8_18 
REMARK    6  A    between atoms: C3_13  and  C5_15 
REMARK    7  A    between atoms: C11_21  and  C12_22 
ROOT
HETATM    1  S1  UNK     1      -1.085  -0.843   0.402  1.00  0.00    -0.065 SA
HETATM    2  C1  UNK     1      -2.808  -0.784  -1.503  1.00  0.00    -0.020 A 
HETATM    3  C2  UNK     1      -1.610  -0.227  -2.036  1.00  0.00     0.080 A 
HETATM    4  C3  UNK     1      -2.662  -1.161  -0.186  1.00  0.00     0.082 A 
HETATM    5  C4  UNK     1      -0.622  -0.208  -1.105  1.00  0.00     0.094 A 
HETATM    6  C6  UNK     1      -4.067  -0.940  -2.275  1.00  0.00     0.051 C 
ENDROOT
BRANCH   5   7
HETATM    7  N1  UNK     1       0.698   0.245  -1.192  1.00  0.00    -0.316 N 
HETATM    8  C11 UNK     1       1.641   0.220  -0.174  1.00  0.00     0.262 C 
HETATM    9  O5  UNK     1       1.515  -0.192   0.978  1.00  0.00    -0.267 OA
HETATM   10  H4  UNK     1       0.966   0.629  -2.094  1.00  0.00     0.169 HD
BRANCH   8  11
HETATM   11  C12 UNK     1       2.929   0.775  -0.607  1.00  0.00     0.108 A 
HETATM   12  C18 UNK     1       3.095   2.091  -0.430  1.00  0.00     0.037 A 
HETATM   13  C16 UNK     1       4.339   2.733  -0.827  1.00  0.00     0.001 A 
HETATM   14  C20 UNK     1       5.346   1.957  -1.393  1.00  0.00     0.089 A 
HETATM   15  C25 UNK     1       4.556   4.103  -0.661  1.00  0.00     0.038 A 
HETATM   16  O2  UNK     1       5.164   0.572  -1.577  1.00  0.00    -0.274 OA
HETATM   17  C26 UNK     1       6.559   2.510  -1.796  1.00  0.00     0.040 A 
HETATM   18  C23 UNK     1       3.986  -0.070  -1.207  1.00  0.00     0.304 A 
HETATM   19  O6  UNK     1       3.837  -1.276  -1.371  1.00  0.00    -0.259 OA
HETATM   20  C28 UNK     1       6.768   3.877  -1.627  1.00  0.00     0.026 A 
HETATM   21  C27 UNK     1       5.769   4.672  -1.060  1.00  0.00     0.035 A 
HETATM   22 Cl1  UNK     1       6.033   6.361  -0.853  1.00  0.00    -0.084 Cl
ENDBRANCH   8  11
ENDBRANCH   5   7
BRANCH   3  23
HETATM   23  C8  UNK     1      -1.442   0.261  -3.383  1.00  0.00     0.297 C 
HETATM   24  O4  UNK     1      -2.056  -0.187  -4.362  1.00  0.00    -0.259 OA
BRANCH  23  25
HETATM   25  O1  UNK     1      -0.525   1.284  -3.496  1.00  0.00    -0.313 OA
BRANCH  25  26
HETATM   26  C10 UNK     1       0.185   1.381  -4.735  1.00  0.00     0.124 C 
HETATM   27  C21 UNK     1       1.120   2.580  -4.684  1.00  0.00     0.040 C 
HETATM   28  C22 UNK     1       0.941   0.084  -4.983  1.00  0.00     0.040 C 
ENDBRANCH  25  26
ENDBRANCH  23  25
ENDBRANCH   3  23
BRANCH   4  29
HETATM   29  C5  UNK     1      -3.616  -1.752   0.697  1.00  0.00     0.263 C 
HETATM   30  O3  UNK     1      -4.519  -2.525   0.300  1.00  0.00    -0.267 OA
HETATM   31  N2  UNK     1      -3.464  -1.447   2.070  1.00  0.00    -0.322 N 
HETATM   32  H5  UNK     1      -2.602  -0.962   2.308  1.00  0.00     0.169 HD
BRANCH  31  33
HETATM   33  C7  UNK     1      -4.219  -1.899   3.182  1.00  0.00     0.041 A 
HETATM   34  C13 UNK     1      -5.556  -2.207   2.988  1.00  0.00     0.030 A 
HETATM   35  C17 UNK     1      -6.316  -2.654   4.069  1.00  0.00     0.009 A 
HETATM   36  C15 UNK     1      -5.728  -2.787   5.327  1.00  0.00    -0.061 A 
HETATM   37  C14 UNK     1      -4.380  -2.472   5.504  1.00  0.00     0.015 A 
HETATM   38  C24 UNK     1      -6.540  -3.265   6.483  1.00  0.00     0.048 C 
HETATM   39  C9  UNK     1      -3.621  -2.025   4.423  1.00  0.00    -0.035 A 
HETATM   40  C19 UNK     1      -2.180  -1.696   4.642  1.00  0.00     0.050 C 
ENDBRANCH  31  33
ENDBRANCH   4  29
TORSDOF 7
