REMARK  2 active torsions:
REMARK  status: ('A' for Active; 'I' for Inactive)
REMARK    1  A    between atoms: C15_20  and  O4_4 
REMARK       I    between atoms: C7_12  and  N1_5 
REMARK    2  A    between atoms: C7_12  and  C8_13 
ROOT
HETATM    1  O2  UNK     1       0.270  -0.398  -2.474  1.00  0.00    -0.274 OA
HETATM    2  O3  UNK     1      -1.835  -1.227  -2.157  1.00  0.00    -0.259 OA
HETATM    3  C8  UNK     1      -1.061   0.345  -0.562  1.00  0.00     0.108 A 
HETATM    4  C9  UNK     1      -0.073   1.148  -0.151  1.00  0.00     0.037 A 
HETATM    5  C10 UNK     1      -0.932  -0.489  -1.778  1.00  0.00     0.304 A 
HETATM    6  C11 UNK     1       1.172   1.221  -0.900  1.00  0.00     0.002 A 
HETATM    7  C12 UNK     1       1.314   0.445  -2.046  1.00  0.00     0.089 A 
HETATM    8  C13 UNK     1       2.230   2.045  -0.508  1.00  0.00     0.051 A 
HETATM    9  C14 UNK     1       2.480   0.470  -2.809  1.00  0.00     0.041 A 
HETATM   10  C15 UNK     1       3.406   2.080  -1.263  1.00  0.00     0.069 A 
HETATM   11  C16 UNK     1       3.531   1.294  -2.411  1.00  0.00     0.039 A 
ENDROOT
BRANCH   3  12
HETATM   12  C7  UNK     1      -2.285   0.340   0.266  1.00  0.00     0.260 C 
HETATM   13  O1  UNK     1      -3.164   1.155  -0.018  1.00  0.00    -0.267 OA
HETATM   14  N1  UNK     1      -2.364  -0.582   1.313  1.00  0.00    -0.344 N 
HETATM   15  C1  UNK     1      -1.263  -1.471   1.759  1.00  0.00     0.083 C 
HETATM   16  C5  UNK     1      -3.577  -0.589   2.141  1.00  0.00     0.126 C 
HETATM   17  C2  UNK     1      -1.777  -2.882   2.091  1.00  0.00     0.025 C 
HETATM   18  C6  UNK     1      -0.496  -0.845   2.926  1.00  0.00     0.032 C 
HETATM   19  C3  UNK     1      -2.997  -2.874   3.005  1.00  0.00     0.004 C 
HETATM   20  C4  UNK     1      -4.091  -1.997   2.410  1.00  0.00     0.020 C 
ENDBRANCH   3  12
BRANCH  10  21
HETATM   21  O4  UNK     1       4.435   2.884  -0.877  1.00  0.00    -0.356 OA
HETATM   22  C17 UNK     1       5.606   2.874  -1.692  1.00  0.00     0.210 C 
ENDBRANCH  10  21
TORSDOF 2
