REMARK  9 active torsions:
REMARK  status: ('A' for Active; 'I' for Inactive)
REMARK    1  A    between atoms: C1_5  and  O1_1 
REMARK    2  A    between atoms: C5_9  and  O1_1 
REMARK    3  A    between atoms: C15_19  and  O2_2 
REMARK    4  A    between atoms: C2_6  and  O2_2 
REMARK    5  A    between atoms: C10_14  and  O3_3 
REMARK    6  A    between atoms: C8_12  and  O3_3 
REMARK    7  A    between atoms: C3_7  and  C9_13 
REMARK    8  A    between atoms: C5_9  and  C8_12 
REMARK    9  A    between atoms: C11_15  and  C13_17 
ROOT
HETATM    1  N1  UNK     1      -6.323  -2.811   2.704  1.00  0.00    -0.191 NA
HETATM    2  C9  UNK     1      -4.222  -1.371   0.379  1.00  0.00     0.035 C 
HETATM    3  C11 UNK     1      -4.137  -1.904   1.627  1.00  0.00     0.055 C 
HETATM    4  C26 UNK     1      -5.352  -2.403   2.215  1.00  0.00     0.100 C 
ENDROOT
BRANCH   3   5
HETATM    5  C13 UNK     1      -2.898  -2.000   2.383  1.00  0.00    -0.015 A 
HETATM    6  C19 UNK     1      -2.786  -1.366   3.621  1.00  0.00     0.013 A 
HETATM    7  C23 UNK     1      -1.598  -1.458   4.347  1.00  0.00     0.001 A 
HETATM    8  C25 UNK     1      -0.522  -2.183   3.834  1.00  0.00     0.000 A 
HETATM    9  C24 UNK     1      -0.634  -2.816   2.597  1.00  0.00     0.001 A 
HETATM   10  C20 UNK     1      -1.822  -2.725   1.871  1.00  0.00     0.013 A 
ENDBRANCH   3   5
BRANCH   2  11
HETATM   11  C3  UNK     1      -3.107  -0.790  -0.383  1.00  0.00    -0.032 A 
HETATM   12  C4  UNK     1      -2.415   0.311   0.123  1.00  0.00     0.051 A 
HETATM   13  C2  UNK     1      -1.358   0.862  -0.601  1.00  0.00     0.102 A 
HETATM   14  C1  UNK     1      -0.992   0.313  -1.830  1.00  0.00     0.102 A 
HETATM   15  C6  UNK     1      -1.684  -0.788  -2.335  1.00  0.00     0.040 A 
HETATM   16  C7  UNK     1      -2.741  -1.339  -1.612  1.00  0.00     0.014 A 
BRANCH  13  17
HETATM   17  O2  UNK     1      -0.690   1.937  -0.097  1.00  0.00    -0.349 OA
BRANCH  17  18
HETATM   18  C15 UNK     1      -0.047   1.767   1.165  1.00  0.00     0.171 C 
HETATM   19  C22 UNK     1       0.647   3.058   1.543  1.00  0.00     0.034 C 
ENDBRANCH  17  18
ENDBRANCH  13  17
BRANCH  14  20
HETATM   20  O1  UNK     1       0.040   0.842  -2.545  1.00  0.00    -0.346 OA
BRANCH  20  21
HETATM   21  C5  UNK     1       0.780  -0.053  -3.373  1.00  0.00     0.202 C 
BRANCH  21  22
HETATM   22  C8  UNK     1       2.204   0.453  -3.500  1.00  0.00     0.202 C 
BRANCH  22  23
HETATM   23  O3  UNK     1       2.785   0.532  -2.204  1.00  0.00    -0.349 OA
BRANCH  23  24
HETATM   24  C10 UNK     1       3.755   1.482  -2.019  1.00  0.00     0.069 A 
HETATM   25  C14 UNK     1       4.565   1.868  -3.087  1.00  0.00     0.043 A 
HETATM   26  C12 UNK     1       5.552   2.836  -2.899  1.00  0.00    -0.059 A 
HETATM   27  C17 UNK     1       5.728   3.418  -1.644  1.00  0.00     0.007 A 
HETATM   28  C21 UNK     1       6.417   3.251  -4.041  1.00  0.00     0.048 C 
HETATM   29  C18 UNK     1       4.918   3.031  -0.576  1.00  0.00     0.003 A 
HETATM   30  C16 UNK     1       3.931   2.064  -0.764  1.00  0.00     0.037 A 
ENDBRANCH  23  24
ENDBRANCH  22  23
ENDBRANCH  21  22
ENDBRANCH  20  21
ENDBRANCH  14  20
ENDBRANCH   2  11
TORSDOF 9
