REMARK  4 active torsions:
REMARK  status: ('A' for Active; 'I' for Inactive)
REMARK    1  A    between atoms: C9_14  and  O2_2 
REMARK    2  A    between atoms: C6_11  and  O3_3 
REMARK    3  A    between atoms: C15_20  and  O5_5 
REMARK    4  A    between atoms: C3_8  and  C5_10 
ROOT
HETATM    1  O1  UNK     1      -0.358   0.078  -0.642  1.00  0.00    -0.309 OA
HETATM    2  O4  UNK     1      -0.374   1.460   3.190  1.00  0.00    -0.287 OA
HETATM    3  C1  UNK     1      -1.365   0.056   1.568  1.00  0.00     0.081 A 
HETATM    4  C2  UNK     1      -1.301  -0.376   0.245  1.00  0.00     0.095 A 
HETATM    5  C3  UNK     1       0.567   1.012  -0.201  1.00  0.00     0.090 A 
HETATM    6  C4  UNK     1      -0.380   1.040   2.042  1.00  0.00     0.190 A 
HETATM    7  C6  UNK     1      -2.348  -0.441   2.427  1.00  0.00     0.085 A 
HETATM    8  C7  UNK     1       0.613   1.499   1.049  1.00  0.00     0.094 A 
HETATM    9  C8  UNK     1      -2.223  -1.310  -0.229  1.00  0.00     0.075 A 
HETATM   10  C9  UNK     1      -3.206  -1.809   0.626  1.00  0.00     0.073 A 
HETATM   11  C10 UNK     1      -3.268  -1.375   1.951  1.00  0.00     0.074 A 
ENDROOT
BRANCH   5  12
HETATM   12  C5  UNK     1       1.539   1.427  -1.233  1.00  0.00    -0.002 A 
HETATM   13  C11 UNK     1       2.103   2.704  -1.193  1.00  0.00     0.017 A 
HETATM   14  C13 UNK     1       3.021   3.096  -2.168  1.00  0.00     0.037 A 
HETATM   15  C15 UNK     1       3.376   2.211  -3.186  1.00  0.00     0.065 A 
HETATM   16  C14 UNK     1       2.815   0.935  -3.230  1.00  0.00     0.037 A 
HETATM   17  C12 UNK     1       1.898   0.544  -2.255  1.00  0.00     0.017 A 
BRANCH  15  18
HETATM   18  O5  UNK     1       4.271   2.594  -4.138  1.00  0.00    -0.361 OA
HETATM   19  H12 UNK     1       4.557   3.505  -3.954  1.00  0.00     0.217 HD
ENDBRANCH  15  18
ENDBRANCH   5  12
BRANCH   7  20
HETATM   20  O3  UNK     1      -2.451  -0.051   3.728  1.00  0.00    -0.360 OA
HETATM   21  H8  UNK     1      -1.764   0.598   3.944  1.00  0.00     0.217 HD
ENDBRANCH   7  20
BRANCH  10  22
HETATM   22  O2  UNK     1      -4.106  -2.721   0.167  1.00  0.00    -0.356 OA
HETATM   23  C16 UNK     1      -3.986  -3.122  -1.197  1.00  0.00     0.210 C 
ENDBRANCH  10  22
TORSDOF 4
