REMARK  7 active torsions:
REMARK  status: ('A' for Active; 'I' for Inactive)
REMARK    1  A    between atoms: C1_13  and  N1_9 
REMARK    2  A    between atoms: C3_15  and  N2_10 
REMARK       I    between atoms: C8_20  and  N2_10 
REMARK    3  A    between atoms: C17_29  and  N4_12 
REMARK    4  A    between atoms: C1_13  and  C2_14 
REMARK    5  A    between atoms: C2_14  and  C3_15 
REMARK    6  A    between atoms: C12_24  and  C6_18 
REMARK    7  A    between atoms: C8_20  and  C9_21 
ROOT
HETATM    1  O2  UNK     1       0.844  -0.836   2.183  1.00  0.00    -0.267 OA
HETATM    2  N2  UNK     1       0.455   1.288   1.303  1.00  0.00    -0.357 N 
HETATM    3  C8  UNK     1       0.111  -0.007   1.647  1.00  0.00     0.257 C 
HETATM    4  H8  UNK     1      -0.233   1.907   0.886  1.00  0.00     0.162 HD
ENDROOT
BRANCH   3   5
HETATM    5  C9  UNK     1      -1.279  -0.337   1.308  1.00  0.00     0.108 A 
HETATM    6  C11 UNK     1      -1.882  -1.237   2.093  1.00  0.00     0.037 A 
HETATM    7  C10 UNK     1      -3.259  -1.628   1.837  1.00  0.00     0.001 A 
HETATM    8  C13 UNK     1      -3.934  -1.052   0.765  1.00  0.00     0.089 A 
HETATM    9  C15 UNK     1      -3.928  -2.563   2.631  1.00  0.00     0.050 A 
HETATM   10  O1  UNK     1      -3.294  -0.106  -0.059  1.00  0.00    -0.274 OA
HETATM   11  C16 UNK     1      -5.254  -1.384   0.465  1.00  0.00     0.041 A 
HETATM   12  C14 UNK     1      -1.977   0.288   0.162  1.00  0.00     0.304 A 
HETATM   13  O3  UNK     1      -1.428   1.114  -0.560  1.00  0.00    -0.259 OA
HETATM   14  C18 UNK     1      -5.914  -2.317   1.262  1.00  0.00     0.039 A 
HETATM   15  C17 UNK     1      -5.252  -2.905   2.343  1.00  0.00     0.103 A 
BRANCH  15  16
HETATM   16  N4  UNK     1      -5.929  -3.856   3.152  1.00  0.00    -0.116 N 
HETATM   17  O4  UNK     1      -7.118  -4.150   2.879  1.00  0.00    -0.532 OA
HETATM   18  O5  UNK     1      -5.320  -4.375   4.119  1.00  0.00    -0.532 OA
ENDBRANCH  15  16
ENDBRANCH   3   5
BRANCH   2  19
HETATM   19  C3  UNK     1       1.768   1.843   1.541  1.00  0.00     0.124 C 
BRANCH  19  20
HETATM   20  C2  UNK     1       2.715   1.617   0.368  1.00  0.00     0.041 C 
BRANCH  20  21
HETATM   21  C1  UNK     1       2.191   2.233  -0.931  1.00  0.00     0.152 C 
BRANCH  21  22
HETATM   22  N1  UNK     1       3.100   2.004  -2.051  1.00  0.00    -0.274 N 
HETATM   23  C4  UNK     1       3.081   0.947  -2.899  1.00  0.00     0.029 A 
HETATM   24  C5  UNK     1       4.114   1.167  -3.777  1.00  0.00     0.064 A 
HETATM   25  C7  UNK     1       2.108  -0.157  -2.805  1.00  0.00     0.070 C 
HETATM   26  C6  UNK     1       4.680   2.386  -3.356  1.00  0.00     0.162 A 
HETATM   27  N3  UNK     1       4.058   2.903  -2.293  1.00  0.00    -0.168 NA
BRANCH  26  28
HETATM   28  C12 UNK     1       5.826   3.094  -3.949  1.00  0.00     0.436 C 
HETATM   29  F1  UNK     1       6.354   2.444  -5.026  1.00  0.00    -0.165 F 
HETATM   30  F2  UNK     1       5.515   4.347  -4.391  1.00  0.00    -0.165 F 
HETATM   31  F3  UNK     1       6.847   3.248  -3.060  1.00  0.00    -0.165 F 
ENDBRANCH  26  28
ENDBRANCH  21  22
ENDBRANCH  20  21
ENDBRANCH  19  20
ENDBRANCH   2  19
TORSDOF 7
