REMARK  1 active torsions:
REMARK  status: ('A' for Active; 'I' for Inactive)
REMARK    1  A    between atoms: C3_7  and  C4_8 
ROOT
HETATM    1 Br1  UNK     1      -4.805  -2.380   3.062  1.00  0.00    -0.051 Br
HETATM    2  O1  UNK     1       0.105   0.203   0.647  1.00  0.00    -0.309 OA
HETATM    3  O2  UNK     1      -2.745  -1.206  -1.902  1.00  0.00    -0.287 OA
HETATM    4  C1  UNK     1      -2.039  -0.895   0.332  1.00  0.00     0.049 A 
HETATM    5  C2  UNK     1      -1.026  -0.391   1.147  1.00  0.00     0.090 A 
HETATM    6  C3  UNK     1       0.248   0.297  -0.729  1.00  0.00     0.090 A 
HETATM    7  C5  UNK     1      -1.895  -0.788  -1.128  1.00  0.00     0.187 A 
HETATM    8  C6  UNK     1      -0.659  -0.144  -1.616  1.00  0.00     0.093 A 
HETATM    9  C7  UNK     1      -3.170  -1.490   0.897  1.00  0.00     0.037 A 
HETATM   10  C8  UNK     1      -1.139  -0.479   2.534  1.00  0.00     0.039 A 
HETATM   11  C11 UNK     1      -3.280  -1.577   2.285  1.00  0.00     0.012 A 
HETATM   12  C12 UNK     1      -2.267  -1.073   3.102  1.00  0.00     0.022 A 
ENDROOT
BRANCH   6  13
HETATM   13  C4  UNK     1       1.497   0.957  -1.158  1.00  0.00    -0.002 A 
HETATM   14  C10 UNK     1       2.652   0.849  -0.379  1.00  0.00     0.016 A 
HETATM   15  C14 UNK     1       3.832   1.472  -0.784  1.00  0.00     0.024 A 
HETATM   16  C15 UNK     1       3.862   2.206  -1.971  1.00  0.00     0.034 A 
HETATM   17  C13 UNK     1       2.711   2.316  -2.751  1.00  0.00     0.024 A 
HETATM   18 Cl1  UNK     1       5.318   2.974  -2.471  1.00  0.00    -0.084 Cl
HETATM   19  C9  UNK     1       1.531   1.693  -2.346  1.00  0.00     0.016 A 
ENDBRANCH   6  13
TORSDOF 1
