REMARK  3 active torsions:
REMARK  status: ('A' for Active; 'I' for Inactive)
REMARK    1  A    between atoms: C5_8  and  N1_2 
REMARK    2  A    between atoms: C12_15  and  C9_12 
REMARK    3  A    between atoms: C13_16  and  C14_17 
ROOT
HETATM    1  N2  UNK     1       0.130   3.173   0.197  1.00  0.00    -0.191 NA
HETATM    2  C12 UNK     1       1.192  -0.015  -0.643  1.00  0.00     0.035 C 
HETATM    3  C13 UNK     1       1.599   1.273  -0.773  1.00  0.00     0.055 C 
HETATM    4  C17 UNK     1       0.787   2.321  -0.237  1.00  0.00     0.100 C 
ENDROOT
BRANCH   3   5
HETATM    5  C14 UNK     1       2.860   1.644  -1.445  1.00  0.00    -0.014 A 
HETATM    6  C16 UNK     1       4.023   1.729  -0.700  1.00  0.00     0.013 A 
HETATM    7  C19 UNK     1       5.215   2.078  -1.335  1.00  0.00     0.003 A 
HETATM    8  C20 UNK     1       5.225   2.336  -2.706  1.00  0.00     0.024 A 
HETATM    9  C18 UNK     1       4.043   2.246  -3.441  1.00  0.00     0.034 A 
HETATM   10  C15 UNK     1       2.852   1.897  -2.806  1.00  0.00     0.036 A 
HETATM   11 Cl1  UNK     1       4.057   2.568  -5.132  1.00  0.00    -0.084 Cl
ENDBRANCH   3   5
BRANCH   2  12
HETATM   12  C9  UNK     1      -0.022  -0.487   0.004  1.00  0.00    -0.034 A 
HETATM   13  C10 UNK     1      -0.011  -0.803   1.362  1.00  0.00     0.014 A 
HETATM   14  C7  UNK     1      -1.175  -1.256   1.982  1.00  0.00     0.031 A 
HETATM   15  C5  UNK     1      -2.398  -1.412   1.270  1.00  0.00     0.036 A 
HETATM   16  C6  UNK     1      -2.362  -1.078  -0.114  1.00  0.00    -0.035 A 
HETATM   17  C11 UNK     1      -3.607  -1.216  -0.929  1.00  0.00     0.050 C 
HETATM   18  C8  UNK     1      -1.197  -0.625  -0.735  1.00  0.00     0.020 A 
BRANCH  15  19
HETATM   19  N1  UNK     1      -3.540  -1.861   1.899  1.00  0.00    -0.380 N 
HETATM   20  C1  UNK     1      -4.520  -0.989   2.541  1.00  0.00     0.123 C 
HETATM   21  C3  UNK     1      -5.710  -1.909   2.804  1.00  0.00     0.021 C 
HETATM   22  C4  UNK     1      -5.057  -3.263   3.023  1.00  0.00     0.021 C 
HETATM   23  C2  UNK     1      -3.919  -3.268   2.005  1.00  0.00     0.123 C 
ENDBRANCH  15  19
ENDBRANCH   2  12
TORSDOF 3
