REMARK  4 active torsions:
REMARK  status: ('A' for Active; 'I' for Inactive)
REMARK    1  A    between atoms: C17_25  and  O4_5 
REMARK       I    between atoms: C11_19  and  N1_7 
REMARK    2  A    between atoms: C9_17  and  N1_7 
REMARK       I    between atoms: C10_18  and  N2_8 
REMARK    3  A    between atoms: C10_18  and  C8_16 
REMARK    4  A    between atoms: C11_19  and  C12_20 
ROOT
HETATM    1  O3  UNK     1       1.073   0.119   1.932  1.00  0.00    -0.267 OA
HETATM    2  N1  UNK     1       0.467   0.493  -0.325  1.00  0.00    -0.316 N 
HETATM    3  C11 UNK     1       0.289   0.020   0.995  1.00  0.00     0.262 C 
HETATM    4  H11 UNK     1      -0.294   0.341  -0.982  1.00  0.00     0.169 HD
ENDROOT
BRANCH   2   5
HETATM    5  C9  UNK     1       1.535   1.161  -0.859  1.00  0.00     0.093 A 
HETATM    6  C8  UNK     1       1.766   1.644  -2.127  1.00  0.00     0.073 A 
HETATM    7  C5  UNK     1       3.041   2.286  -2.249  1.00  0.00    -0.026 A 
HETATM    8  C3  UNK     1       3.560   2.904  -3.511  1.00  0.00     0.041 C 
HETATM    9  C7  UNK     1       3.729   2.260  -1.049  1.00  0.00    -0.008 A 
HETATM   10  C1  UNK     1       4.902   2.324  -3.960  1.00  0.00     0.005 C 
HETATM   11  C2  UNK     1       6.100   2.797  -3.130  1.00  0.00     0.001 C 
HETATM   12  C4  UNK     1       6.157   2.253  -1.699  1.00  0.00     0.005 C 
HETATM   13  C6  UNK     1       5.088   2.825  -0.766  1.00  0.00     0.046 C 
HETATM   14  S1  UNK     1       2.844   1.476   0.189  1.00  0.00    -0.075 SA
BRANCH   6  15
HETATM   15  C10 UNK     1       0.794   1.492  -3.183  1.00  0.00     0.252 C 
HETATM   16  O1  UNK     1      -0.083   2.340  -3.425  1.00  0.00    -0.268 OA
HETATM   17  N2  UNK     1       0.876   0.345  -3.967  1.00  0.00    -0.366 N 
HETATM   18  H12 UNK     1       1.583  -0.367  -3.810  1.00  0.00     0.159 HD
HETATM   19  H13 UNK     1       0.226   0.186  -4.729  1.00  0.00     0.159 HD
ENDBRANCH   6  15
ENDBRANCH   2   5
BRANCH   3  20
HETATM   20  C12 UNK     1      -1.006  -0.660   1.204  1.00  0.00     0.108 A 
HETATM   21  C13 UNK     1      -1.524  -0.581   2.436  1.00  0.00     0.037 A 
HETATM   22  C14 UNK     1      -2.796  -1.218   2.739  1.00  0.00     0.002 A 
HETATM   23  C15 UNK     1      -3.460  -1.908   1.731  1.00  0.00     0.123 A 
HETATM   24  C18 UNK     1      -3.373  -1.160   4.010  1.00  0.00     0.014 A 
HETATM   25  O2  UNK     1      -2.910  -1.988   0.436  1.00  0.00    -0.271 OA
HETATM   26  C17 UNK     1      -4.681  -2.540   1.956  1.00  0.00     0.102 A 
HETATM   27  C16 UNK     1      -1.695  -1.388   0.116  1.00  0.00     0.304 A 
HETATM   28  O5  UNK     1      -1.225  -1.463  -1.014  1.00  0.00    -0.259 OA
HETATM   29  C19 UNK     1      -5.250  -2.478   3.226  1.00  0.00     0.040 A 
HETATM   30  C20 UNK     1      -4.598  -1.790   4.251  1.00  0.00     0.004 A 
BRANCH  26  31
HETATM   31  O4  UNK     1      -5.320  -3.212   0.961  1.00  0.00    -0.353 OA
HETATM   32  C21 UNK     1      -6.237  -2.469   0.158  1.00  0.00     0.210 C 
ENDBRANCH  26  31
ENDBRANCH   3  20
TORSDOF 4
