REMARK  6 active torsions:
REMARK  status: ('A' for Active; 'I' for Inactive)
REMARK    1  A    between atoms: C16_23  and  O2_2 
REMARK    2  A    between atoms: C9_16  and  O2_2 
REMARK    3  A    between atoms: C13_20  and  O4_4 
REMARK    4  A    between atoms: C14_21  and  O5_5 
REMARK       I    between atoms: C17_24  and  N1_7 
REMARK    5  A    between atoms: C7_14  and  C8_15 
REMARK    6  A    between atoms: C16_23  and  C17_24 
ROOT
HETATM    1  O1  UNK     1      -0.399   0.272  -0.758  1.00  0.00    -0.306 OA
HETATM    2  O3  UNK     1      -0.371  -2.200  -3.293  1.00  0.00    -0.284 OA
HETATM    3  C1  UNK     1       0.763  -0.169  -2.706  1.00  0.00     0.051 A 
HETATM    4  C2  UNK     1       0.591   0.687  -1.620  1.00  0.00     0.093 A 
HETATM    5  C3  UNK     1      -0.900  -0.906  -1.299  1.00  0.00     0.127 A 
HETATM    6  C4  UNK     1      -0.198  -1.254  -2.558  1.00  0.00     0.218 A 
HETATM    7  C5  UNK     1       1.362   1.820  -1.474  1.00  0.00     0.075 A 
HETATM    8  C6  UNK     1       1.702   0.061  -3.689  1.00  0.00     0.021 A 
HETATM    9  C7  UNK     1      -1.881  -1.630  -0.759  1.00  0.00     0.053 C 
HETATM   10  C9  UNK     1       2.323   2.077  -2.458  1.00  0.00     0.072 A 
HETATM   11  C10 UNK     1       2.490   1.206  -3.554  1.00  0.00     0.038 A 
ENDROOT
BRANCH   9  12
HETATM   12  C8  UNK     1      -2.601  -1.316   0.490  1.00  0.00    -0.031 A 
HETATM   13  C11 UNK     1      -2.131  -1.825   1.688  1.00  0.00     0.051 A 
HETATM   14  C13 UNK     1      -2.811  -1.528   2.869  1.00  0.00     0.102 A 
HETATM   15  C14 UNK     1      -3.952  -0.727   2.834  1.00  0.00     0.101 A 
HETATM   16  C15 UNK     1      -4.413  -0.222   1.618  1.00  0.00     0.040 A 
HETATM   17  C12 UNK     1      -3.732  -0.519   0.437  1.00  0.00     0.014 A 
BRANCH  14  18
HETATM   18  O4  UNK     1      -2.352  -2.027   4.051  1.00  0.00    -0.353 OA
HETATM   19  C18 UNK     1      -1.412  -1.231   4.769  1.00  0.00     0.210 C 
ENDBRANCH  14  18
BRANCH  15  20
HETATM   20  O5  UNK     1      -4.626  -0.430   3.980  1.00  0.00    -0.353 OA
HETATM   21  C19 UNK     1      -5.668  -1.322   4.370  1.00  0.00     0.210 C 
ENDBRANCH  15  20
ENDBRANCH   9  12
BRANCH  10  22
HETATM   22  O2  UNK     1       3.109   3.185  -2.357  1.00  0.00    -0.342 OA
BRANCH  22  23
HETATM   23  C16 UNK     1       3.402   3.653  -1.042  1.00  0.00     0.278 C 
BRANCH  23  24
HETATM   24  C17 UNK     1       4.754   4.327  -1.036  1.00  0.00     0.239 C 
HETATM   25  O6  UNK     1       5.466   4.432  -2.030  1.00  0.00    -0.271 OA
HETATM   26  N1  UNK     1       5.094   4.808   0.210  1.00  0.00    -0.368 N 
HETATM   27  H16 UNK     1       5.977   5.285   0.361  1.00  0.00     0.159 HD
HETATM   28  H17 UNK     1       4.485   4.708   1.015  1.00  0.00     0.159 HD
ENDBRANCH  23  24
ENDBRANCH  22  23
ENDBRANCH  10  22
TORSDOF 6
