REMARK  6 active torsions:
REMARK  status: ('A' for Active; 'I' for Inactive)
REMARK       I    between atoms: C13_18  and  N2_5 
REMARK    1  A    between atoms: C6_11  and  N2_5 
REMARK    2  A    between atoms: C1_6  and  C4_9 
REMARK    3  A    between atoms: C4_9  and  C6_11 
REMARK    4  A    between atoms: C13_18  and  C14_19 
REMARK    5  A    between atoms: C17_22  and  C20_25 
REMARK    6  A    between atoms: C20_25  and  C24_29 
ROOT
HETATM    1  O2  UNK     1      -0.671  -1.536  -3.192  1.00  0.00    -0.267 OA
HETATM    2  N2  UNK     1      -0.214   0.655  -2.543  1.00  0.00    -0.356 N 
HETATM    3  C13 UNK     1      -0.722  -0.620  -2.375  1.00  0.00     0.257 C 
HETATM    4  H12 UNK     1      -0.278   1.335  -1.791  1.00  0.00     0.162 HD
ENDROOT
BRANCH   2   5
HETATM    5  C6  UNK     1       0.465   1.080  -3.747  1.00  0.00     0.127 C 
BRANCH   5   6
HETATM    6  C4  UNK     1       1.971   0.834  -3.689  1.00  0.00     0.061 C 
BRANCH   6   7
HETATM    7  C1  UNK     1       2.652   1.576  -2.576  1.00  0.00    -0.022 A 
HETATM    8  C2  UNK     1       2.850   1.088  -1.269  1.00  0.00    -0.001 A 
HETATM    9  C3  UNK     1       3.518   2.097  -0.571  1.00  0.00     0.049 A 
HETATM   10  C8  UNK     1       2.534  -0.108  -0.594  1.00  0.00     0.014 A 
HETATM   11  N1  UNK     1       3.704   3.142  -1.448  1.00  0.00    -0.358 N 
HETATM   12  C7  UNK     1       3.887   1.968   0.773  1.00  0.00    -0.034 A 
HETATM   13  C5  UNK     1       3.178   2.830  -2.672  1.00  0.00     0.013 A 
HETATM   14  H3  UNK     1       4.162   4.013  -1.222  1.00  0.00     0.166 HD
HETATM   15  C9  UNK     1       3.245   3.785  -3.795  1.00  0.00     0.068 C 
HETATM   16  C10 UNK     1       3.563   0.773   1.421  1.00  0.00     0.009 A 
HETATM   17  C12 UNK     1       4.601   3.043   1.522  1.00  0.00     0.050 C 
HETATM   18  C11 UNK     1       2.896  -0.250   0.750  1.00  0.00     0.002 A 
ENDBRANCH   6   7
ENDBRANCH   5   6
ENDBRANCH   2   5
BRANCH   3  19
HETATM   19  C14 UNK     1      -1.364  -0.810  -1.068  1.00  0.00     0.108 A 
HETATM   20  C18 UNK     1      -1.321  -2.048  -0.563  1.00  0.00     0.037 A 
HETATM   21  C15 UNK     1      -1.929  -2.335   0.727  1.00  0.00    -0.000 A 
HETATM   22  C16 UNK     1      -2.552  -1.304   1.422  1.00  0.00     0.096 A 
HETATM   23  C21 UNK     1      -1.909  -3.613   1.293  1.00  0.00     0.014 A 
HETATM   24  O1  UNK     1      -2.594  -0.002   0.885  1.00  0.00    -0.273 OA
HETATM   25  C17 UNK     1      -3.154  -1.512   2.662  1.00  0.00    -0.020 A 
HETATM   26  C19 UNK     1      -2.021   0.303  -0.346  1.00  0.00     0.304 A 
HETATM   27  O3  UNK     1      -2.063   1.439  -0.806  1.00  0.00    -0.259 OA
HETATM   28  C22 UNK     1      -3.129  -2.789   3.218  1.00  0.00     0.010 A 
HETATM   29  C23 UNK     1      -2.508  -3.837   2.536  1.00  0.00     0.002 A 
BRANCH  25  30
HETATM   30  C20 UNK     1      -3.819  -0.399   3.399  1.00  0.00     0.067 C 
BRANCH  30  31
HETATM   31  C24 UNK     1      -5.281  -0.258   3.059  1.00  0.00    -0.032 C 
HETATM   32  C25 UNK     1      -5.818   0.826   2.488  1.00  0.00     0.007 C 
ENDBRANCH  30  31
ENDBRANCH  25  30
ENDBRANCH   3  19
TORSDOF 6
