REMARK  7 active torsions:
REMARK  status: ('A' for Active; 'I' for Inactive)
REMARK    1  A    between atoms: C5_12  and  N1_5 
REMARK    2  A    between atoms: C6_13  and  N2_6 
REMARK    3  A    between atoms: C18_25  and  N3_7 
REMARK       I    between atoms: C9_16  and  N3_7 
REMARK    4  A    between atoms: C5_12  and  C7_14 
REMARK    5  A    between atoms: C6_13  and  C9_16 
REMARK    6  A    between atoms: C13_20  and  C17_24 
REMARK    7  A    between atoms: C24_31  and  C25_32 
ROOT
HETATM    1  N1  UNK     1       1.444   0.398  -1.802  1.00  0.00     0.096 N 
HETATM    2  N2  UNK     1      -1.325  -0.101  -1.138  1.00  0.00     0.100 N 
HETATM    3  C1  UNK     1       1.070  -0.607  -0.800  1.00  0.00     0.303 C 
HETATM    4  C2  UNK     1       0.381   0.543  -2.805  1.00  0.00     0.303 C 
HETATM    5  C3  UNK     1      -0.262  -0.245  -0.135  1.00  0.00     0.303 C 
HETATM    6  C4  UNK     1      -0.951   0.905  -2.140  1.00  0.00     0.303 C 
ENDROOT
BRANCH   1   7
HETATM    7  C5  UNK     1       2.713   0.049  -2.438  1.00  0.00     0.312 C 
BRANCH   7   8
HETATM    8  C7  UNK     1       3.394   1.238  -3.023  1.00  0.00    -0.011 A 
HETATM    9  C10 UNK     1       3.164   1.614  -4.289  1.00  0.00     0.092 A 
HETATM   10  C14 UNK     1       3.812   2.781  -4.911  1.00  0.00     0.288 A 
HETATM   11  O1  UNK     1       4.695   3.499  -4.118  1.00  0.00    -0.275 OA
HETATM   12  O3  UNK     1       3.575   3.096  -6.071  1.00  0.00    -0.260 OA
HETATM   13  C11 UNK     1       4.957   3.127  -2.784  1.00  0.00     0.090 A 
HETATM   14  C15 UNK     1       5.864   3.923  -2.081  1.00  0.00     0.039 A 
HETATM   15  C8  UNK     1       4.335   2.019  -2.209  1.00  0.00     0.007 A 
HETATM   16  C16 UNK     1       6.163   3.605  -0.761  1.00  0.00     0.010 A 
HETATM   17  C13 UNK     1       5.557   2.503  -0.159  1.00  0.00    -0.058 A 
HETATM   18  C12 UNK     1       4.650   1.715  -0.877  1.00  0.00     0.022 A 
BRANCH  17  19
HETATM   19  C17 UNK     1       5.877   2.161   1.258  1.00  0.00     0.034 C 
HETATM   20  C19 UNK     1       4.941   2.851   2.246  1.00  0.00     0.010 C 
ENDBRANCH  17  19
ENDBRANCH   7   8
ENDBRANCH   1   7
BRANCH   2  21
HETATM   21  C6  UNK     1      -2.595   0.245  -0.503  1.00  0.00     0.375 C 
BRANCH  21  22
HETATM   22  C9  UNK     1      -3.197  -0.995   0.134  1.00  0.00     0.250 C 
HETATM   23  O2  UNK     1      -3.004  -2.124  -0.307  1.00  0.00    -0.271 OA
HETATM   24  N3  UNK     1      -3.958  -0.645   1.247  1.00  0.00    -0.326 N 
HETATM   25  H15 UNK     1      -4.023   0.343   1.484  1.00  0.00     0.169 HD
BRANCH  24  26
HETATM   26  C18 UNK     1      -4.678  -1.507   2.107  1.00  0.00     0.034 A 
HETATM   27  C20 UNK     1      -5.392  -0.982   3.184  1.00  0.00     0.030 A 
HETATM   28  C22 UNK     1      -6.101  -1.832   4.033  1.00  0.00     0.017 A 
HETATM   29  C24 UNK     1      -6.095  -3.209   3.805  1.00  0.00     0.009 A 
HETATM   30  C23 UNK     1      -5.380  -3.734   2.728  1.00  0.00     0.017 A 
HETATM   31  C21 UNK     1      -4.672  -2.884   1.880  1.00  0.00     0.030 A 
BRANCH  29  32
HETATM   32  C25 UNK     1      -6.834  -4.095   4.690  1.00  0.00     0.155 C 
HETATM   33  C26 UNK     1      -7.033  -3.726   6.156  1.00  0.00     0.096 C 
HETATM   34  O4  UNK     1      -7.320  -5.167   4.279  1.00  0.00    -0.293 OA
ENDBRANCH  29  32
ENDBRANCH  24  26
ENDBRANCH  21  22
ENDBRANCH   2  21
TORSDOF 7
