REMARK  7 active torsions:
REMARK  status: ('A' for Active; 'I' for Inactive)
REMARK    1  A    between atoms: C12_19  and  S1_3 
REMARK    2  A    between atoms: O1_4  and  S1_3 
REMARK    3  A    between atoms: C13_20  and  O1_4 
REMARK    4  A    between atoms: C1_8  and  C2_9 
REMARK    5  A    between atoms: C10_17  and  C7_14 
REMARK    6  A    between atoms: C11_18  and  C15_22 
REMARK    7  A    between atoms: C14_21  and  C15_22 
ROOT
HETATM    1  C11 UNK     1       0.780   0.897   0.013  1.00  0.00     0.014 A 
HETATM    2  C13 UNK     1      -1.624  -0.307   0.757  1.00  0.00     0.089 A 
HETATM    3  C16 UNK     1      -0.307   1.685   0.392  1.00  0.00     0.018 A 
HETATM    4  C17 UNK     1       0.665  -0.493   0.005  1.00  0.00     0.018 A 
HETATM    5  C18 UNK     1      -1.509   1.083   0.765  1.00  0.00     0.039 A 
HETATM    6  C19 UNK     1      -0.537  -1.095   0.378  1.00  0.00     0.039 A 
ENDROOT
BRANCH   1   7
HETATM    7  C15 UNK     1       2.058   1.538  -0.382  1.00  0.00     0.182 C 
HETATM    8  O4  UNK     1       2.800   0.974  -1.178  1.00  0.00    -0.288 OA
BRANCH   7   9
HETATM    9  C14 UNK     1       2.398   2.846   0.245  1.00  0.00     0.056 C 
HETATM   10  C10 UNK     1       3.169   3.739  -0.415  1.00  0.00     0.015 C 
BRANCH  10  11
HETATM   11  C7  UNK     1       3.729   3.543  -1.743  1.00  0.00    -0.036 A 
HETATM   12  C8  UNK     1       5.112   3.569  -1.928  1.00  0.00     0.012 A 
HETATM   13  C5  UNK     1       5.649   3.380  -3.201  1.00  0.00     0.008 A 
HETATM   14  C2  UNK     1       4.804   3.165  -4.290  1.00  0.00    -0.055 A 
HETATM   15  C6  UNK     1       3.421   3.139  -4.105  1.00  0.00     0.008 A 
HETATM   16  C9  UNK     1       2.884   3.328  -2.832  1.00  0.00     0.012 A 
BRANCH  14  17
HETATM   17  C1  UNK     1       5.377   2.964  -5.651  1.00  0.00     0.010 C 
HETATM   18  C3  UNK     1       4.943   4.061  -6.641  1.00  0.00     0.015 C 
HETATM   19  C4  UNK     1       5.046   1.576  -6.231  1.00  0.00     0.015 C 
ENDBRANCH  14  17
ENDBRANCH  10  11
ENDBRANCH   7   9
ENDBRANCH   1   7
BRANCH   2  20
HETATM   20  O1  UNK     1      -2.797  -0.895   1.121  1.00  0.00    -0.229 OA
BRANCH  20  21
HETATM   21  S1  UNK     1      -2.885  -2.373   1.822  1.00  0.00     0.304 S 
HETATM   22  O2  UNK     1      -1.922  -2.447   2.904  1.00  0.00    -0.193 OA
HETATM   23  O3  UNK     1      -2.926  -3.370   0.768  1.00  0.00    -0.193 OA
BRANCH  21  24
HETATM   24  C12 UNK     1      -4.472  -2.394   2.598  1.00  0.00     0.110 A 
HETATM   25  C20 UNK     1      -4.756  -1.613   3.719  1.00  0.00     0.058 A 
HETATM   26 Cl1  UNK     1      -3.576  -0.568   4.425  1.00  0.00    -0.083 Cl
HETATM   27  C23 UNK     1      -6.023  -1.661   4.299  1.00  0.00     0.027 A 
HETATM   28  C24 UNK     1      -7.007  -2.490   3.759  1.00  0.00     0.025 A 
HETATM   29  C22 UNK     1      -6.723  -3.271   2.639  1.00  0.00     0.035 A 
HETATM   30  C21 UNK     1      -5.455  -3.223   2.059  1.00  0.00     0.051 A 
HETATM   31 Cl2  UNK     1      -7.937  -4.292   1.973  1.00  0.00    -0.084 Cl
ENDBRANCH  21  24
ENDBRANCH  20  21
ENDBRANCH   2  20
TORSDOF 7
