REMARK  7 active torsions:
REMARK  status: ('A' for Active; 'I' for Inactive)
REMARK    1  A    between atoms: C15_24  and  O3_5 
REMARK    2  A    between atoms: C20_29  and  O3_5 
REMARK    3  A    between atoms: C5_14  and  N1_7 
REMARK    4  A    between atoms: C6_15  and  N2_8 
REMARK    5  A    between atoms: C17_26  and  N3_9 
REMARK       I    between atoms: C9_18  and  N3_9 
REMARK    6  A    between atoms: C5_14  and  C7_16 
REMARK    7  A    between atoms: C6_15  and  C9_18 
ROOT
HETATM    1  N1  UNK     1       1.634   0.263  -0.104  1.00  0.00     0.096 N 
HETATM    2  N2  UNK     1      -0.533  -0.316   1.720  1.00  0.00     0.100 N 
HETATM    3  C1  UNK     1       1.795   0.423   1.346  1.00  0.00     0.303 C 
HETATM    4  C2  UNK     1       0.650  -0.785  -0.399  1.00  0.00     0.303 C 
HETATM    5  C3  UNK     1       0.450   0.734   2.013  1.00  0.00     0.303 C 
HETATM    6  C4  UNK     1      -0.694  -0.476   0.269  1.00  0.00     0.303 C 
ENDROOT
BRANCH   1   7
HETATM    7  C5  UNK     1       2.916  -0.036  -0.739  1.00  0.00     0.312 C 
BRANCH   7   8
HETATM    8  C7  UNK     1       3.742   1.187  -0.941  1.00  0.00    -0.011 A 
HETATM    9  C10 UNK     1       4.601   1.605  -0.001  1.00  0.00     0.092 A 
HETATM   10  C13 UNK     1       5.438   2.807  -0.155  1.00  0.00     0.288 A 
HETATM   11  O1  UNK     1       5.303   3.512  -1.340  1.00  0.00    -0.275 OA
HETATM   12  O4  UNK     1       6.213   3.160   0.727  1.00  0.00    -0.260 OA
HETATM   13  C11 UNK     1       4.408   3.098  -2.347  1.00  0.00     0.090 A 
HETATM   14  C8  UNK     1       3.621   1.956  -2.187  1.00  0.00     0.009 A 
HETATM   15  C14 UNK     1       4.354   3.885  -3.498  1.00  0.00     0.041 A 
HETATM   16  C12 UNK     1       2.755   1.612  -3.233  1.00  0.00     0.051 A 
HETATM   17  C15 UNK     1       2.690   2.391  -4.394  1.00  0.00     0.069 A 
HETATM   18  C16 UNK     1       3.488   3.526  -4.526  1.00  0.00     0.039 A 
BRANCH  17  19
HETATM   19  O3  UNK     1       1.841   2.039  -5.399  1.00  0.00    -0.351 OA
BRANCH  19  20
HETATM   20  C20 UNK     1       1.562   0.649  -5.555  1.00  0.00     0.171 C 
HETATM   21  C24 UNK     1       1.263   0.366  -7.011  1.00  0.00     0.034 C 
ENDBRANCH  19  20
ENDBRANCH  17  19
ENDBRANCH   7   8
ENDBRANCH   1   7
BRANCH   2  22
HETATM   22  C6  UNK     1      -1.815  -0.019   2.355  1.00  0.00     0.375 C 
BRANCH  22  23
HETATM   23  C9  UNK     1      -2.632  -1.295   2.465  1.00  0.00     0.250 C 
HETATM   24  O2  UNK     1      -2.117  -2.401   2.592  1.00  0.00    -0.271 OA
HETATM   25  N3  UNK     1      -3.993  -1.001   2.406  1.00  0.00    -0.323 N 
HETATM   26  H15 UNK     1      -4.266  -0.026   2.309  1.00  0.00     0.169 HD
BRANCH  25  27
HETATM   27  C17 UNK     1      -5.076  -1.910   2.474  1.00  0.00     0.076 A 
HETATM   28  C18 UNK     1      -6.388  -1.443   2.399  1.00  0.00     0.143 A 
HETATM   29  F1  UNK     1      -6.637  -0.132   2.264  1.00  0.00    -0.204 F 
HETATM   30  C22 UNK     1      -7.453  -2.341   2.466  1.00  0.00     0.047 A 
HETATM   31  C23 UNK     1      -7.207  -3.706   2.608  1.00  0.00     0.045 A 
HETATM   32  C21 UNK     1      -5.895  -4.174   2.683  1.00  0.00     0.118 A 
HETATM   33  C19 UNK     1      -4.829  -3.276   2.615  1.00  0.00     0.074 A 
HETATM   34  F2  UNK     1      -5.658  -5.485   2.818  1.00  0.00    -0.206 F 
ENDBRANCH  25  27
ENDBRANCH  22  23
ENDBRANCH   2  22
TORSDOF 7
