REMARK  2 active torsions:
REMARK  status: ('A' for Active; 'I' for Inactive)
REMARK    1  A    between atoms: C8_13  and  O3_3 
REMARK    2  A    between atoms: C15_20  and  O4_4 
ROOT
HETATM    1  O1  UNK     1       1.404   0.131  -0.494  1.00  0.00    -0.306 OA
HETATM    2  O2  UNK     1      -2.152  -1.570   2.749  1.00  0.00    -0.275 OA
HETATM    3  O5  UNK     1      -0.596  -1.215   4.386  1.00  0.00    -0.260 OA
HETATM    4  C1  UNK     1      -0.500  -0.059   0.997  1.00  0.00     0.017 A 
HETATM    5  C2  UNK     1       0.395   0.703   0.218  1.00  0.00     0.088 A 
HETATM    6  C3  UNK     1      -1.774  -0.633   0.528  1.00  0.00     0.014 A 
HETATM    7  C4  UNK     1       1.486   2.366  -0.817  1.00  0.00     0.003 A 
HETATM    8  C5  UNK     1       2.069   1.140  -1.124  1.00  0.00     0.119 A 
HETATM    9  C6  UNK     1       0.403   2.071   0.053  1.00  0.00     0.052 A 
HETATM   10  C7  UNK     1      -2.557  -1.368   1.416  1.00  0.00     0.090 A 
HETATM   11  C8  UNK     1       3.174   0.987  -1.959  1.00  0.00     0.102 A 
HETATM   12  C9  UNK     1      -0.144  -0.271   2.276  1.00  0.00     0.097 A 
HETATM   13  C10 UNK     1       2.038   3.531  -1.378  1.00  0.00     0.014 A 
HETATM   14  C11 UNK     1      -2.243  -0.474  -0.783  1.00  0.00     0.051 A 
HETATM   15  C12 UNK     1      -3.773  -1.939   1.037  1.00  0.00     0.041 A 
HETATM   16  C13 UNK     1       3.706   2.159  -2.506  1.00  0.00     0.040 A 
HETATM   17  C14 UNK     1       3.150   3.409  -2.222  1.00  0.00     0.004 A 
HETATM   18  C15 UNK     1      -3.459  -1.041  -1.178  1.00  0.00     0.066 A 
HETATM   19  C16 UNK     1      -0.961  -1.046   3.227  1.00  0.00     0.289 A 
HETATM   20  C17 UNK     1      -4.223  -1.772  -0.269  1.00  0.00     0.039 A 
ENDROOT
BRANCH  18  21
HETATM   21  O4  UNK     1      -3.900  -0.876  -2.456  1.00  0.00    -0.361 OA
HETATM   22  H12 UNK     1      -4.754  -1.331  -2.556  1.00  0.00     0.217 HD
ENDBRANCH  18  21
BRANCH  11  23
HETATM   23  O3  UNK     1       3.719  -0.231  -2.238  1.00  0.00    -0.353 OA
HETATM   24  C18 UNK     1       3.205  -0.925  -3.371  1.00  0.00     0.210 C 
ENDBRANCH  11  23
TORSDOF 2
