REMARK  9 active torsions:
REMARK  status: ('A' for Active; 'I' for Inactive)
REMARK    1  A    between atoms: C9_20  and  S1_1 
REMARK    2  A    between atoms: N1_10  and  S1_1 
REMARK    3  A    between atoms: C12_23  and  O2_3 
REMARK    4  A    between atoms: C17_28  and  O2_3 
REMARK    5  A    between atoms: C6_17  and  N1_10 
REMARK    6  A    between atoms: C25_36  and  N2_11 
REMARK    7  A    between atoms: C1_12  and  C7_18 
REMARK    8  A    between atoms: C6_17  and  C8_19 
REMARK    9  A    between atoms: C17_28  and  C8_19 
ROOT
HETATM    1  O1  UNK     1      -1.320   0.974  -0.087  1.00  0.00    -0.313 OA
HETATM    2  O3  UNK     1      -2.489  -2.916  -0.317  1.00  0.00    -0.286 OA
HETATM    3  C1  UNK     1      -2.617  -0.843   0.844  1.00  0.00     0.054 A 
HETATM    4  C2  UNK     1      -1.228  -1.158  -1.234  1.00  0.00     0.049 A 
HETATM    5  C3  UNK     1      -0.865   0.178  -1.103  1.00  0.00     0.092 A 
HETATM    6  C4  UNK     1      -2.140  -1.744  -0.244  1.00  0.00     0.198 A 
HETATM    7  C5  UNK     1      -2.186   0.436   0.857  1.00  0.00     0.065 A 
HETATM    8  C10 UNK     1       0.001   0.760  -2.030  1.00  0.00     0.075 A 
HETATM    9  C11 UNK     1      -0.730  -1.924  -2.293  1.00  0.00     0.021 A 
HETATM   10  C12 UNK     1       0.499   0.000  -3.088  1.00  0.00     0.082 A 
HETATM   11  C13 UNK     1       0.134  -1.340  -3.219  1.00  0.00     0.038 A 
HETATM   12  C14 UNK     1      -2.576   1.461   1.886  1.00  0.00     0.077 C 
ENDROOT
BRANCH  10  13
HETATM   13  O2  UNK     1       1.344   0.566  -3.993  1.00  0.00    -0.279 OA
BRANCH  13  14
HETATM   14  C17 UNK     1       2.707   0.463  -3.656  1.00  0.00     0.265 C 
HETATM   15  O6  UNK     1       3.144  -0.068  -2.644  1.00  0.00    -0.265 OA
BRANCH  14  16
HETATM   16  C8  UNK     1       3.542   1.125  -4.733  1.00  0.00     0.132 C 
BRANCH  16  17
HETATM   17  C6  UNK     1       4.330   2.322  -4.219  1.00  0.00     0.142 C 
BRANCH  17  18
HETATM   18  N1  UNK     1       3.408   3.338  -3.662  1.00  0.00    -0.315 N 
HETATM   19  H5  UNK     1       2.662   3.665  -4.289  1.00  0.00     0.172 HD
BRANCH  18  20
HETATM   20  S1  UNK     1       3.927   4.355  -2.404  1.00  0.00     0.258 S 
HETATM   21  O4  UNK     1       3.140   5.573  -2.412  1.00  0.00    -0.201 OA
HETATM   22  O5  UNK     1       5.376   4.422  -2.423  1.00  0.00    -0.201 OA
BRANCH  20  23
HETATM   23  C9  UNK     1       3.474   3.422  -0.972  1.00  0.00     0.079 A 
HETATM   24  C18 UNK     1       4.381   2.525  -0.434  1.00  0.00     0.026 A 
HETATM   25  C21 UNK     1       4.023   1.790   0.696  1.00  0.00     0.008 A 
HETATM   26  C20 UNK     1       2.764   1.963   1.270  1.00  0.00    -0.062 A 
HETATM   27  C22 UNK     1       1.862   2.871   0.715  1.00  0.00     0.008 A 
HETATM   28  C26 UNK     1       2.381   1.178   2.479  1.00  0.00     0.048 C 
HETATM   29  C19 UNK     1       2.220   3.606  -0.415  1.00  0.00     0.026 A 
ENDBRANCH  20  23
ENDBRANCH  18  20
ENDBRANCH  17  18
ENDBRANCH  16  17
ENDBRANCH  14  16
ENDBRANCH  13  14
ENDBRANCH  10  13
BRANCH   3  30
HETATM   30  C7  UNK     1      -3.526  -1.366   1.856  1.00  0.00    -0.019 A 
HETATM   31  C15 UNK     1      -3.017  -1.938   3.019  1.00  0.00     0.015 A 
HETATM   32  C23 UNK     1      -3.888  -2.436   3.988  1.00  0.00     0.037 A 
HETATM   33  C25 UNK     1      -5.267  -2.360   3.792  1.00  0.00     0.102 A 
HETATM   34  C24 UNK     1      -5.775  -1.786   2.626  1.00  0.00     0.037 A 
HETATM   35  C16 UNK     1      -4.904  -1.289   1.657  1.00  0.00     0.015 A 
BRANCH  33  36
HETATM   36  N2  UNK     1      -6.155  -2.867   4.777  1.00  0.00    -0.116 N 
HETATM   37  O7  UNK     1      -5.678  -3.380   5.819  1.00  0.00    -0.532 OA
HETATM   38  O8  UNK     1      -7.391  -2.788   4.581  1.00  0.00    -0.532 OA
ENDBRANCH  33  36
ENDBRANCH   3  30
TORSDOF 9
