REMARK  3 active torsions:
REMARK  status: ('A' for Active; 'I' for Inactive)
REMARK    1  A    between atoms: C12_18  and  N1_5 
REMARK    2  A    between atoms: C2_8  and  N1_5 
REMARK    3  A    between atoms: C4_10  and  C6_12 
ROOT
HETATM    1  S1  UNK     1       0.809   0.099   3.135  1.00  0.00    -0.061 SA
HETATM    2  N2  UNK     1      -0.015   0.039   0.685  1.00  0.00    -0.223 NA
HETATM    3  C6  UNK     1       1.179   0.734   0.708  1.00  0.00     0.082 A 
HETATM    4  C12 UNK     1      -0.303  -0.341   1.907  1.00  0.00     0.171 A 
HETATM    5  C17 UNK     1       1.773   0.870   1.945  1.00  0.00     0.086 A 
ENDROOT
BRANCH   3   6
HETATM    6  C4  UNK     1       1.713   1.261  -0.523  1.00  0.00     0.070 A 
HETATM    7  C15 UNK     1       0.754   1.661  -1.597  1.00  0.00     0.301 A 
HETATM    8  O1  UNK     1       1.296   2.147  -2.783  1.00  0.00    -0.274 OA
HETATM    9  O2  UNK     1      -0.462   1.575  -1.452  1.00  0.00    -0.259 OA
HETATM   10  C8  UNK     1       2.683   2.288  -2.972  1.00  0.00     0.089 A 
HETATM   11  C20 UNK     1       3.126   2.796  -4.191  1.00  0.00     0.039 A 
HETATM   12  C5  UNK     1       3.568   1.929  -1.964  1.00  0.00     0.000 A 
HETATM   13  C22 UNK     1       4.494   2.948  -4.403  1.00  0.00     0.022 A 
HETATM   14  C21 UNK     1       5.399   2.593  -3.400  1.00  0.00     0.011 A 
HETATM   15 Br1  UNK     1       7.256   2.796  -3.695  1.00  0.00    -0.051 Br
HETATM   16  C16 UNK     1       4.939   2.084  -2.183  1.00  0.00     0.033 A 
HETATM   17  C7  UNK     1       3.034   1.402  -0.719  1.00  0.00     0.034 A 
ENDBRANCH   3   6
BRANCH   4  18
HETATM   18  N1  UNK     1      -1.417  -1.053   2.244  1.00  0.00    -0.334 N 
HETATM   19  H2  UNK     1      -1.553  -1.227   3.235  1.00  0.00     0.168 HD
BRANCH  18  20
HETATM   20  C2  UNK     1      -2.402  -1.643   1.414  1.00  0.00     0.045 A 
HETATM   21  C1  UNK     1      -3.697  -1.913   1.886  1.00  0.00     0.001 A 
HETATM   22  C3  UNK     1      -4.642  -2.503   1.014  1.00  0.00    -0.024 A 
HETATM   23  C10 UNK     1      -4.074  -1.609   3.204  1.00  0.00     0.014 A 
HETATM   24  C11 UNK     1      -4.265  -2.807  -0.304  1.00  0.00     0.012 A 
HETATM   25  C13 UNK     1      -5.937  -2.773   1.486  1.00  0.00     0.012 A 
HETATM   26  C14 UNK     1      -2.974  -2.532  -0.756  1.00  0.00     0.003 A 
HETATM   27  C9  UNK     1      -2.044  -1.952   0.101  1.00  0.00     0.030 A 
HETATM   28  C19 UNK     1      -6.295  -2.465   2.799  1.00  0.00     0.001 A 
HETATM   29  C18 UNK     1      -5.365  -1.884   3.656  1.00  0.00     0.001 A 
ENDBRANCH  18  20
ENDBRANCH   4  18
TORSDOF 3
