REMARK  9 active torsions:
REMARK  status: ('A' for Active; 'I' for Inactive)
REMARK    1  A    between atoms: C11_19  and  O2_2 
REMARK    2  A    between atoms: C15_23  and  O2_2 
REMARK    3  A    between atoms: N1_6  and  N2_7 
REMARK    4  A    between atoms: C27_35  and  N2_7 
REMARK    5  A    between atoms: C30_38  and  N3_8 
REMARK    6  A    between atoms: C2_10  and  C4_12 
REMARK    7  A    between atoms: C4_12  and  C7_15 
REMARK    8  A    between atoms: C15_23  and  C16_24 
REMARK    9  A    between atoms: C16_24  and  C17_25 
ROOT
HETATM    1  C15 UNK     1      -0.696  -1.506   0.789  1.00  0.00     0.237 C 
ENDROOT
BRANCH   1   2
HETATM    2  O2  UNK     1      -0.858  -0.313   0.022  1.00  0.00    -0.345 OA
BRANCH   2   3
HETATM    3  C11 UNK     1       0.106  -0.029  -0.893  1.00  0.00     0.071 A 
HETATM    4  C10 UNK     1       0.394   1.291  -1.220  1.00  0.00     0.075 A 
HETATM    5  C5  UNK     1       1.389   1.561  -2.164  1.00  0.00     0.092 A 
HETATM    6  C3  UNK     1       2.115   0.556  -2.795  1.00  0.00     0.005 A 
HETATM    7  O1  UNK     1       1.623   2.914  -2.452  1.00  0.00    -0.274 OA
HETATM    8  C1  UNK     1       3.149   0.933  -3.781  1.00  0.00    -0.036 A 
HETATM    9  C8  UNK     1       1.803  -0.770  -2.454  1.00  0.00     0.017 A 
HETATM   10  C2  UNK     1       3.341   2.237  -4.075  1.00  0.00     0.029 A 
HETATM   11  C9  UNK     1       3.949  -0.189  -4.395  1.00  0.00     0.050 C 
HETATM   12  C6  UNK     1       2.568   3.310  -3.384  1.00  0.00     0.295 A 
HETATM   13  O3  UNK     1       2.756   4.500  -3.615  1.00  0.00    -0.259 OA
HETATM   14  C12 UNK     1       0.809  -1.059  -1.511  1.00  0.00     0.038 A 
BRANCH  10  15
HETATM   15  C4  UNK     1       4.314   2.755  -5.103  1.00  0.00     0.084 C 
BRANCH  15  16
HETATM   16  C7  UNK     1       5.535   3.357  -4.473  1.00  0.00    -0.054 A 
HETATM   17  C13 UNK     1       6.169   2.695  -3.428  1.00  0.00     0.007 A 
HETATM   18  C18 UNK     1       7.304   3.255  -2.842  1.00  0.00     0.001 A 
HETATM   19  C20 UNK     1       7.799   4.474  -3.305  1.00  0.00     0.000 A 
HETATM   20  C19 UNK     1       7.158   5.133  -4.354  1.00  0.00     0.001 A 
HETATM   21  C14 UNK     1       6.023   4.573  -4.940  1.00  0.00     0.007 A 
ENDBRANCH  15  16
ENDBRANCH  10  15
ENDBRANCH   2   3
ENDBRANCH   1   2
BRANCH   1  22
HETATM   22  C16 UNK     1      -1.418  -1.357   2.121  1.00  0.00     0.089 C 
HETATM   23  N1  UNK     1      -2.666  -1.665   2.321  1.00  0.00    -0.176 NA
BRANCH  23  24
HETATM   24  N2  UNK     1      -3.379  -2.113   1.271  1.00  0.00    -0.278 N 
HETATM   25  H23 UNK     1      -3.020  -2.075   0.325  1.00  0.00     0.189 HD
BRANCH  24  26
HETATM   26  C27 UNK     1      -4.730  -2.461   1.424  1.00  0.00     0.050 A 
HETATM   27  C28 UNK     1      -5.488  -2.844   0.314  1.00  0.00     0.033 A 
HETATM   28  C31 UNK     1      -6.830  -3.193   0.467  1.00  0.00     0.038 A 
HETATM   29  C30 UNK     1      -7.420  -3.160   1.731  1.00  0.00     0.103 A 
HETATM   30  C32 UNK     1      -6.668  -2.778   2.841  1.00  0.00     0.038 A 
HETATM   31  C29 UNK     1      -5.326  -2.429   2.689  1.00  0.00     0.033 A 
BRANCH  29  32
HETATM   32  N3  UNK     1      -8.787  -3.513   1.884  1.00  0.00    -0.116 N 
HETATM   33  O4  UNK     1      -9.445  -3.851   0.871  1.00  0.00    -0.532 OA
HETATM   34  O5  UNK     1      -9.299  -3.477   3.030  1.00  0.00    -0.532 OA
ENDBRANCH  29  32
ENDBRANCH  24  26
ENDBRANCH  23  24
BRANCH  22  35
HETATM   35  C17 UNK     1      -0.637  -0.835   3.279  1.00  0.00    -0.008 A 
HETATM   36  C21 UNK     1       0.400   0.038   3.038  1.00  0.00     0.014 A 
HETATM   37  C24 UNK     1       1.129   0.527   4.122  1.00  0.00     0.007 A 
HETATM   38  C23 UNK     1       0.801   0.131   5.418  1.00  0.00    -0.062 A 
HETATM   39  C26 UNK     1       1.581   0.654   6.577  1.00  0.00     0.048 C 
HETATM   40  C25 UNK     1      -0.256  -0.754   5.631  1.00  0.00     0.007 A 
HETATM   41  C22 UNK     1      -0.985  -1.243   4.548  1.00  0.00     0.014 A 
ENDBRANCH  22  35
ENDBRANCH   1  22
TORSDOF 9
