REMARK  3 active torsions:
REMARK  status: ('A' for Active; 'I' for Inactive)
REMARK       I    between atoms: C5_10  and  N1_5 
REMARK    1  A    between atoms: C8_13  and  N1_5 
REMARK    2  A    between atoms: C2_7  and  C5_10 
REMARK    3  A    between atoms: C12_17  and  C8_13 
ROOT
HETATM    1  O1  UNK     1       0.089   0.399  -2.081  1.00  0.00    -0.274 OA
HETATM    2  O3  UNK     1      -1.815  -0.596  -1.304  1.00  0.00    -0.259 OA
HETATM    3  C1  UNK     1       1.819   1.071  -0.511  1.00  0.00    -0.001 A 
HETATM    4  C2  UNK     1      -0.198   0.015   0.317  1.00  0.00     0.108 A 
HETATM    5  C3  UNK     1       1.345   0.978  -1.816  1.00  0.00     0.089 A 
HETATM    6  C4  UNK     1       0.995   0.563   0.575  1.00  0.00     0.037 A 
HETATM    7  C6  UNK     1       3.070   1.651  -0.288  1.00  0.00     0.014 A 
HETATM    8  C7  UNK     1      -0.722  -0.096  -1.064  1.00  0.00     0.304 A 
HETATM    9  C9  UNK     1       2.085   1.446  -2.900  1.00  0.00     0.038 A 
HETATM   10  C10 UNK     1       3.824   2.125  -1.366  1.00  0.00     0.001 A 
HETATM   11  C11 UNK     1       3.332   2.022  -2.669  1.00  0.00     0.003 A 
ENDROOT
BRANCH   4  12
HETATM   12  C5  UNK     1      -0.955  -0.468   1.478  1.00  0.00     0.257 C 
HETATM   13  O2  UNK     1      -0.831   0.065   2.578  1.00  0.00    -0.267 OA
HETATM   14  N1  UNK     1      -1.774  -1.542   1.177  1.00  0.00    -0.356 N 
HETATM   15  H5  UNK     1      -1.790  -1.926   0.238  1.00  0.00     0.162 HD
BRANCH  14  16
HETATM   16  C8  UNK     1      -2.614  -2.191   2.158  1.00  0.00     0.137 C 
BRANCH  16  17
HETATM   17  C12 UNK     1      -3.981  -1.531   2.202  1.00  0.00     0.134 C 
HETATM   18 Cl1  UNK     1      -4.802  -1.636   0.624  1.00  0.00    -0.129 Cl
ENDBRANCH  16  17
ENDBRANCH  14  16
ENDBRANCH   4  12
TORSDOF 3
