REMARK  7 active torsions:
REMARK  status: ('A' for Active; 'I' for Inactive)
REMARK    1  A    between atoms: C5_11  and  N1_4 
REMARK    2  A    between atoms: C6_12  and  N2_5 
REMARK    3  A    between atoms: C18_24  and  N3_6 
REMARK       I    between atoms: C9_15  and  N3_6 
REMARK    4  A    between atoms: C5_11  and  C7_13 
REMARK    5  A    between atoms: C6_12  and  C9_15 
REMARK    6  A    between atoms: C13_19  and  C17_23 
REMARK    7  A    between atoms: C22_28  and  C23_29 
ROOT
HETATM    1  N1  UNK     1       1.406   1.441  -0.107  1.00  0.00     0.096 N 
HETATM    2  N2  UNK     1      -0.175  -0.262   1.613  1.00  0.00     0.100 N 
HETATM    3  C1  UNK     1      -0.049   1.605  -0.001  1.00  0.00     0.303 C 
HETATM    4  C2  UNK     1       1.954   0.900   1.143  1.00  0.00     0.303 C 
HETATM    5  C3  UNK     1      -0.723   0.277   0.362  1.00  0.00     0.303 C 
HETATM    6  C4  UNK     1       1.280  -0.427   1.506  1.00  0.00     0.303 C 
ENDROOT
BRANCH   1   7
HETATM    7  C5  UNK     1       2.048   2.708  -0.451  1.00  0.00     0.312 C 
BRANCH   7   8
HETATM    8  C7  UNK     1       3.378   2.510  -1.091  1.00  0.00    -0.011 A 
HETATM    9  C10 UNK     1       4.497   2.443  -0.356  1.00  0.00     0.092 A 
HETATM   10  C14 UNK     1       5.833   2.248  -0.944  1.00  0.00     0.288 A 
HETATM   11  O1  UNK     1       5.896   2.132  -2.324  1.00  0.00    -0.275 OA
HETATM   12  O3  UNK     1       6.835   2.190  -0.239  1.00  0.00    -0.260 OA
HETATM   13  C11 UNK     1       4.736   2.198  -3.122  1.00  0.00     0.090 A 
HETATM   14  C8  UNK     1       3.477   2.384  -2.551  1.00  0.00     0.007 A 
HETATM   15  C15 UNK     1       4.919   2.069  -4.500  1.00  0.00     0.039 A 
HETATM   16  C12 UNK     1       2.374   2.439  -3.414  1.00  0.00     0.022 A 
HETATM   17  C13 UNK     1       2.541   2.312  -4.798  1.00  0.00    -0.058 A 
HETATM   18  C16 UNK     1       3.812   2.127  -5.340  1.00  0.00     0.010 A 
BRANCH  17  19
HETATM   19  C17 UNK     1       1.352   2.374  -5.698  1.00  0.00     0.034 C 
HETATM   20  C20 UNK     1       0.734   0.999  -5.937  1.00  0.00     0.010 C 
ENDBRANCH  17  19
ENDBRANCH   7   8
ENDBRANCH   1   7
BRANCH   2  21
HETATM   21  C6  UNK     1      -0.818  -1.528   1.958  1.00  0.00     0.375 C 
BRANCH  21  22
HETATM   22  C9  UNK     1      -2.195  -1.255   2.537  1.00  0.00     0.250 C 
HETATM   23  O2  UNK     1      -2.461  -0.229   3.156  1.00  0.00    -0.271 OA
HETATM   24  N3  UNK     1      -3.056  -2.313   2.253  1.00  0.00    -0.326 N 
HETATM   25  H15 UNK     1      -2.681  -3.101   1.728  1.00  0.00     0.169 HD
BRANCH  24  26
HETATM   26  C18 UNK     1      -4.418  -2.440   2.616  1.00  0.00     0.035 A 
HETATM   27  C19 UNK     1      -5.136  -3.577   2.246  1.00  0.00     0.036 A 
HETATM   28  C22 UNK     1      -6.478  -3.701   2.604  1.00  0.00    -0.056 A 
HETATM   29  C25 UNK     1      -7.102  -2.689   3.335  1.00  0.00     0.007 A 
HETATM   30  C24 UNK     1      -6.383  -1.552   3.706  1.00  0.00     0.003 A 
HETATM   31  C21 UNK     1      -5.041  -1.428   3.347  1.00  0.00     0.029 A 
BRANCH  28  32
HETATM   32  C23 UNK     1      -7.247  -4.915   2.208  1.00  0.00     0.034 C 
HETATM   33  C26 UNK     1      -7.927  -4.755   0.850  1.00  0.00     0.010 C 
ENDBRANCH  28  32
ENDBRANCH  24  26
ENDBRANCH  21  22
ENDBRANCH   2  21
TORSDOF 7
