REMARK  1 active torsions:
REMARK  status: ('A' for Active; 'I' for Inactive)
REMARK    1  A    between atoms: C8_13  and  N1_4 
ROOT
HETATM    1  O1  UNK     1       5.358   1.010  -2.018  1.00  0.00    -0.268 OA
HETATM    2  N1  UNK     1      -0.801  -0.231  -0.742  1.00  0.00    -0.379 N 
HETATM    3  N2  UNK     1       3.045   1.268  -1.855  1.00  0.00    -0.317 N 
HETATM    4  C1  UNK     1       1.284  -0.675  -2.290  1.00  0.00     0.023 C 
HETATM    5  C2  UNK     1       0.678   1.439  -1.615  1.00  0.00     0.054 C 
HETATM    6  C3  UNK     1       0.631   0.549  -2.866  1.00  0.00     0.020 C 
HETATM    7  C4  UNK     1       0.359  -1.157  -1.094  1.00  0.00     0.129 C 
HETATM    8  C5  UNK     1      -0.652   1.261  -0.920  1.00  0.00     0.133 C 
HETATM    9  C6  UNK     1       2.763  -0.230  -1.909  1.00  0.00     0.138 C 
HETATM   10  C7  UNK     1       1.960   2.168  -1.698  1.00  0.00     0.020 A 
HETATM   11  C9  UNK     1       2.146   3.489  -1.618  1.00  0.00     0.026 A 
HETATM   12  C10 UNK     1       4.365   1.728  -1.913  1.00  0.00     0.247 A 
HETATM   13  C12 UNK     1       3.482   4.016  -1.702  1.00  0.00     0.007 A 
HETATM   14  C13 UNK     1       4.542   3.211  -1.840  1.00  0.00     0.074 A 
ENDROOT
BRANCH   2  15
HETATM   15  C8  UNK     1      -1.926  -0.733  -0.149  1.00  0.00     0.049 A 
HETATM   16  C11 UNK     1      -1.961  -0.923   1.313  1.00  0.00     0.025 A 
HETATM   17  C15 UNK     1      -3.122  -1.438   1.896  1.00  0.00     0.092 A 
HETATM   18  C16 UNK     1      -0.895  -0.618   2.174  1.00  0.00     0.023 A 
HETATM   19  O2  UNK     1      -4.246  -1.774   1.116  1.00  0.00    -0.275 OA
HETATM   20  C19 UNK     1      -3.243  -1.649   3.271  1.00  0.00     0.039 A 
HETATM   21  C17 UNK     1      -4.247  -1.610  -0.258  1.00  0.00     0.290 A 
HETATM   22  C14 UNK     1      -3.017  -1.066  -0.857  1.00  0.00     0.113 A 
HETATM   23  O3  UNK     1      -5.218  -1.897  -0.949  1.00  0.00    -0.260 OA
HETATM   24  C20 UNK     1      -2.173  -1.340   4.103  1.00  0.00     0.009 A 
HETATM   25  C18 UNK     1      -1.001  -0.825   3.555  1.00  0.00    -0.061 A 
HETATM   26  C21 UNK     1       0.149  -0.491   4.446  1.00  0.00     0.048 C 
ENDBRANCH   2  15
TORSDOF 1
