REMARK  3 active torsions:
REMARK  status: ('A' for Active; 'I' for Inactive)
REMARK    1  A    between atoms: C3_8  and  N1_4 
REMARK       I    between atoms: C8_13  and  N1_4 
REMARK    2  A    between atoms: C3_8  and  C6_11 
REMARK    3  A    between atoms: C4_9  and  C8_13 
ROOT
HETATM    1  O1  UNK     1       1.315   0.187  -0.337  1.00  0.00    -0.304 OA
HETATM    2  O2  UNK     1       1.328   2.248  -3.856  1.00  0.00    -0.287 OA
HETATM    3  C1  UNK     1       2.391   1.812  -1.789  1.00  0.00     0.048 A 
HETATM    4  C2  UNK     1       2.327   1.076  -0.605  1.00  0.00     0.090 A 
HETATM    5  C4  UNK     1       0.330   0.028  -1.288  1.00  0.00     0.147 A 
HETATM    6  C5  UNK     1       1.333   1.634  -2.798  1.00  0.00     0.187 A 
HETATM    7  C7  UNK     1       0.268   0.668  -2.462  1.00  0.00     0.098 A 
HETATM    8  C9  UNK     1       3.444   2.703  -2.009  1.00  0.00     0.018 A 
HETATM    9  C10 UNK     1       3.317   1.227   0.366  1.00  0.00     0.038 A 
HETATM   10  C11 UNK     1       4.433   2.853  -1.036  1.00  0.00     0.001 A 
HETATM   11  C12 UNK     1       4.370   2.117   0.149  1.00  0.00     0.003 A 
ENDROOT
BRANCH   5  12
HETATM   12  C8  UNK     1      -0.739  -0.925  -0.983  1.00  0.00     0.275 C 
HETATM   13  O3  UNK     1      -1.658  -1.124  -1.778  1.00  0.00    -0.265 OA
HETATM   14  N1  UNK     1      -0.586  -1.534   0.251  1.00  0.00    -0.351 N 
HETATM   15  H4  UNK     1       0.206  -1.282   0.836  1.00  0.00     0.163 HD
BRANCH  14  16
HETATM   16  C3  UNK     1      -1.516  -2.509   0.773  1.00  0.00     0.161 C 
BRANCH  16  17
HETATM   17  C6  UNK     1      -2.615  -1.867   1.570  1.00  0.00    -0.038 A 
HETATM   18  C13 UNK     1      -3.783  -1.472   0.939  1.00  0.00     0.028 A 
HETATM   19  C15 UNK     1      -4.765  -0.884   1.719  1.00  0.00     0.116 A 
HETATM   20  N2  UNK     1      -4.651  -0.676   3.050  1.00  0.00    -0.273 NA
HETATM   21  C16 UNK     1      -3.494  -1.077   3.624  1.00  0.00     0.116 A 
HETATM   22  C14 UNK     1      -2.452  -1.674   2.933  1.00  0.00     0.028 A 
ENDBRANCH  16  17
ENDBRANCH  14  16
ENDBRANCH   5  12
TORSDOF 3
