REMARK  5 active torsions:
REMARK  status: ('A' for Active; 'I' for Inactive)
REMARK    1  A    between atoms: C9_15  and  O2_2 
REMARK    2  A    between atoms: C10_16  and  O4_4 
REMARK    3  A    between atoms: C12_18  and  O5_5 
REMARK    4  A    between atoms: C3_9  and  C5_11 
REMARK    5  A    between atoms: C12_18  and  C5_11 
ROOT
HETATM    1  O1  UNK     1      -0.539   0.269  -1.713  1.00  0.00    -0.271 OA
HETATM    2  O3  UNK     1      -2.680  -0.447  -1.475  1.00  0.00    -0.259 OA
HETATM    3  C1  UNK     1      -0.301   0.312   1.108  1.00  0.00    -0.036 A 
HETATM    4  C2  UNK     1       0.833   0.709   0.248  1.00  0.00     0.007 A 
HETATM    5  C3  UNK     1      -1.473  -0.042   0.539  1.00  0.00     0.034 A 
HETATM    6  C4  UNK     1       0.674   0.673  -1.134  1.00  0.00     0.126 A 
HETATM    7  C6  UNK     1       2.077   1.138   0.737  1.00  0.00     0.018 A 
HETATM    8  C7  UNK     1      -1.632  -0.093  -0.943  1.00  0.00     0.295 A 
HETATM    9  C8  UNK     1      -0.061   0.315   2.597  1.00  0.00     0.050 C 
HETATM   10  C9  UNK     1       1.694   1.033  -2.019  1.00  0.00     0.134 A 
HETATM   11  C10 UNK     1       2.919   1.449  -1.512  1.00  0.00     0.101 A 
HETATM   12  C11 UNK     1       3.110   1.503  -0.134  1.00  0.00     0.040 A 
ENDROOT
BRANCH   5  13
HETATM   13  C5  UNK     1      -2.724  -0.406   1.298  1.00  0.00     0.155 C 
BRANCH  13  14
HETATM   14  C12 UNK     1      -2.744  -1.883   1.568  1.00  0.00     0.143 C 
HETATM   15  O6  UNK     1      -1.896  -2.707   1.256  1.00  0.00    -0.650 OA
BRANCH  14  16
HETATM   16  O5  UNK     1      -3.887  -2.198   2.231  1.00  0.00    -0.776 OA
HETATM   17  H10 UNK     1      -3.944  -3.157   2.427  1.00  0.00     0.167 HD
ENDBRANCH  14  16
ENDBRANCH  13  14
ENDBRANCH   5  13
BRANCH  10  18
HETATM   18  O2  UNK     1       1.493   0.978  -3.365  1.00  0.00    -0.356 OA
HETATM   19  H8  UNK     1       2.310   1.264  -3.810  1.00  0.00     0.218 HD
ENDBRANCH  10  18
BRANCH  11  20
HETATM   20  O4  UNK     1       3.934   1.807  -2.346  1.00  0.00    -0.358 OA
HETATM   21  H9  UNK     1       4.705   2.067  -1.813  1.00  0.00     0.217 HD
ENDBRANCH  11  20
TORSDOF 5
