REMARK  5 active torsions:
REMARK  status: ('A' for Active; 'I' for Inactive)
REMARK    1  A    between atoms: C16_23  and  O2_3 
REMARK    2  A    between atoms: C4_11  and  O2_3 
REMARK    3  A    between atoms: C6_13  and  N1_7 
REMARK       I    between atoms: C8_15  and  N1_7 
REMARK    4  A    between atoms: C2_9  and  C8_15 
REMARK    5  A    between atoms: C16_23  and  C7_14 
ROOT
HETATM    1  O3  UNK     1      -0.570   1.000  -2.054  1.00  0.00    -0.267 OA
HETATM    2  N1  UNK     1      -0.035   0.078   0.046  1.00  0.00    -0.323 N 
HETATM    3  C8  UNK     1       0.203   0.792  -1.120  1.00  0.00     0.262 C 
HETATM    4  H3  UNK     1       0.724  -0.020   0.716  1.00  0.00     0.169 HD
ENDROOT
BRANCH   2   5
HETATM    5  C6  UNK     1      -1.231  -0.576   0.429  1.00  0.00     0.035 A 
HETATM    6  C11 UNK     1      -2.325  -0.535  -0.418  1.00  0.00     0.030 A 
HETATM    7  C13 UNK     1      -3.504  -1.178  -0.040  1.00  0.00     0.020 A 
HETATM    8  C7  UNK     1      -3.571  -1.852   1.179  1.00  0.00     0.039 A 
HETATM    9  C14 UNK     1      -2.459  -1.883   2.020  1.00  0.00     0.020 A 
HETATM   10  C12 UNK     1      -1.280  -1.241   1.643  1.00  0.00     0.030 A 
BRANCH   8  11
HETATM   11  C16 UNK     1      -4.800  -2.524   1.572  1.00  0.00     0.293 C 
HETATM   12  O5  UNK     1      -5.833  -2.550   0.890  1.00  0.00    -0.259 OA
BRANCH  11  13
HETATM   13  O2  UNK     1      -4.674  -3.129   2.793  1.00  0.00    -0.313 OA
BRANCH  13  14
HETATM   14  C4  UNK     1      -5.861  -3.237   3.586  1.00  0.00     0.124 C 
HETATM   15  C17 UNK     1      -5.532  -3.961   4.883  1.00  0.00     0.040 C 
HETATM   16  C18 UNK     1      -6.423  -1.847   3.840  1.00  0.00     0.040 C 
ENDBRANCH  13  14
ENDBRANCH  11  13
ENDBRANCH   8  11
ENDBRANCH   2   5
BRANCH   3  17
HETATM   17  C2  UNK     1       1.567   1.333  -1.170  1.00  0.00     0.108 A 
HETATM   18  C10 UNK     1       2.308   1.707   0.056  1.00  0.00     0.304 A 
HETATM   19  O1  UNK     1       3.595   2.208  -0.120  1.00  0.00    -0.274 OA
HETATM   20  O4  UNK     1       1.819   1.583   1.173  1.00  0.00    -0.259 OA
HETATM   21  C3  UNK     1       4.167   2.355  -1.399  1.00  0.00     0.089 A 
HETATM   22  C1  UNK     1       3.452   1.998  -2.538  1.00  0.00     0.000 A 
HETATM   23  C15 UNK     1       5.461   2.866  -1.475  1.00  0.00     0.039 A 
HETATM   24  C5  UNK     1       2.105   1.470  -2.387  1.00  0.00     0.037 A 
HETATM   25  C9  UNK     1       4.053   2.159  -3.789  1.00  0.00     0.033 A 
HETATM   26  C19 UNK     1       5.351   2.670  -3.881  1.00  0.00     0.011 A 
HETATM   27 Br1  UNK     1       6.160   2.886  -5.576  1.00  0.00    -0.051 Br
HETATM   28  C20 UNK     1       6.053   3.023  -2.726  1.00  0.00     0.022 A 
ENDBRANCH   3  17
TORSDOF 5
