REMARK  3 active torsions:
REMARK  status: ('A' for Active; 'I' for Inactive)
REMARK    1  A    between atoms: C16_24  and  O2_4 
REMARK       I    between atoms: C11_19  and  N1_7 
REMARK    2  A    between atoms: C5_13  and  N1_7 
REMARK    3  A    between atoms: C11_19  and  C6_14 
ROOT
HETATM    1  S1  UNK     1      -0.448   0.884   2.778  1.00  0.00    -0.075 SA
HETATM    2  N2  UNK     1      -1.426  -1.896  -1.372  1.00  0.00    -0.191 NA
HETATM    3  C1  UNK     1      -2.236  -0.767   1.956  1.00  0.00     0.011 A 
HETATM    4  C2  UNK     1      -1.899   0.015   3.039  1.00  0.00    -0.006 A 
HETATM    5  C3  UNK     1      -3.428  -1.579   1.976  1.00  0.00    -0.023 A 
HETATM    6  C4  UNK     1      -1.290  -0.650   0.897  1.00  0.00     0.090 A 
HETATM    7  C5  UNK     1      -0.289   0.208   1.227  1.00  0.00     0.099 A 
HETATM    8  C8  UNK     1      -3.366  -2.885   2.452  1.00  0.00     0.015 A 
HETATM    9  C9  UNK     1      -4.632  -1.050   1.521  1.00  0.00     0.015 A 
HETATM   10  C10 UNK     1      -2.603   0.185   4.333  1.00  0.00     0.057 C 
HETATM   11  C14 UNK     1      -4.518  -3.671   2.471  1.00  0.00     0.037 A 
HETATM   12  C15 UNK     1      -5.785  -1.836   1.541  1.00  0.00     0.037 A 
HETATM   13  C16 UNK     1      -5.728  -3.146   2.016  1.00  0.00     0.068 A 
HETATM   14  C20 UNK     1      -1.365  -1.338  -0.356  1.00  0.00     0.103 C 
ENDROOT
BRANCH   7  15
HETATM   15  N1  UNK     1       0.835   0.616   0.503  1.00  0.00    -0.316 N 
HETATM   16  C11 UNK     1       0.926   0.718  -0.878  1.00  0.00     0.262 C 
HETATM   17  O3  UNK     1       0.066   0.478  -1.723  1.00  0.00    -0.267 OA
HETATM   18  H1  UNK     1       1.549   1.065   1.072  1.00  0.00     0.170 HD
BRANCH  16  19
HETATM   19  C6  UNK     1       2.252   1.178  -1.307  1.00  0.00     0.108 A 
HETATM   20  C12 UNK     1       2.295   1.884  -2.443  1.00  0.00     0.037 A 
HETATM   21  C7  UNK     1       3.564   2.382  -2.950  1.00  0.00     0.001 A 
HETATM   22  C13 UNK     1       4.727   2.113  -2.235  1.00  0.00     0.089 A 
HETATM   23  C18 UNK     1       3.656   3.123  -4.131  1.00  0.00     0.038 A 
HETATM   24  O1  UNK     1       4.675   1.369  -1.039  1.00  0.00    -0.274 OA
HETATM   25  C19 UNK     1       5.974   2.561  -2.665  1.00  0.00     0.040 A 
HETATM   26  C17 UNK     1       3.476   0.879  -0.530  1.00  0.00     0.304 A 
HETATM   27  O4  UNK     1       3.441   0.232   0.511  1.00  0.00    -0.259 OA
HETATM   28  C22 UNK     1       6.056   3.299  -3.844  1.00  0.00     0.026 A 
HETATM   29  C21 UNK     1       4.900   3.580  -4.575  1.00  0.00     0.035 A 
HETATM   30 Cl1  UNK     1       5.008   4.491  -6.032  1.00  0.00    -0.084 Cl
ENDBRANCH  16  19
ENDBRANCH   7  15
BRANCH  13  31
HETATM   31  O2  UNK     1      -6.853  -3.912   2.036  1.00  0.00    -0.356 OA
HETATM   32  C23 UNK     1      -8.055  -3.313   1.556  1.00  0.00     0.210 C 
ENDBRANCH  13  31
TORSDOF 3
