REMARK  0 active torsions:
REMARK  status: ('A' for Active; 'I' for Inactive)
ROOT
HETATM    1  O1  UNK     1       1.271   0.604   1.174  1.00  0.00    -0.322 OA
HETATM    2  O2  UNK     1       0.351   0.631  -2.801  1.00  0.00    -0.287 OA
HETATM    3  C1  UNK     1      -0.307   0.071  -0.597  1.00  0.00     0.048 A 
HETATM    4  C2  UNK     1       0.070   0.092   0.747  1.00  0.00     0.089 A 
HETATM    5  C3  UNK     1      -1.542  -0.462  -0.975  1.00  0.00     0.018 A 
HETATM    6  C4  UNK     1       0.617   0.619  -1.607  1.00  0.00     0.186 A 
HETATM    7  C5  UNK     1      -0.788  -0.420   1.721  1.00  0.00     0.038 A 
HETATM    8  C6  UNK     1      -2.397  -0.974   0.001  1.00  0.00     0.001 A 
HETATM    9  C7  UNK     1      -2.022  -0.953   1.346  1.00  0.00     0.003 A 
HETATM   10  C8  UNK     1       1.893   1.155  -1.096  1.00  0.00     0.080 A 
HETATM   11  C9  UNK     1       2.119   1.110   0.219  1.00  0.00     0.146 A 
ENDROOT
TORSDOF 0
