REMARK  2 active torsions:
REMARK  status: ('A' for Active; 'I' for Inactive)
REMARK    1  A    between atoms: C1_5  and  N1_4 
REMARK       I    between atoms: C8_12  and  N1_4 
REMARK    2  A    between atoms: C8_12  and  C9_13 
ROOT
HETATM    1  O2  UNK     1       0.646   1.213  -2.440  1.00  0.00    -0.274 OA
HETATM    2  O3  UNK     1      -1.428   0.851  -1.552  1.00  0.00    -0.259 OA
HETATM    3  C9  UNK     1       0.383   0.925  -0.026  1.00  0.00     0.108 A 
HETATM    4  C10 UNK     1       1.700   1.076   0.162  1.00  0.00     0.037 A 
HETATM    5  C11 UNK     1      -0.222   0.988  -1.375  1.00  0.00     0.304 A 
HETATM    6  C12 UNK     1       2.581   1.310  -0.972  1.00  0.00    -0.001 A 
HETATM    7  C13 UNK     1       2.032   1.373  -2.249  1.00  0.00     0.089 A 
HETATM    8  C14 UNK     1       3.960   1.473  -0.822  1.00  0.00     0.014 A 
HETATM    9  C15 UNK     1       2.820   1.594  -3.376  1.00  0.00     0.038 A 
HETATM   10  C16 UNK     1       4.764   1.695  -1.944  1.00  0.00     0.001 A 
HETATM   11  C17 UNK     1       4.195   1.756  -3.218  1.00  0.00     0.003 A 
ENDROOT
BRANCH   3  12
HETATM   12  C8  UNK     1      -0.425   0.693   1.184  1.00  0.00     0.258 C 
HETATM   13  O1  UNK     1      -0.080   1.158   2.265  1.00  0.00    -0.267 OA
HETATM   14  N1  UNK     1      -1.545  -0.071   0.933  1.00  0.00    -0.352 N 
HETATM   15  H14 UNK     1      -1.692  -0.461   0.007  1.00  0.00     0.163 HD
BRANCH  14  16
HETATM   16  C1  UNK     1      -2.487  -0.432   1.961  1.00  0.00     0.084 C 
HETATM   17  C2  UNK     1      -3.933  -0.475   1.456  1.00  0.00     0.025 C 
HETATM   18  C4  UNK     1      -4.265  -1.509   0.384  1.00  0.00     0.002 C 
HETATM   19  C6  UNK     1      -3.941  -2.954   0.752  1.00  0.00     0.000 C 
HETATM   20  C7  UNK     1      -2.451  -3.263   0.673  1.00  0.00     0.000 C 
HETATM   21  C5  UNK     1      -1.635  -2.902   1.909  1.00  0.00     0.002 C 
HETATM   22  C3  UNK     1      -2.071  -1.689   2.729  1.00  0.00     0.025 C 
ENDBRANCH  14  16
ENDBRANCH   3  12
TORSDOF 2
