REMARK  6 active torsions:
REMARK  status: ('A' for Active; 'I' for Inactive)
REMARK    1  A    between atoms: C10_17  and  O1_2 
REMARK    2  A    between atoms: C6_13  and  O1_2 
REMARK       I    between atoms: C14_21  and  N1_7 
REMARK    3  A    between atoms: C5_12  and  N1_7 
REMARK    4  A    between atoms: C1_8  and  C4_11 
REMARK    5  A    between atoms: C2_9  and  C6_13 
REMARK    6  A    between atoms: C14_21  and  C15_22 
ROOT
HETATM    1  S1  UNK     1       0.484   0.582   2.451  1.00  0.00    -0.075 SA
HETATM    2  C1  UNK     1      -1.642  -0.791   2.012  1.00  0.00     0.006 A 
HETATM    3  C2  UNK     1      -1.087  -0.503   0.732  1.00  0.00     0.085 A 
HETATM    4  C3  UNK     1      -0.888  -0.260   3.034  1.00  0.00    -0.007 A 
HETATM    5  C5  UNK     1       0.053   0.227   0.846  1.00  0.00     0.094 A 
HETATM    6  C9  UNK     1      -1.108  -0.326   4.499  1.00  0.00     0.057 C 
ENDROOT
BRANCH   5   7
HETATM    7  N1  UNK     1       0.914   0.724  -0.138  1.00  0.00    -0.316 N 
HETATM    8  C14 UNK     1       2.065   1.466   0.083  1.00  0.00     0.262 C 
HETATM    9  O4  UNK     1       2.551   1.830   1.152  1.00  0.00    -0.267 OA
HETATM   10  H3  UNK     1       0.647   0.481  -1.088  1.00  0.00     0.169 HD
BRANCH   8  11
HETATM   11  C15 UNK     1       2.733   1.827  -1.174  1.00  0.00     0.108 A 
HETATM   12  C17 UNK     1       4.063   1.963  -1.119  1.00  0.00     0.037 A 
HETATM   13  C16 UNK     1       4.813   2.319  -2.314  1.00  0.00    -0.001 A 
HETATM   14  C20 UNK     1       4.126   2.514  -3.507  1.00  0.00     0.089 A 
HETATM   15  C23 UNK     1       6.202   2.471  -2.303  1.00  0.00     0.014 A 
HETATM   16  O2  UNK     1       2.726   2.369  -3.559  1.00  0.00    -0.274 OA
HETATM   17  C24 UNK     1       4.785   2.856  -4.686  1.00  0.00     0.038 A 
HETATM   18  C22 UNK     1       1.980   2.029  -2.433  1.00  0.00     0.304 A 
HETATM   19  O5  UNK     1       0.762   1.906  -2.487  1.00  0.00    -0.259 OA
HETATM   20  C26 UNK     1       6.169   3.007  -4.667  1.00  0.00     0.003 A 
HETATM   21  C25 UNK     1       6.877   2.814  -3.478  1.00  0.00     0.001 A 
ENDBRANCH   8  11
ENDBRANCH   5   7
BRANCH   3  22
HETATM   22  C6  UNK     1      -1.637  -0.917  -0.536  1.00  0.00     0.297 C 
HETATM   23  O3  UNK     1      -1.125  -0.647  -1.632  1.00  0.00    -0.259 OA
BRANCH  22  24
HETATM   24  O1  UNK     1      -2.799  -1.650  -0.428  1.00  0.00    -0.313 OA
BRANCH  24  25
HETATM   25  C10 UNK     1      -3.735  -1.541  -1.507  1.00  0.00     0.124 C 
HETATM   26  C18 UNK     1      -4.930  -2.439  -1.226  1.00  0.00     0.040 C 
HETATM   27  C19 UNK     1      -4.145  -0.085  -1.668  1.00  0.00     0.040 C 
ENDBRANCH  24  25
ENDBRANCH  22  24
ENDBRANCH   3  22
BRANCH   2  28
HETATM   28  C4  UNK     1      -2.843  -1.540   2.289  1.00  0.00    -0.024 A 
HETATM   29  C7  UNK     1      -2.772  -2.918   2.473  1.00  0.00     0.013 A 
HETATM   30  C12 UNK     1      -3.934  -3.642   2.741  1.00  0.00     0.007 A 
HETATM   31  C11 UNK     1      -5.161  -2.985   2.824  1.00  0.00    -0.062 A 
HETATM   32  C13 UNK     1      -5.228  -1.604   2.638  1.00  0.00     0.007 A 
HETATM   33  C21 UNK     1      -6.403  -3.759   3.111  1.00  0.00     0.048 C 
HETATM   34  C8  UNK     1      -4.066  -0.880   2.370  1.00  0.00     0.013 A 
ENDBRANCH   2  28
TORSDOF 6
