REMARK  3 active torsions:
REMARK  status: ('A' for Active; 'I' for Inactive)
REMARK    1  A    between atoms: C4_8  and  O2_2 
REMARK    2  A    between atoms: C9_13  and  O4_4 
REMARK    3  A    between atoms: C3_7  and  C5_9 
ROOT
HETATM    1  O1  UNK     1      -0.123   0.769   0.598  1.00  0.00    -0.306 OA
HETATM    2  O3  UNK     1      -1.955  -1.893  -1.884  1.00  0.00    -0.284 OA
HETATM    3  C1  UNK     1      -1.861  -0.889   0.247  1.00  0.00     0.051 A 
HETATM    4  C2  UNK     1      -1.190   0.035   1.046  1.00  0.00     0.093 A 
HETATM    5  C3  UNK     1       0.299   0.592  -0.711  1.00  0.00     0.123 A 
HETATM    6  C4  UNK     1      -0.255  -0.273  -1.580  1.00  0.00     0.152 A 
HETATM    7  C6  UNK     1      -1.410  -1.092  -1.138  1.00  0.00     0.220 A 
HETATM    8  C7  UNK     1      -2.943  -1.610   0.759  1.00  0.00     0.021 A 
HETATM    9  C8  UNK     1      -1.598   0.244   2.364  1.00  0.00     0.074 A 
HETATM   10  C9  UNK     1      -2.678  -0.474   2.878  1.00  0.00     0.068 A 
HETATM   11  C10 UNK     1      -3.349  -1.399   2.077  1.00  0.00     0.037 A 
ENDROOT
BRANCH   5  12
HETATM   12  C5  UNK     1       1.452   1.439  -1.063  1.00  0.00     0.001 A 
HETATM   13  C11 UNK     1       1.246   2.706  -1.610  1.00  0.00     0.014 A 
HETATM   14  C13 UNK     1       2.337   3.508  -1.944  1.00  0.00     0.001 A 
HETATM   15  C15 UNK     1       3.635   3.044  -1.730  1.00  0.00     0.000 A 
HETATM   16  C14 UNK     1       3.842   1.778  -1.182  1.00  0.00     0.001 A 
HETATM   17  C12 UNK     1       2.750   0.975  -0.849  1.00  0.00     0.014 A 
ENDBRANCH   5  12
BRANCH   6  18
HETATM   18  O2  UNK     1       0.210  -0.448  -2.866  1.00  0.00    -0.355 OA
HETATM   19  H9  UNK     1       0.964   0.140  -3.027  1.00  0.00     0.218 HD
ENDBRANCH   6  18
BRANCH  10  20
HETATM   20  O4  UNK     1      -3.078  -0.272   4.164  1.00  0.00    -0.361 OA
HETATM   21  H10 UNK     1      -3.837  -0.851   4.352  1.00  0.00     0.217 HD
ENDBRANCH  10  20
TORSDOF 3
