REMARK  4 active torsions:
REMARK  status: ('A' for Active; 'I' for Inactive)
REMARK    1  A    between atoms: C17_26  and  O3_6 
REMARK       I    between atoms: C14_23  and  N1_8 
REMARK    2  A    between atoms: N1_8  and  N2_9 
REMARK    3  A    between atoms: C11_20  and  C4_13 
REMARK    4  A    between atoms: C10_19  and  C14_23 
ROOT
HETATM    1  O4  UNK     1       0.442   1.092  -2.736  1.00  0.00    -0.266 OA
HETATM    2  N1  UNK     1       1.155   0.743  -0.561  1.00  0.00    -0.243 N 
HETATM    3  C14 UNK     1       1.306   1.172  -1.867  1.00  0.00     0.271 C 
HETATM    4  H8  UNK     1       1.895   0.767   0.132  1.00  0.00     0.192 HD
ENDROOT
BRANCH   2   5
HETATM    5  N2  UNK     1      -0.026   0.190  -0.195  1.00  0.00    -0.183 NA
HETATM    6  C11 UNK     1      -0.061  -0.210   1.035  1.00  0.00     0.156 C 
BRANCH   6   7
HETATM    7  C4  UNK     1      -1.246  -0.835   1.624  1.00  0.00     0.056 A 
HETATM    8  C3  UNK     1      -2.504  -1.067   0.881  1.00  0.00     0.198 A 
HETATM    9  C1  UNK     1      -3.593  -1.707   1.641  1.00  0.00     0.050 A 
HETATM   10  O2  UNK     1      -2.635  -0.747  -0.293  1.00  0.00    -0.286 OA
HETATM   11  C2  UNK     1      -3.379  -2.048   2.978  1.00  0.00     0.089 A 
HETATM   12  C5  UNK     1      -4.825  -1.969   1.036  1.00  0.00     0.042 A 
HETATM   13  O1  UNK     1      -2.190  -1.814   3.623  1.00  0.00    -0.321 OA
HETATM   14  C6  UNK     1      -4.396  -2.655   3.715  1.00  0.00     0.040 A 
HETATM   15  C7  UNK     1      -1.182  -1.215   2.904  1.00  0.00     0.159 A 
HETATM   16  C9  UNK     1      -5.627  -2.918   3.113  1.00  0.00     0.026 A 
HETATM   17  C8  UNK     1      -5.840  -2.576   1.777  1.00  0.00     0.035 A 
HETATM   18 Cl1  UNK     1      -7.362  -2.903   1.040  1.00  0.00    -0.084 Cl
ENDBRANCH   6   7
ENDBRANCH   2   5
BRANCH   3  19
HETATM   19  C10 UNK     1       2.633   1.749  -2.208  1.00  0.00     0.036 A 
HETATM   20  C12 UNK     1       3.101   1.692  -3.521  1.00  0.00     0.039 A 
HETATM   21  C16 UNK     1       4.345   2.234  -3.841  1.00  0.00     0.046 A 
HETATM   22 Br2  UNK     1       4.944   2.137  -5.638  1.00  0.00    -0.048 Br
HETATM   23  C17 UNK     1       5.122   2.833  -2.849  1.00  0.00     0.100 A 
HETATM   24  C15 UNK     1       4.654   2.891  -1.537  1.00  0.00     0.046 A 
HETATM   25 Br1  UNK     1       5.677   3.697  -0.160  1.00  0.00    -0.048 Br
HETATM   26  C13 UNK     1       3.409   2.349  -1.216  1.00  0.00     0.039 A 
BRANCH  23  27
HETATM   27  O3  UNK     1       6.340   3.365  -3.164  1.00  0.00    -0.358 OA
HETATM   28  H9  UNK     1       6.732   3.735  -2.355  1.00  0.00     0.217 HD
ENDBRANCH  23  27
ENDBRANCH   3  19
TORSDOF 4
