REMARK  6 active torsions:
REMARK  status: ('A' for Active; 'I' for Inactive)
REMARK    1  A    between atoms: C5_8  and  O1_1 
REMARK    2  A    between atoms: C9_12  and  O1_1 
REMARK    3  A    between atoms: C1_4  and  C5_8 
REMARK    4  A    between atoms: C17_20  and  C7_10 
REMARK    5  A    between atoms: C13_16  and  C22_25 
REMARK    6  A    between atoms: C22_25  and  C24_27 
ROOT
HETATM    1  O3  UNK     1      -1.286  -1.751  -2.222  1.00  0.00    -0.288 OA
HETATM    2  C22 UNK     1      -0.915  -0.911  -1.410  1.00  0.00     0.182 C 
ENDROOT
BRANCH   2   3
HETATM    3  C13 UNK     1       0.342  -0.162  -1.649  1.00  0.00     0.014 A 
HETATM    4  C19 UNK     1       1.062   0.301  -0.565  1.00  0.00     0.018 A 
HETATM    5  C14 UNK     1       2.244   1.005  -0.790  1.00  0.00     0.038 A 
HETATM    6  C9  UNK     1       2.683   1.233  -2.094  1.00  0.00     0.079 A 
HETATM    7  C15 UNK     1       1.940   0.756  -3.174  1.00  0.00     0.038 A 
HETATM    8  C20 UNK     1       0.757   0.052  -2.949  1.00  0.00     0.018 A 
BRANCH   6   9
HETATM    9  O1  UNK     1       3.837   1.922  -2.314  1.00  0.00    -0.278 OA
BRANCH   9  10
HETATM   10  C5  UNK     1       3.671   3.315  -2.439  1.00  0.00     0.271 C 
HETATM   11  O2  UNK     1       2.593   3.894  -2.360  1.00  0.00    -0.264 OA
BRANCH  10  12
HETATM   12  C1  UNK     1       5.016   4.009  -2.683  1.00  0.00     0.037 C 
HETATM   13  C2  UNK     1       5.643   3.471  -3.976  1.00  0.00     0.025 C 
HETATM   14  C3  UNK     1       4.801   5.525  -2.781  1.00  0.00     0.025 C 
HETATM   15  C4  UNK     1       5.963   3.715  -1.509  1.00  0.00     0.025 C 
ENDBRANCH  10  12
ENDBRANCH   9  10
ENDBRANCH   6   9
ENDBRANCH   2   3
BRANCH   2  16
HETATM   16  C24 UNK     1      -1.697  -0.577  -0.187  1.00  0.00     0.056 C 
HETATM   17  C17 UNK     1      -2.863  -1.206   0.062  1.00  0.00     0.016 C 
BRANCH  17  18
HETATM   18  C7  UNK     1      -3.722  -0.950   1.217  1.00  0.00    -0.025 A 
HETATM   19  C11 UNK     1      -4.684   0.049   1.065  1.00  0.00     0.012 A 
HETATM   20  C18 UNK     1      -5.542   0.355   2.118  1.00  0.00     0.002 A 
HETATM   21  C12 UNK     1      -5.441  -0.337   3.325  1.00  0.00     0.012 A 
HETATM   22  C8  UNK     1      -4.479  -1.346   3.495  1.00  0.00    -0.025 A 
HETATM   23  C16 UNK     1      -4.364  -2.053   4.702  1.00  0.00     0.012 A 
HETATM   24  C6  UNK     1      -3.606  -1.657   2.425  1.00  0.00    -0.016 A 
HETATM   25  C23 UNK     1      -3.402  -3.052   4.853  1.00  0.00     0.001 A 
HETATM   26  C21 UNK     1      -2.544  -3.358   3.801  1.00  0.00     0.001 A 
HETATM   27  C10 UNK     1      -2.644  -2.665   2.594  1.00  0.00     0.013 A 
ENDBRANCH  17  18
ENDBRANCH   2  16
TORSDOF 6
