REMARK  4 active torsions:
REMARK  status: ('A' for Active; 'I' for Inactive)
REMARK    1  A    between atoms: C14_19  and  O1_3 
REMARK    2  A    between atoms: C8_13  and  O1_3 
REMARK    3  A    between atoms: C6_11  and  C7_12 
REMARK    4  A    between atoms: C14_19  and  C16_21 
ROOT
HETATM    1  I1  UNK     1       2.770  -4.811  -0.822  1.00  0.00    -0.042 I 
HETATM    2  I2  UNK     1      -0.978  -2.732  -5.014  1.00  0.00    -0.045 I 
HETATM    3  C7  UNK     1      -0.475  -1.904  -0.794  1.00  0.00     0.001 A 
HETATM    4  C8  UNK     1       0.572  -2.720  -0.399  1.00  0.00     0.096 A 
HETATM    5  C11 UNK     1      -0.928  -1.896  -2.104  1.00  0.00     0.032 A 
HETATM    6  C15 UNK     1       1.184  -3.550  -1.339  1.00  0.00     0.042 A 
HETATM    7  C17 UNK     1      -0.316  -2.726  -3.044  1.00  0.00     0.008 A 
HETATM    8  C18 UNK     1       0.740  -3.553  -2.661  1.00  0.00     0.039 A 
ENDROOT
BRANCH   3   9
HETATM    9  C6  UNK     1      -1.142  -1.015   0.177  1.00  0.00     0.034 C 
HETATM   10  C1  UNK     1      -0.781   0.234   0.469  1.00  0.00     0.067 A 
HETATM   11  C4  UNK     1      -1.467   1.111   1.452  1.00  0.00     0.197 A 
HETATM   12  C5  UNK     1       0.366   0.953  -0.140  1.00  0.00     0.197 A 
HETATM   13  C2  UNK     1      -0.705   2.367   1.415  1.00  0.00     0.029 A 
HETATM   14  O2  UNK     1      -2.436   0.861   2.135  1.00  0.00    -0.286 OA
HETATM   15  C3  UNK     1       0.349   2.277   0.500  1.00  0.00     0.029 A 
HETATM   16  C9  UNK     1      -0.933   3.517   2.147  1.00  0.00     0.016 A 
HETATM   17  C10 UNK     1       1.212   3.333   0.283  1.00  0.00     0.016 A 
HETATM   18  C13 UNK     1       0.994   4.503   1.016  1.00  0.00     0.001 A 
HETATM   19  C12 UNK     1      -0.067   4.594   1.938  1.00  0.00     0.001 A 
HETATM   20  O3  UNK     1       1.147   0.554  -0.976  1.00  0.00    -0.286 OA
ENDBRANCH   3   9
BRANCH   4  21
HETATM   21  O1  UNK     1       0.998  -2.706   0.899  1.00  0.00    -0.344 OA
BRANCH  21  22
HETATM   22  C14 UNK     1       0.374  -3.623   1.792  1.00  0.00     0.214 C 
BRANCH  22  23
HETATM   23  C16 UNK     1       0.948  -3.437   3.165  1.00  0.00    -0.034 A 
HETATM   24  C19 UNK     1       2.064  -4.172   3.551  1.00  0.00     0.009 A 
HETATM   25  C21 UNK     1       2.597  -3.999   4.828  1.00  0.00     0.001 A 
HETATM   26  C23 UNK     1       2.011  -3.093   5.712  1.00  0.00     0.000 A 
HETATM   27  C22 UNK     1       0.892  -2.360   5.318  1.00  0.00     0.001 A 
HETATM   28  C20 UNK     1       0.358  -2.532   4.041  1.00  0.00     0.009 A 
ENDBRANCH  22  23
ENDBRANCH  21  22
ENDBRANCH   4  21
TORSDOF 4
