REMARK  2 active torsions:
REMARK  status: ('A' for Active; 'I' for Inactive)
REMARK    1  A    between atoms: C10_15  and  O3_4 
REMARK    2  A    between atoms: C10_15  and  C6_11 
ROOT
HETATM    1 Cl1  UNK     1       3.708   2.148  -2.360  1.00  0.00    -0.084 Cl
HETATM    2  O1  UNK     1      -0.355  -0.160   1.214  1.00  0.00    -0.303 OA
HETATM    3  O2  UNK     1      -1.165  -0.078  -2.782  1.00  0.00    -0.287 OA
HETATM    4  C1  UNK     1       0.349   0.428  -1.037  1.00  0.00     0.050 A 
HETATM    5  C2  UNK     1       0.563   0.369   0.341  1.00  0.00     0.090 A 
HETATM    6  C3  UNK     1      -0.913  -0.098  -1.585  1.00  0.00     0.187 A 
HETATM    7  C4  UNK     1       1.319   0.977  -1.878  1.00  0.00     0.042 A 
HETATM    8  C5  UNK     1       1.750   0.861   0.885  1.00  0.00     0.040 A 
HETATM    9  C6  UNK     1      -1.533  -0.649   0.690  1.00  0.00     0.153 A 
HETATM   10  C7  UNK     1      -1.867  -0.656  -0.606  1.00  0.00     0.100 A 
HETATM   11  C8  UNK     1       2.505   1.468  -1.332  1.00  0.00     0.035 A 
HETATM   12  C9  UNK     1       2.720   1.411   0.046  1.00  0.00     0.026 A 
ENDROOT
BRANCH   9  13
HETATM   13  C10 UNK     1      -2.499  -1.210   1.637  1.00  0.00     0.201 C 
HETATM   14  O4  UNK     1      -3.579  -1.678   1.326  1.00  0.00    -0.645 OA
BRANCH  13  15
HETATM   15  O3  UNK     1      -2.006  -1.124   2.891  1.00  0.00    -0.771 OA
HETATM   16  H5  UNK     1      -2.627  -1.490   3.557  1.00  0.00     0.167 HD
ENDBRANCH  13  15
ENDBRANCH   9  13
TORSDOF 2
