REMARK  5 active torsions:
REMARK  status: ('A' for Active; 'I' for Inactive)
REMARK    1  A    between atoms: C7_13  and  O2_2 
REMARK    2  A    between atoms: C5_11  and  O3_3 
REMARK    3  A    between atoms: C11_17  and  O4_4 
REMARK    4  A    between atoms: C14_20  and  O5_5 
REMARK    5  A    between atoms: C1_7  and  C2_8 
ROOT
HETATM    1  O1  UNK     1       0.218  -1.625   0.409  1.00  0.00    -0.306 OA
HETATM    2  O6  UNK     1       1.205  -2.647   4.228  1.00  0.00    -0.284 OA
HETATM    3  C1  UNK     1       0.245  -0.683   1.426  1.00  0.00     0.126 A 
HETATM    4  C3  UNK     1       0.895  -3.335   1.994  1.00  0.00     0.051 A 
HETATM    5  C4  UNK     1       0.546  -2.922   0.710  1.00  0.00     0.093 A 
HETATM    6  C5  UNK     1       0.554  -0.953   2.707  1.00  0.00     0.152 A 
HETATM    7  C6  UNK     1       0.913  -2.343   3.080  1.00  0.00     0.220 A 
HETATM    8  C8  UNK     1       0.518  -3.844  -0.336  1.00  0.00     0.075 A 
HETATM    9  C9  UNK     1       1.219  -4.671   2.242  1.00  0.00     0.021 A 
HETATM   10  C11 UNK     1       0.841  -5.179  -0.093  1.00  0.00     0.070 A 
HETATM   11  C13 UNK     1       1.191  -5.592   1.194  1.00  0.00     0.038 A 
ENDROOT
BRANCH   3  12
HETATM   12  C2  UNK     1      -0.128   0.667   0.968  1.00  0.00     0.034 A 
HETATM   13  C10 UNK     1      -1.473   1.043   0.989  1.00  0.00     0.020 A 
HETATM   14  C15 UNK     1      -1.851   2.315   0.561  1.00  0.00     0.038 A 
HETATM   15  C14 UNK     1      -0.885   3.215   0.110  1.00  0.00     0.070 A 
HETATM   16  C12 UNK     1       0.459   2.842   0.088  1.00  0.00     0.074 A 
HETATM   17  C7  UNK     1       0.837   1.569   0.516  1.00  0.00     0.084 A 
BRANCH  15  18
HETATM   18  O5  UNK     1      -1.254   4.456  -0.308  1.00  0.00    -0.356 OA
HETATM   19  C18 UNK     1      -2.644   4.771  -0.259  1.00  0.00     0.210 C 
ENDBRANCH  15  18
BRANCH  17  20
HETATM   20  O2  UNK     1       2.157   1.230   0.484  1.00  0.00    -0.355 OA
HETATM   21  C16 UNK     1       2.641   0.629  -0.715  1.00  0.00     0.210 C 
ENDBRANCH  17  20
ENDBRANCH   3  12
BRANCH   6  22
HETATM   22  O3  UNK     1       0.540   0.001   3.702  1.00  0.00    -0.355 OA
HETATM   23  H7  UNK     1       0.289   0.862   3.329  1.00  0.00     0.218 HD
ENDBRANCH   6  22
BRANCH  10  24
HETATM   24  O4  UNK     1       0.816  -6.083  -1.111  1.00  0.00    -0.356 OA
HETATM   25  C17 UNK     1       0.450  -5.596  -2.401  1.00  0.00     0.210 C 
ENDBRANCH  10  24
TORSDOF 5
