REMARK  6 active torsions:
REMARK  status: ('A' for Active; 'I' for Inactive)
REMARK    1  A    between atoms: C15_19  and  O3_3 
REMARK    2  A    between atoms: C16_20  and  O3_3 
REMARK    3  A    between atoms: C1_5  and  C2_6 
REMARK    4  A    between atoms: C1_5  and  C3_7 
REMARK    5  A    between atoms: C2_6  and  C4_8 
REMARK    6  A    between atoms: C3_7  and  C6_10 
ROOT
HETATM    1  O1  UNK     1      -0.825   0.441  -1.760  1.00  0.00    -0.274 OA
HETATM    2  O2  UNK     1      -2.908  -0.440  -1.571  1.00  0.00    -0.259 OA
HETATM    3  C4  UNK     1      -1.789   0.067   0.470  1.00  0.00     0.024 A 
HETATM    4  C5  UNK     1      -0.664   0.515   1.066  1.00  0.00    -0.037 A 
HETATM    5  C7  UNK     1       0.456   0.999   0.232  1.00  0.00     0.005 A 
HETATM    6  C8  UNK     1       0.337   0.943  -1.153  1.00  0.00     0.093 A 
HETATM    7  C9  UNK     1      -1.905  -0.002  -1.015  1.00  0.00     0.295 A 
HETATM    8  C10 UNK     1      -0.462   0.543   2.561  1.00  0.00     0.050 C 
HETATM    9  C11 UNK     1       1.649   1.528   0.750  1.00  0.00     0.017 A 
HETATM   10  C13 UNK     1       1.348   1.379  -2.014  1.00  0.00     0.075 A 
HETATM   11  C14 UNK     1       2.672   1.970  -0.097  1.00  0.00     0.038 A 
HETATM   12  C15 UNK     1       2.522   1.894  -1.479  1.00  0.00     0.081 A 
ENDROOT
BRANCH   3  13
HETATM   13  C2  UNK     1      -3.026  -0.393   1.199  1.00  0.00     0.045 C 
BRANCH  13  14
HETATM   14  C1  UNK     1      -3.009  -1.884   1.518  1.00  0.00     0.005 C 
BRANCH  14  15
HETATM   15  C3  UNK     1      -4.226  -2.343   2.328  1.00  0.00    -0.000 C 
BRANCH  15  16
HETATM   16  C6  UNK     1      -4.147  -3.837   2.646  1.00  0.00    -0.005 C 
HETATM   17  C12 UNK     1      -5.330  -4.291   3.486  1.00  0.00     0.005 C 
ENDBRANCH  15  16
ENDBRANCH  14  15
ENDBRANCH  13  14
ENDBRANCH   3  13
BRANCH  12  18
HETATM   18  O3  UNK     1       3.518   2.324  -2.299  1.00  0.00    -0.279 OA
BRANCH  18  19
HETATM   19  C16 UNK     1       4.453   1.331  -2.637  1.00  0.00     0.260 C 
HETATM   20  O4  UNK     1       4.429   0.168  -2.258  1.00  0.00    -0.265 OA
HETATM   21  C17 UNK     1       5.506   1.902  -3.540  1.00  0.00     0.126 C 
ENDBRANCH  18  19
ENDBRANCH  12  18
TORSDOF 6
