REMARK  6 active torsions:
REMARK  status: ('A' for Active; 'I' for Inactive)
REMARK       I    between atoms: C10_14  and  N1_4 
REMARK    1  A    between atoms: C5_9  and  N1_4 
REMARK    2  A    between atoms: C1_5  and  C2_6 
REMARK    3  A    between atoms: C1_5  and  C3_7 
REMARK    4  A    between atoms: C1_5  and  C4_8 
REMARK    5  A    between atoms: C2_6  and  C5_9 
REMARK    6  A    between atoms: C10_14  and  C15_19 
ROOT
HETATM    1  O2  UNK     1      -0.352   3.154  -1.119  1.00  0.00    -0.267 OA
HETATM    2  N1  UNK     1      -0.023   1.510   0.500  1.00  0.00    -0.357 N 
HETATM    3  C10 UNK     1       0.313   2.249  -0.619  1.00  0.00     0.257 C 
HETATM    4  H10 UNK     1       0.608   0.796   0.851  1.00  0.00     0.162 HD
ENDROOT
BRANCH   2   5
HETATM    5  C5  UNK     1      -1.243   1.720   1.246  1.00  0.00     0.124 C 
BRANCH   5   6
HETATM    6  C2  UNK     1      -2.403   0.865   0.729  1.00  0.00     0.034 C 
BRANCH   6   7
HETATM    7  C1  UNK     1      -2.162  -0.665   0.832  1.00  0.00     0.053 C 
BRANCH   7   8
HETATM    8  C3  UNK     1      -3.214  -1.490   0.095  1.00  0.00    -0.050 A 
HETATM    9  C6  UNK     1      -2.849  -2.708  -0.435  1.00  0.00     0.008 A 
HETATM   10  C11 UNK     1      -3.810  -3.462  -1.108  1.00  0.00     0.001 A 
HETATM   11  C16 UNK     1      -5.113  -2.979  -1.234  1.00  0.00     0.000 A 
HETATM   12  C13 UNK     1      -5.454  -1.742  -0.687  1.00  0.00     0.001 A 
HETATM   13  C8  UNK     1      -4.492  -0.988  -0.014  1.00  0.00     0.008 A 
ENDBRANCH   7   8
BRANCH   7  14
HETATM   14  C4  UNK     1      -1.977  -1.157   2.262  1.00  0.00    -0.050 A 
HETATM   15  C7  UNK     1      -1.178  -2.259   2.489  1.00  0.00     0.008 A 
HETATM   16  C12 UNK     1      -1.009  -2.710   3.798  1.00  0.00     0.001 A 
HETATM   17  C17 UNK     1      -1.642  -2.048   4.850  1.00  0.00     0.000 A 
HETATM   18  C14 UNK     1      -2.444  -0.936   4.594  1.00  0.00     0.001 A 
HETATM   19  C9  UNK     1      -2.613  -0.485   3.284  1.00  0.00     0.008 A 
ENDBRANCH   7  14
ENDBRANCH   6   7
ENDBRANCH   5   6
ENDBRANCH   2   5
BRANCH   3  20
HETATM   20  C15 UNK     1       1.601   1.851  -1.200  1.00  0.00     0.108 A 
HETATM   21  C18 UNK     1       2.290   2.813  -1.826  1.00  0.00     0.037 A 
HETATM   22  C19 UNK     1       3.577   2.516  -2.434  1.00  0.00    -0.001 A 
HETATM   23  C20 UNK     1       4.076   1.220  -2.353  1.00  0.00     0.089 A 
HETATM   24  C22 UNK     1       4.331   3.488  -3.096  1.00  0.00     0.014 A 
HETATM   25  O1  UNK     1       3.347   0.212  -1.694  1.00  0.00    -0.274 OA
HETATM   26  C23 UNK     1       5.303   0.869  -2.915  1.00  0.00     0.038 A 
HETATM   27  C21 UNK     1       2.112   0.466  -1.102  1.00  0.00     0.304 A 
HETATM   28  O3  UNK     1       1.484  -0.419  -0.531  1.00  0.00    -0.259 OA
HETATM   29  C25 UNK     1       6.047   1.845  -3.574  1.00  0.00     0.003 A 
HETATM   30  C24 UNK     1       5.563   3.152  -3.664  1.00  0.00     0.001 A 
ENDBRANCH   3  20
TORSDOF 6
