REMARK  5 active torsions:
REMARK  status: ('A' for Active; 'I' for Inactive)
REMARK    1  A    between atoms: C17_23  and  O2_2 
REMARK    2  A    between atoms: C18_24  and  O2_2 
REMARK    3  A    between atoms: C5_11  and  N1_6 
REMARK       I    between atoms: C6_12  and  N1_6 
REMARK    4  A    between atoms: C2_8  and  C6_12 
REMARK    5  A    between atoms: C10_16  and  C17_23 
ROOT
HETATM    1  O3  UNK     1       0.837   1.049   1.155  1.00  0.00    -0.267 OA
HETATM    2  N1  UNK     1      -0.299   0.024  -0.635  1.00  0.00    -0.323 N 
HETATM    3  C6  UNK     1       0.699   0.782  -0.038  1.00  0.00     0.262 C 
HETATM    4  H3  UNK     1      -0.258  -0.123  -1.641  1.00  0.00     0.169 HD
ENDROOT
BRANCH   2   5
HETATM    5  C5  UNK     1      -1.393  -0.616  -0.003  1.00  0.00     0.035 A 
HETATM    6  C11 UNK     1      -2.293  -1.333  -0.773  1.00  0.00     0.030 A 
HETATM    7  C13 UNK     1      -3.370  -1.965  -0.151  1.00  0.00     0.020 A 
HETATM    8  C10 UNK     1      -3.530  -1.871   1.231  1.00  0.00     0.039 A 
HETATM    9  C14 UNK     1      -2.613  -1.145   1.992  1.00  0.00     0.020 A 
HETATM   10  C12 UNK     1      -1.537  -0.513   1.370  1.00  0.00     0.030 A 
BRANCH   8  11
HETATM   11  C17 UNK     1      -4.652  -2.531   1.880  1.00  0.00     0.293 C 
HETATM   12  O5  UNK     1      -5.516  -3.196   1.308  1.00  0.00    -0.259 OA
BRANCH  11  13
HETATM   13  O2  UNK     1      -4.634  -2.322   3.235  1.00  0.00    -0.318 OA
BRANCH  13  14
HETATM   14  C18 UNK     1      -5.694  -2.927   3.985  1.00  0.00     0.174 C 
HETATM   15  C19 UNK     1      -5.514  -2.593   5.451  1.00  0.00     0.034 C 
ENDBRANCH  13  14
ENDBRANCH  11  13
ENDBRANCH   8  11
ENDBRANCH   2   5
BRANCH   3  16
HETATM   16  C2  UNK     1       1.670   1.288  -1.015  1.00  0.00     0.108 A 
HETATM   17  C4  UNK     1       2.920   1.463  -0.570  1.00  0.00     0.037 A 
HETATM   18  C1  UNK     1       3.953   1.961  -1.464  1.00  0.00    -0.001 A 
HETATM   19  C3  UNK     1       3.620   2.251  -2.783  1.00  0.00     0.089 A 
HETATM   20  C7  UNK     1       5.271   2.159  -1.043  1.00  0.00     0.014 A 
HETATM   21  O1  UNK     1       2.302   2.064  -3.246  1.00  0.00    -0.274 OA
HETATM   22  C9  UNK     1       4.562   2.731  -3.690  1.00  0.00     0.038 A 
HETATM   23  C8  UNK     1       1.292   1.589  -2.414  1.00  0.00     0.304 A 
HETATM   24  O4  UNK     1       0.148   1.430  -2.825  1.00  0.00    -0.259 OA
HETATM   25  C16 UNK     1       5.873   2.926  -3.262  1.00  0.00     0.003 A 
HETATM   26  C15 UNK     1       6.227   2.641  -1.942  1.00  0.00     0.001 A 
ENDBRANCH   3  16
TORSDOF 5
