REMARK  7 active torsions:
REMARK  status: ('A' for Active; 'I' for Inactive)
REMARK    1  A    between atoms: C19_24  and  O3_3 
REMARK    2  A    between atoms: C21_26  and  O3_3 
REMARK    3  A    between atoms: C1_6  and  N1_5 
REMARK    4  A    between atoms: C6_11  and  N1_5 
REMARK    5  A    between atoms: C7_12  and  N1_5 
REMARK    6  A    between atoms: C6_11  and  C8_13 
REMARK    7  A    between atoms: C7_12  and  C9_14 
ROOT
HETATM    1  O2  UNK     1       0.966   0.868  -3.933  1.00  0.00    -0.275 OA
HETATM    2  O4  UNK     1      -0.549  -0.503  -4.959  1.00  0.00    -0.260 OA
HETATM    3  C8  UNK     1       0.476  -0.551  -1.535  1.00  0.00    -0.011 A 
HETATM    4  C10 UNK     1       1.438   0.559  -1.556  1.00  0.00     0.009 A 
HETATM    5  C11 UNK     1      -0.162  -0.879  -2.667  1.00  0.00     0.092 A 
HETATM    6  C13 UNK     1       1.652   1.235  -2.758  1.00  0.00     0.090 A 
HETATM    7  C14 UNK     1       2.161   0.984  -0.434  1.00  0.00     0.051 A 
HETATM    8  C15 UNK     1       0.053  -0.176  -3.943  1.00  0.00     0.288 A 
HETATM    9  C18 UNK     1       2.548   2.300  -2.866  1.00  0.00     0.041 A 
HETATM   10  C19 UNK     1       3.064   2.050  -0.526  1.00  0.00     0.069 A 
HETATM   11  C20 UNK     1       3.256   2.707  -1.740  1.00  0.00     0.039 A 
ENDROOT
BRANCH   3  12
HETATM   12  C6  UNK     1       0.223  -1.299  -0.258  1.00  0.00     0.313 C 
BRANCH  12  13
HETATM   13  N1  UNK     1      -0.857  -0.703   0.510  1.00  0.00     0.103 N 
BRANCH  13  14
HETATM   14  C1  UNK     1      -1.084  -1.442   1.739  1.00  0.00     0.224 C 
HETATM   15  C2  UNK     1      -1.529  -2.878   1.490  1.00  0.00     0.036 C 
HETATM   16  C4  UNK     1      -1.272  -3.571   2.826  1.00  0.00     0.002 C 
HETATM   17  C5  UNK     1      -0.163  -2.768   3.512  1.00  0.00     0.002 C 
HETATM   18  C3  UNK     1       0.189  -1.632   2.555  1.00  0.00     0.036 C 
ENDBRANCH  13  14
BRANCH  13  19
HETATM   19  C7  UNK     1      -2.090  -0.651  -0.281  1.00  0.00     0.337 C 
BRANCH  19  20
HETATM   20  C9  UNK     1      -3.208   0.026   0.467  1.00  0.00     0.081 A 
HETATM   21  C12 UNK     1      -3.321   1.263   0.999  1.00  0.00     0.036 A 
HETATM   22  C16 UNK     1      -4.614   1.298   1.572  1.00  0.00     0.027 A 
HETATM   23  C17 UNK     1      -5.172   0.065   1.332  1.00  0.00     0.142 A 
HETATM   24  O1  UNK     1      -4.305  -0.727   0.648  1.00  0.00    -0.325 OA
ENDBRANCH  19  20
ENDBRANCH  13  19
ENDBRANCH  12  13
ENDBRANCH   3  12
BRANCH  10  25
HETATM   25  O3  UNK     1       3.757   2.448   0.577  1.00  0.00    -0.351 OA
BRANCH  25  26
HETATM   26  C21 UNK     1       3.124   2.262   1.842  1.00  0.00     0.171 C 
HETATM   27  C22 UNK     1       3.613   3.329   2.799  1.00  0.00     0.034 C 
ENDBRANCH  25  26
ENDBRANCH  10  25
TORSDOF 7
