REMARK  4 active torsions:
REMARK  status: ('A' for Active; 'I' for Inactive)
REMARK    1  A    between atoms: C5_12  and  O2_2 
REMARK    2  A    between atoms: C11_18  and  O3_3 
REMARK    3  A    between atoms: C15_22  and  N1_7 
REMARK    4  A    between atoms: C2_9  and  C3_10 
ROOT
HETATM    1  O1  UNK     1       1.639   1.272  -3.134  1.00  0.00    -0.275 OA
HETATM    2  O4  UNK     1       0.030   0.693  -4.651  1.00  0.00    -0.260 OA
HETATM    3  C1  UNK     1       1.257   0.820  -0.768  1.00  0.00     0.042 A 
HETATM    4  C2  UNK     1      -0.056   0.246  -1.100  1.00  0.00    -0.004 A 
HETATM    5  C4  UNK     1       2.062   1.315  -1.792  1.00  0.00     0.096 A 
HETATM    6  C5  UNK     1       1.742   0.895   0.544  1.00  0.00     0.082 A 
HETATM    7  C6  UNK     1      -0.430   0.219  -2.390  1.00  0.00     0.096 A 
HETATM    8  C7  UNK     1       3.317   1.873  -1.545  1.00  0.00     0.075 A 
HETATM    9  C10 UNK     1       2.998   1.452   0.807  1.00  0.00     0.074 A 
HETATM   10  C11 UNK     1       3.784   1.940  -0.236  1.00  0.00     0.071 A 
HETATM   11  C12 UNK     1       0.410   0.737  -3.486  1.00  0.00     0.289 A 
ENDROOT
BRANCH   4  12
HETATM   12  C3  UNK     1      -1.038  -0.319  -0.179  1.00  0.00    -0.025 A 
HETATM   13  C8  UNK     1      -2.012   0.503   0.382  1.00  0.00     0.014 A 
HETATM   14  C13 UNK     1      -2.950  -0.036   1.262  1.00  0.00     0.037 A 
HETATM   15  C15 UNK     1      -2.911  -1.395   1.577  1.00  0.00     0.102 A 
HETATM   16  C14 UNK     1      -1.934  -2.214   1.012  1.00  0.00     0.037 A 
HETATM   17  C9  UNK     1      -0.995  -1.675   0.132  1.00  0.00     0.014 A 
BRANCH  15  18
HETATM   18  N1  UNK     1      -3.866  -1.944   2.473  1.00  0.00    -0.116 N 
HETATM   19  O5  UNK     1      -4.737  -1.189   2.970  1.00  0.00    -0.532 OA
HETATM   20  O6  UNK     1      -3.814  -3.168   2.743  1.00  0.00    -0.532 OA
ENDBRANCH  15  18
ENDBRANCH   4  12
BRANCH   6  21
HETATM   21  O2  UNK     1       1.029   0.438   1.614  1.00  0.00    -0.360 OA
HETATM   22  H8  UNK     1       1.537   0.580   2.431  1.00  0.00     0.217 HD
ENDBRANCH   6  21
BRANCH  10  23
HETATM   23  O3  UNK     1       5.005   2.481   0.026  1.00  0.00    -0.361 OA
HETATM   24  H9  UNK     1       5.167   2.446   0.984  1.00  0.00     0.217 HD
ENDBRANCH  10  23
TORSDOF 4
