REMARK  8 active torsions:
REMARK  status: ('A' for Active; 'I' for Inactive)
REMARK    1  A    between atoms: C18_26  and  O3_3 
REMARK    2  A    between atoms: C24_32  and  O3_3 
REMARK    3  A    between atoms: C21_29  and  O5_5 
REMARK    4  A    between atoms: C5_13  and  N1_6 
REMARK    5  A    between atoms: C6_14  and  N2_7 
REMARK    6  A    between atoms: C5_13  and  C7_15 
REMARK    7  A    between atoms: C6_14  and  C8_16 
REMARK    8  A    between atoms: C14_22  and  C19_27 
ROOT
HETATM    1  N1  UNK     1      -1.331  -1.380  -0.077  1.00  0.00     0.096 N 
HETATM    2  N2  UNK     1      -0.062   0.082  -2.224  1.00  0.00     0.097 N 
HETATM    3  C1  UNK     1      -0.015  -0.754   0.101  1.00  0.00     0.303 C 
HETATM    4  C2  UNK     1      -1.531  -1.761  -1.480  1.00  0.00     0.303 C 
HETATM    5  C3  UNK     1       0.140   0.461  -0.820  1.00  0.00     0.303 C 
HETATM    6  C4  UNK     1      -1.377  -0.546  -2.402  1.00  0.00     0.303 C 
ENDROOT
BRANCH   1   7
HETATM    7  C5  UNK     1      -1.477  -2.539   0.801  1.00  0.00     0.312 C 
BRANCH   7   8
HETATM    8  C7  UNK     1      -1.824  -2.148   2.196  1.00  0.00    -0.011 A 
HETATM    9  C11 UNK     1      -0.870  -1.910   3.106  1.00  0.00     0.092 A 
HETATM   10  C15 UNK     1      -1.165  -1.521   4.496  1.00  0.00     0.288 A 
HETATM   11  O2  UNK     1      -2.503  -1.407   4.840  1.00  0.00    -0.275 OA
HETATM   12  O4  UNK     1      -0.265  -1.311   5.302  1.00  0.00    -0.260 OA
HETATM   13  C12 UNK     1      -3.528  -1.652   3.905  1.00  0.00     0.090 A 
HETATM   14  C9  UNK     1      -3.234  -2.020   2.591  1.00  0.00     0.009 A 
HETATM   15  C17 UNK     1      -4.839  -1.508   4.363  1.00  0.00     0.041 A 
HETATM   16  C13 UNK     1      -4.310  -2.247   1.723  1.00  0.00     0.051 A 
HETATM   17  C18 UNK     1      -5.630  -2.107   2.167  1.00  0.00     0.069 A 
HETATM   18  C20 UNK     1      -5.894  -1.737   3.485  1.00  0.00     0.039 A 
BRANCH  17  19
HETATM   19  O3  UNK     1      -6.661  -2.332   1.308  1.00  0.00    -0.351 OA
BRANCH  19  20
HETATM   20  C24 UNK     1      -6.426  -2.059  -0.073  1.00  0.00     0.171 C 
HETATM   21  C27 UNK     1      -7.732  -1.658  -0.725  1.00  0.00     0.034 C 
ENDBRANCH  19  20
ENDBRANCH  17  19
ENDBRANCH   7   8
ENDBRANCH   1   7
BRANCH   2  22
HETATM   22  C6  UNK     1       0.083   1.242  -3.101  1.00  0.00     0.334 C 
BRANCH  22  23
HETATM   23  C8  UNK     1       1.536   1.511  -3.327  1.00  0.00     0.095 A 
HETATM   24  C10 UNK     1       2.362   1.025  -4.308  1.00  0.00     0.078 A 
HETATM   25  C16 UNK     1       2.195   0.119  -5.450  1.00  0.00     0.079 C 
HETATM   26  O1  UNK     1       3.604   1.549  -4.109  1.00  0.00    -0.294 OA
HETATM   27  C14 UNK     1       3.446   2.329  -3.005  1.00  0.00     0.183 A 
HETATM   28  N3  UNK     1       2.236   2.347  -2.494  1.00  0.00    -0.224 NA
BRANCH  27  29
HETATM   29  C19 UNK     1       4.630   3.015  -2.566  1.00  0.00     0.051 A 
HETATM   30  C21 UNK     1       4.825   3.315  -1.218  1.00  0.00     0.082 A 
HETATM   31  C23 UNK     1       5.981   3.982  -0.812  1.00  0.00     0.038 A 
HETATM   32  C26 UNK     1       6.942   4.349  -1.755  1.00  0.00     0.003 A 
HETATM   33  C25 UNK     1       6.747   4.049  -3.103  1.00  0.00     0.001 A 
HETATM   34  C22 UNK     1       5.591   3.382  -3.509  1.00  0.00     0.018 A 
BRANCH  30  35
HETATM   35  O5  UNK     1       3.902   2.969  -0.276  1.00  0.00    -0.355 OA
HETATM   36  C28 UNK     1       4.050   1.690   0.335  1.00  0.00     0.210 C 
ENDBRANCH  30  35
ENDBRANCH  27  29
ENDBRANCH  22  23
ENDBRANCH   2  22
TORSDOF 8
