REMARK  5 active torsions:
REMARK  status: ('A' for Active; 'I' for Inactive)
REMARK    1  A    between atoms: C15_20  and  O1_2 
REMARK    2  A    between atoms: C7_12  and  O1_2 
REMARK       I    between atoms: C17_22  and  N1_4 
REMARK    3  A    between atoms: C1_6  and  C3_8 
REMARK    4  A    between atoms: C2_7  and  C4_9 
REMARK    5  A    between atoms: C15_20  and  C17_22 
ROOT
HETATM    1  N2  UNK     1      -5.054  -2.549   0.233  1.00  0.00    -0.191 NA
HETATM    2  C3  UNK     1      -2.385  -0.933  -1.269  1.00  0.00     0.034 C 
HETATM    3  C4  UNK     1      -2.810  -1.284  -0.029  1.00  0.00     0.055 C 
HETATM    4  C16 UNK     1      -4.049  -1.982   0.114  1.00  0.00     0.100 C 
ENDROOT
BRANCH   3   5
HETATM    5  C2  UNK     1      -2.037  -0.979   1.191  1.00  0.00    -0.015 A 
HETATM    6  C10 UNK     1      -1.101  -1.892   1.645  1.00  0.00     0.014 A 
HETATM    7  C12 UNK     1      -0.371  -1.604   2.798  1.00  0.00     0.024 A 
HETATM    8  C14 UNK     1      -0.587  -0.406   3.479  1.00  0.00     0.034 A 
HETATM    9  C13 UNK     1      -1.534   0.503   3.007  1.00  0.00     0.024 A 
HETATM   10 Cl1  UNK     1       0.313  -0.051   4.902  1.00  0.00    -0.084 Cl
HETATM   11  C11 UNK     1      -2.264   0.215   1.854  1.00  0.00     0.014 A 
ENDBRANCH   3   5
BRANCH   2  12
HETATM   12  C1  UNK     1      -1.171  -0.205  -1.604  1.00  0.00    -0.035 A 
HETATM   13  C5  UNK     1      -1.191   1.187  -1.685  1.00  0.00     0.014 A 
HETATM   14  C8  UNK     1      -0.026   1.884  -2.005  1.00  0.00     0.037 A 
HETATM   15  C7  UNK     1       1.159   1.189  -2.245  1.00  0.00     0.069 A 
HETATM   16  C9  UNK     1       1.180  -0.204  -2.164  1.00  0.00     0.037 A 
HETATM   17  C6  UNK     1       0.014  -0.901  -1.844  1.00  0.00     0.014 A 
BRANCH  15  18
HETATM   18  O1  UNK     1       2.296   1.869  -2.557  1.00  0.00    -0.342 OA
BRANCH  18  19
HETATM   19  C15 UNK     1       3.534   1.282  -2.162  1.00  0.00     0.278 C 
BRANCH  19  20
HETATM   20  C17 UNK     1       4.546   2.370  -1.891  1.00  0.00     0.239 C 
HETATM   21  O2  UNK     1       4.303   3.568  -2.007  1.00  0.00    -0.271 OA
HETATM   22  N1  UNK     1       5.766   1.866  -1.498  1.00  0.00    -0.368 N 
HETATM   23  H12 UNK     1       6.541   2.484  -1.282  1.00  0.00     0.159 HD
HETATM   24  H13 UNK     1       5.939   0.870  -1.410  1.00  0.00     0.159 HD
ENDBRANCH  19  20
ENDBRANCH  18  19
ENDBRANCH  15  18
ENDBRANCH   2  12
TORSDOF 5
