REMARK  6 active torsions:
REMARK  status: ('A' for Active; 'I' for Inactive)
REMARK    1  A    between atoms: C18_27  and  O2_3 
REMARK    2  A    between atoms: C9_18  and  O2_3 
REMARK    3  A    between atoms: C3_12  and  N1_8 
REMARK       I    between atoms: C8_17  and  N1_8 
REMARK       I    between atoms: C12_21  and  N2_9 
REMARK    4  A    between atoms: C1_10  and  C9_18 
REMARK    5  A    between atoms: C12_21  and  C4_13 
REMARK    6  A    between atoms: C6_15  and  C8_17 
ROOT
HETATM    1  S1  UNK     1      -2.832  -1.054  -0.674  1.00  0.00    -0.065 SA
HETATM    2  C1  UNK     1      -1.976  -0.959   1.746  1.00  0.00     0.080 A 
HETATM    3  C2  UNK     1      -3.235  -1.625   1.798  1.00  0.00    -0.020 A 
HETATM    4  C3  UNK     1      -1.660  -0.608   0.473  1.00  0.00     0.094 A 
HETATM    5  C4  UNK     1      -3.809  -1.743   0.552  1.00  0.00     0.081 A 
HETATM    6  C5  UNK     1      -3.855  -2.131   3.049  1.00  0.00     0.051 C 
ENDROOT
BRANCH   4   7
HETATM    7  N1  UNK     1      -0.536   0.052  -0.033  1.00  0.00    -0.316 N 
HETATM    8  C8  UNK     1      -0.303   0.368  -1.365  1.00  0.00     0.262 C 
HETATM    9  O3  UNK     1      -1.014   0.140  -2.343  1.00  0.00    -0.267 OA
HETATM   10  H1  UNK     1       0.160   0.291   0.668  1.00  0.00     0.169 HD
BRANCH   8  11
HETATM   11  C6  UNK     1       0.977   1.062  -1.546  1.00  0.00     0.108 A 
HETATM   12  C10 UNK     1       1.591   0.872  -2.720  1.00  0.00     0.037 A 
HETATM   13  C7  UNK     1       2.866   1.517  -2.993  1.00  0.00    -0.001 A 
HETATM   14  C11 UNK     1       3.431   2.332  -2.018  1.00  0.00     0.089 A 
HETATM   15  C14 UNK     1       3.542   1.347  -4.204  1.00  0.00     0.014 A 
HETATM   16  O1  UNK     1       2.779   2.529  -0.785  1.00  0.00    -0.274 OA
HETATM   17  C15 UNK     1       4.649   2.979  -2.216  1.00  0.00     0.038 A 
HETATM   18  C13 UNK     1       1.559   1.925  -0.494  1.00  0.00     0.304 A 
HETATM   19  O6  UNK     1       0.999   2.101   0.583  1.00  0.00    -0.259 OA
HETATM   20  C17 UNK     1       5.317   2.804  -3.426  1.00  0.00     0.003 A 
HETATM   21  C16 UNK     1       4.765   1.990  -4.418  1.00  0.00     0.001 A 
ENDBRANCH   8  11
ENDBRANCH   4   7
BRANCH   2  22
HETATM   22  C9  UNK     1      -1.129  -0.682   2.880  1.00  0.00     0.296 C 
HETATM   23  O4  UNK     1      -1.553  -0.485   4.028  1.00  0.00    -0.259 OA
BRANCH  22  24
HETATM   24  O2  UNK     1       0.216  -0.652   2.578  1.00  0.00    -0.318 OA
BRANCH  24  25
HETATM   25  C18 UNK     1       1.115  -0.380   3.660  1.00  0.00     0.174 C 
HETATM   26  C19 UNK     1       2.535  -0.389   3.134  1.00  0.00     0.034 C 
ENDBRANCH  24  25
ENDBRANCH  22  24
ENDBRANCH   2  22
BRANCH   5  27
HETATM   27  C12 UNK     1      -5.053  -2.339   0.183  1.00  0.00     0.256 C 
HETATM   28  O5  UNK     1      -5.844  -2.892   0.985  1.00  0.00    -0.267 OA
HETATM   29  N2  UNK     1      -5.414  -2.331  -1.172  1.00  0.00    -0.365 N 
HETATM   30  H12 UNK     1      -6.285  -2.749  -1.481  1.00  0.00     0.159 HD
HETATM   31  H13 UNK     1      -4.825  -1.911  -1.884  1.00  0.00     0.159 HD
ENDBRANCH   5  27
TORSDOF 6
