REMARK  3 active torsions:
REMARK  status: ('A' for Active; 'I' for Inactive)
REMARK    1  A    between atoms: C7_8  and  N1_1 
REMARK    2  A    between atoms: C1_2  and  C3_4 
REMARK    3  A    between atoms: C2_3  and  C6_7 
ROOT
HETATM    1  C1  UNK     1       1.261   0.811  -0.590  1.00  0.00    -0.036 A 
HETATM    2  C4  UNK     1       1.286   0.510  -1.942  1.00  0.00     0.013 A 
HETATM    3  C5  UNK     1       2.207   1.647  -0.019  1.00  0.00     0.013 A 
HETATM    4  C7  UNK     1       3.245   1.904  -2.186  1.00  0.00     0.025 A 
HETATM    5  C8  UNK     1       2.285   1.060  -2.745  1.00  0.00     0.030 A 
HETATM    6  C9  UNK     1       3.206   2.197  -0.823  1.00  0.00     0.030 A 
ENDROOT
BRANCH   1   7
HETATM    7  C3  UNK     1       0.205   0.231   0.259  1.00  0.00     0.012 C 
HETATM    8  C6  UNK     1      -0.971  -0.267  -0.190  1.00  0.00     0.012 C 
BRANCH   8   9
HETATM    9  C2  UNK     1      -2.005  -0.858   0.646  1.00  0.00    -0.036 A 
HETATM   10  C10 UNK     1      -1.688  -1.327   1.921  1.00  0.00     0.011 A 
HETATM   11  C12 UNK     1      -2.679  -1.893   2.722  1.00  0.00     0.001 A 
HETATM   12  C14 UNK     1      -3.988  -1.990   2.249  1.00  0.00     0.000 A 
HETATM   13  C13 UNK     1      -4.305  -1.521   0.974  1.00  0.00     0.001 A 
HETATM   14  C11 UNK     1      -3.314  -0.955   0.173  1.00  0.00     0.011 A 
ENDBRANCH   8   9
ENDBRANCH   1   7
BRANCH   4  15
HETATM   15  N1  UNK     1       4.254   2.460  -2.998  1.00  0.00    -0.399 N 
HETATM   16  H12 UNK     1       4.951   3.071  -2.593  1.00  0.00     0.156 HD
HETATM   17  H13 UNK     1       4.284   2.247  -3.986  1.00  0.00     0.156 HD
ENDBRANCH   4  15
TORSDOF 3
