REMARK  0 active torsions:
REMARK  status: ('A' for Active; 'I' for Inactive)
ROOT
HETATM    1 Br1  UNK     1      -4.655  -2.286   2.021  1.00  0.00    -0.051 Br
HETATM    2  S1  UNK     1       1.542   1.882  -2.861  1.00  0.00    -0.099 SA
HETATM    3  O1  UNK     1      -0.096   0.143  -1.128  1.00  0.00    -0.308 OA
HETATM    4  O2  UNK     1       0.202   0.127   2.937  1.00  0.00    -0.287 OA
HETATM    5  C1  UNK     1      -1.067  -0.433   1.023  1.00  0.00     0.049 A 
HETATM    6  C2  UNK     1      -1.105  -0.396  -0.370  1.00  0.00     0.090 A 
HETATM    7  C3  UNK     1       1.003   0.677  -0.474  1.00  0.00     0.097 A 
HETATM    8  C4  UNK     1       0.103   0.129   1.718  1.00  0.00     0.187 A 
HETATM    9  C5  UNK     1       1.160   0.699   0.859  1.00  0.00     0.094 A 
HETATM   10  C6  UNK     1       2.003   1.214  -1.347  1.00  0.00     0.038 A 
HETATM   11  C7  UNK     1      -2.123  -0.995   1.744  1.00  0.00     0.037 A 
HETATM   12  C8  UNK     1      -2.201  -0.923  -1.052  1.00  0.00     0.039 A 
HETATM   13  C9  UNK     1      -3.219  -1.521   1.059  1.00  0.00     0.012 A 
HETATM   14  C10 UNK     1      -3.258  -1.485  -0.336  1.00  0.00     0.022 A 
HETATM   15  C11 UNK     1       3.373   1.286  -1.159  1.00  0.00     0.022 A 
HETATM   16  C12 UNK     1       4.040   1.893  -2.262  1.00  0.00     0.008 A 
HETATM   17  C13 UNK     1       3.163   2.264  -3.257  1.00  0.00     0.050 A 
ENDROOT
TORSDOF 0
