REMARK  8 active torsions:
REMARK  status: ('A' for Active; 'I' for Inactive)
REMARK    1  A    between atoms: C14_20  and  S2_2 
REMARK    2  A    between atoms: C9_15  and  S2_2 
REMARK    3  A    between atoms: C19_25  and  O1_3 
REMARK    4  A    between atoms: C4_10  and  O1_3 
REMARK       I    between atoms: C15_21  and  N2_6 
REMARK    5  A    between atoms: C5_11  and  N2_6 
REMARK    6  A    between atoms: C16_22  and  C7_13 
REMARK    7  A    between atoms: C14_20  and  C15_21 
REMARK    8  A    between atoms: C17_23  and  C18_24 
ROOT
HETATM    1  O2  UNK     1       0.362  -0.979  -4.272  1.00  0.00    -0.272 OA
HETATM    2  N2  UNK     1      -0.454   1.001  -3.305  1.00  0.00    -0.327 N 
HETATM    3  C15 UNK     1       0.265   0.245  -4.224  1.00  0.00     0.231 C 
HETATM    4  H10 UNK     1      -0.420   2.014  -3.396  1.00  0.00     0.169 HD
ENDROOT
BRANCH   2   5
HETATM    5  C5  UNK     1      -1.248   0.528  -2.233  1.00  0.00     0.034 A 
HETATM    6  C10 UNK     1      -1.897   1.440  -1.417  1.00  0.00     0.030 A 
HETATM    7  C12 UNK     1      -2.681   0.973  -0.362  1.00  0.00     0.013 A 
HETATM    8  C7  UNK     1      -2.805  -0.398  -0.138  1.00  0.00    -0.036 A 
HETATM    9  C13 UNK     1      -2.145  -1.303  -0.969  1.00  0.00     0.013 A 
HETATM   10  C11 UNK     1      -1.361  -0.837  -2.024  1.00  0.00     0.030 A 
BRANCH   8  11
HETATM   11  C16 UNK     1      -3.622  -0.884   0.963  1.00  0.00     0.012 C 
HETATM   12  C18 UNK     1      -3.528  -2.114   1.520  1.00  0.00     0.012 C 
BRANCH  12  13
HETATM   13  C17 UNK     1      -4.343  -2.600   2.648  1.00  0.00    -0.036 A 
HETATM   14  C20 UNK     1      -5.539  -1.968   2.943  1.00  0.00     0.011 A 
HETATM   15  C23 UNK     1      -6.310  -2.427   4.010  1.00  0.00     0.001 A 
HETATM   16  C25 UNK     1      -5.874  -3.513   4.769  1.00  0.00     0.000 A 
HETATM   17  C24 UNK     1      -4.667  -4.140   4.460  1.00  0.00     0.001 A 
HETATM   18  C21 UNK     1      -3.895  -3.680   3.392  1.00  0.00     0.011 A 
ENDBRANCH  12  13
ENDBRANCH   8  11
ENDBRANCH   2   5
BRANCH   3  19
HETATM   19  C14 UNK     1       0.994   1.113  -5.227  1.00  0.00     0.184 C 
BRANCH  19  20
HETATM   20  S2  UNK     1       2.771   0.778  -5.108  1.00  0.00    -0.094 SA
BRANCH  20  21
HETATM   21  C9  UNK     1       3.070   1.215  -3.439  1.00  0.00     0.136 A 
HETATM   22  S1  UNK     1       4.294   0.472  -2.503  1.00  0.00    -0.061 SA
HETATM   23  C1  UNK     1       3.856   1.463  -1.162  1.00  0.00     0.039 A 
HETATM   24  C2  UNK     1       2.796   2.295  -1.535  1.00  0.00     0.076 A 
HETATM   25  C3  UNK     1       4.410   1.502   0.127  1.00  0.00     0.058 A 
HETATM   26  N1  UNK     1       2.356   2.141  -2.842  1.00  0.00    -0.233 NA
HETATM   27  C6  UNK     1       2.275   3.197  -0.582  1.00  0.00     0.036 A 
HETATM   28  C8  UNK     1       2.822   3.241   0.703  1.00  0.00     0.039 A 
HETATM   29  C4  UNK     1       3.876   2.403   1.051  1.00  0.00     0.070 A 
BRANCH  29  30
HETATM   30  O1  UNK     1       4.397   2.462   2.309  1.00  0.00    -0.351 OA
BRANCH  30  31
HETATM   31  C19 UNK     1       4.950   1.258   2.837  1.00  0.00     0.171 C 
HETATM   32  C22 UNK     1       4.804   1.267   4.344  1.00  0.00     0.034 C 
ENDBRANCH  30  31
ENDBRANCH  29  30
ENDBRANCH  20  21
ENDBRANCH  19  20
ENDBRANCH   3  19
TORSDOF 8
