REMARK  5 active torsions:
REMARK  status: ('A' for Active; 'I' for Inactive)
REMARK    1  A    between atoms: C13_19  and  O2_3 
REMARK    2  A    between atoms: C5_11  and  O2_3 
REMARK    3  A    between atoms: C7_13  and  N1_6 
REMARK       I    between atoms: C8_14  and  N1_6 
REMARK    4  A    between atoms: C3_9  and  C8_14 
REMARK    5  A    between atoms: C12_18  and  C7_13 
ROOT
HETATM    1  O1  UNK     1       0.945   0.325  -1.647  1.00  0.00    -0.271 OA
HETATM    2  O4  UNK     1      -0.925  -0.931  -1.263  1.00  0.00    -0.259 OA
HETATM    3  C1  UNK     1       2.152   1.286   0.231  1.00  0.00     0.002 A 
HETATM    4  C2  UNK     1       2.011   1.092  -1.139  1.00  0.00     0.123 A 
HETATM    5  C3  UNK     1       0.169  -0.044   0.643  1.00  0.00     0.108 A 
HETATM    6  C4  UNK     1       1.180   0.684   1.131  1.00  0.00     0.037 A 
HETATM    7  C5  UNK     1       2.907   1.641  -2.054  1.00  0.00     0.103 A 
HETATM    8  C6  UNK     1       3.223   2.052   0.697  1.00  0.00     0.014 A 
HETATM    9  C9  UNK     1      -0.000  -0.264  -0.811  1.00  0.00     0.304 A 
HETATM   10  C10 UNK     1       3.972   2.404  -1.581  1.00  0.00     0.040 A 
HETATM   11  C11 UNK     1       4.131   2.609  -0.209  1.00  0.00     0.004 A 
ENDROOT
BRANCH   5  12
HETATM   12  C8  UNK     1      -0.759  -0.610   1.629  1.00  0.00     0.258 C 
HETATM   13  O3  UNK     1      -0.969  -0.039   2.698  1.00  0.00    -0.267 OA
HETATM   14  N1  UNK     1      -1.325  -1.801   1.214  1.00  0.00    -0.352 N 
HETATM   15  H7  UNK     1      -1.072  -2.202   0.316  1.00  0.00     0.163 HD
BRANCH  14  16
HETATM   16  C7  UNK     1      -2.268  -2.547   2.017  1.00  0.00     0.169 C 
BRANCH  16  17
HETATM   17  C12 UNK     1      -3.688  -2.169   1.711  1.00  0.00     0.000 A 
HETATM   18  S1  UNK     1      -4.659  -1.548   2.963  1.00  0.00    -0.105 SA
HETATM   19  C17 UNK     1      -5.990  -1.388   1.897  1.00  0.00     0.050 A 
HETATM   20  C15 UNK     1      -5.683  -1.804   0.620  1.00  0.00     0.008 A 
HETATM   21  C14 UNK     1      -4.337  -2.260   0.515  1.00  0.00     0.017 A 
ENDBRANCH  16  17
ENDBRANCH  14  16
ENDBRANCH   5  12
BRANCH   7  22
HETATM   22  O2  UNK     1       2.757   1.443  -3.391  1.00  0.00    -0.349 OA
BRANCH  22  23
HETATM   23  C13 UNK     1       3.227   2.476  -4.258  1.00  0.00     0.171 C 
HETATM   24  C16 UNK     1       2.394   2.476  -5.521  1.00  0.00     0.034 C 
ENDBRANCH  22  23
ENDBRANCH   7  22
TORSDOF 5
