REMARK  6 active torsions:
REMARK  status: ('A' for Active; 'I' for Inactive)
REMARK    1  A    between atoms: C1_7  and  O1_4 
REMARK    2  A    between atoms: C4_10  and  O1_4 
REMARK    3  A    between atoms: C3_9  and  O2_5 
REMARK    4  A    between atoms: C2_8  and  C9_15 
REMARK    5  A    between atoms: C4_10  and  C8_14 
REMARK    6  A    between atoms: C10_16  and  C11_17 
ROOT
HETATM    1  N1  UNK     1      -3.183   1.432   0.823  1.00  0.00    -0.191 NA
HETATM    2  C9  UNK     1      -1.718  -1.680   1.071  1.00  0.00     0.036 C 
HETATM    3  C10 UNK     1      -2.902  -1.091   1.386  1.00  0.00     0.055 C 
HETATM    4  C23 UNK     1      -3.048   0.306   1.071  1.00  0.00     0.100 C 
ENDROOT
BRANCH   3   5
HETATM    5  C11 UNK     1      -4.015  -1.792   2.009  1.00  0.00    -0.015 A 
HETATM    6  C16 UNK     1      -4.976  -2.419   1.217  1.00  0.00     0.016 A 
HETATM    7  C19 UNK     1      -6.043  -3.090   1.815  1.00  0.00     0.043 A 
HETATM    8  C21 UNK     1      -6.147  -3.134   3.205  1.00  0.00     0.116 A 
HETATM    9  C20 UNK     1      -5.186  -2.507   3.997  1.00  0.00     0.043 A 
HETATM   10  F2  UNK     1      -7.172  -3.777   3.780  1.00  0.00    -0.206 F 
HETATM   11  C17 UNK     1      -4.119  -1.836   3.399  1.00  0.00     0.016 A 
ENDBRANCH   3   5
BRANCH   2  12
HETATM   12  C2  UNK     1      -0.572  -1.013   0.436  1.00  0.00    -0.015 A 
HETATM   13  C5  UNK     1      -0.516  -1.033  -0.952  1.00  0.00     0.052 A 
HETATM   14  C3  UNK     1       0.549  -0.416  -1.607  1.00  0.00     0.102 A 
HETATM   15  C1  UNK     1       1.550   0.216  -0.870  1.00  0.00     0.103 A 
HETATM   16  C6  UNK     1       1.486   0.230   0.524  1.00  0.00     0.059 A 
HETATM   17  C7  UNK     1       0.420  -0.387   1.179  1.00  0.00     0.024 A 
HETATM   18 Br1  UNK     1       0.394  -0.330   3.078  1.00  0.00    -0.050 Br
BRANCH  14  19
HETATM   19  O2  UNK     1       0.601  -0.436  -2.969  1.00  0.00    -0.353 OA
HETATM   20  C22 UNK     1      -0.031   0.641  -3.657  1.00  0.00     0.210 C 
ENDBRANCH  14  19
BRANCH  15  21
HETATM   21  O1  UNK     1       2.595   0.822  -1.499  1.00  0.00    -0.344 OA
BRANCH  21  22
HETATM   22  C4  UNK     1       2.767   2.219  -1.271  1.00  0.00     0.214 C 
BRANCH  22  23
HETATM   23  C8  UNK     1       3.941   2.705  -2.068  1.00  0.00    -0.034 A 
HETATM   24  C12 UNK     1       5.212   2.686  -1.504  1.00  0.00     0.012 A 
HETATM   25  C14 UNK     1       6.304   3.137  -2.245  1.00  0.00     0.043 A 
HETATM   26  C18 UNK     1       6.118   3.605  -3.547  1.00  0.00     0.116 A 
HETATM   27  C15 UNK     1       4.840   3.621  -4.106  1.00  0.00     0.043 A 
HETATM   28  F1  UNK     1       7.166   4.037  -4.259  1.00  0.00    -0.206 F 
HETATM   29  C13 UNK     1       3.748   3.169  -3.364  1.00  0.00     0.012 A 
ENDBRANCH  22  23
ENDBRANCH  21  22
ENDBRANCH  15  21
ENDBRANCH   2  12
TORSDOF 6
