REMARK  2 active torsions:
REMARK  status: ('A' for Active; 'I' for Inactive)
REMARK    1  A    between atoms: C11_14  and  O3_3 
REMARK    2  A    between atoms: C1_4  and  C3_6 
ROOT
HETATM    1  O1  UNK     1      -0.156   0.063  -1.036  1.00  0.00    -0.340 OA
HETATM    2  O2  UNK     1       1.932   2.965   0.976  1.00  0.00    -0.292 OA
HETATM    3  C1  UNK     1      -0.039   0.023   0.395  1.00  0.00     0.169 C 
HETATM    4  C2  UNK     1       0.087   1.431   0.973  1.00  0.00     0.121 C 
HETATM    5  C4  UNK     1       1.299   2.101   0.380  1.00  0.00     0.165 C 
HETATM    6  C5  UNK     1       1.645   1.706  -1.001  1.00  0.00     0.043 A 
HETATM    7  C6  UNK     1       0.883   0.724  -1.639  1.00  0.00     0.083 A 
HETATM    8  C9  UNK     1       2.693   2.336  -1.676  1.00  0.00     0.018 A 
HETATM    9  C10 UNK     1       1.148   0.395  -2.969  1.00  0.00     0.038 A 
HETATM   10  C12 UNK     1       2.967   1.989  -3.000  1.00  0.00     0.001 A 
HETATM   11  C14 UNK     1       2.193   1.024  -3.646  1.00  0.00     0.003 A 
ENDROOT
BRANCH   3  12
HETATM   12  C3  UNK     1      -1.250  -0.691   0.955  1.00  0.00    -0.026 A 
HETATM   13  C7  UNK     1      -2.523  -0.149   0.778  1.00  0.00     0.046 A 
HETATM   14  C11 UNK     1      -3.639  -0.807   1.294  1.00  0.00     0.066 A 
HETATM   15  C15 UNK     1      -3.482  -2.008   1.987  1.00  0.00     0.036 A 
HETATM   16  C13 UNK     1      -2.209  -2.549   2.164  1.00  0.00     0.003 A 
HETATM   17  C8  UNK     1      -1.093  -1.891   1.648  1.00  0.00     0.010 A 
BRANCH  14  18
HETATM   18  O3  UNK     1      -4.881  -0.279   1.121  1.00  0.00    -0.361 OA
HETATM   19  H12 UNK     1      -4.804   0.552   0.621  1.00  0.00     0.217 HD
ENDBRANCH  14  18
ENDBRANCH   3  12
TORSDOF 2
