REMARK  6 active torsions:
REMARK  status: ('A' for Active; 'I' for Inactive)
REMARK    1  A    between atoms: C1_8  and  O1_2 
REMARK    2  A    between atoms: C6_13  and  N1_7 
REMARK    3  A    between atoms: C1_8  and  C5_12 
REMARK    4  A    between atoms: C5_12  and  C9_16 
REMARK    5  A    between atoms: C10_17  and  C6_13 
REMARK    6  A    between atoms: C13_20  and  C9_16 
ROOT
HETATM    1  O2  UNK     1      -0.092   2.526   0.718  1.00  0.00    -0.269 OA
HETATM    2  N1  UNK     1       1.795   1.926  -0.568  1.00  0.00    -0.310 N 
HETATM    3  C1  UNK     1       1.407   0.713   1.429  1.00  0.00     0.175 A 
HETATM    4  C2  UNK     1       2.646   0.244   0.719  1.00  0.00     0.013 A 
HETATM    5  C3  UNK     1       2.829   0.987  -0.447  1.00  0.00     0.047 A 
HETATM    6  C4  UNK     1       0.900   1.841   0.508  1.00  0.00     0.264 A 
HETATM    7  C7  UNK     1       3.540  -0.753   1.073  1.00  0.00     0.013 A 
HETATM    8  C8  UNK     1       3.900   0.761  -1.295  1.00  0.00     0.030 A 
HETATM    9  C11 UNK     1       4.627  -0.994   0.228  1.00  0.00     0.001 A 
HETATM   10  C12 UNK     1       4.805  -0.244  -0.946  1.00  0.00     0.002 A 
ENDROOT
BRANCH   3  11
HETATM   11  O1  UNK     1       1.753   1.278   2.679  1.00  0.00    -0.375 OA
HETATM   12  H7  UNK     1       0.968   1.712   3.055  1.00  0.00     0.211 HD
ENDBRANCH   3  11
BRANCH   3  13
HETATM   13  C5  UNK     1       0.356  -0.375   1.597  1.00  0.00     0.137 C 
BRANCH  13  14
HETATM   14  C9  UNK     1      -0.884   0.129   2.304  1.00  0.00     0.169 C 
HETATM   15  O3  UNK     1      -0.876   1.021   3.147  1.00  0.00    -0.292 OA
BRANCH  14  16
HETATM   16  C13 UNK     1      -2.158  -0.517   1.929  1.00  0.00     0.086 A 
HETATM   17  C16 UNK     1      -2.080  -1.795   1.540  1.00  0.00     0.035 A 
HETATM   18  C18 UNK     1      -3.282  -2.517   1.151  1.00  0.00    -0.001 A 
HETATM   19  C21 UNK     1      -4.506  -1.858   1.190  1.00  0.00     0.089 A 
HETATM   20  C23 UNK     1      -3.248  -3.852   0.739  1.00  0.00     0.014 A 
HETATM   21  O4  UNK     1      -4.581  -0.512   1.601  1.00  0.00    -0.274 OA
HETATM   22  C24 UNK     1      -5.693  -2.492   0.830  1.00  0.00     0.038 A 
HETATM   23  C17 UNK     1      -3.449   0.205   1.979  1.00  0.00     0.302 A 
HETATM   24  O5  UNK     1      -3.524   1.376   2.334  1.00  0.00    -0.259 OA
HETATM   25  C26 UNK     1      -5.650  -3.822   0.420  1.00  0.00     0.003 A 
HETATM   26  C25 UNK     1      -4.431  -4.501   0.375  1.00  0.00     0.001 A 
ENDBRANCH  14  16
ENDBRANCH  13  14
ENDBRANCH   3  13
BRANCH   2  27
HETATM   27  C6  UNK     1       1.695   2.858  -1.666  1.00  0.00     0.172 C 
BRANCH  27  28
HETATM   28  C10 UNK     1       1.572   2.157  -2.988  1.00  0.00    -0.018 A 
HETATM   29  C14 UNK     1       2.313   2.559  -4.094  1.00  0.00     0.042 A 
HETATM   30 Cl1  UNK     1       3.415   3.885  -4.009  1.00  0.00    -0.084 Cl
HETATM   31  C19 UNK     1       2.171   1.883  -5.306  1.00  0.00     0.024 A 
HETATM   32  C22 UNK     1       1.288   0.808  -5.405  1.00  0.00     0.002 A 
HETATM   33  C20 UNK     1       0.547   0.409  -4.293  1.00  0.00     0.001 A 
HETATM   34  C15 UNK     1       0.689   1.085  -3.081  1.00  0.00     0.010 A 
ENDBRANCH  27  28
ENDBRANCH   2  27
TORSDOF 6
