REMARK  4 active torsions:
REMARK  status: ('A' for Active; 'I' for Inactive)
REMARK    1  A    between atoms: C15_21  and  O4_4 
REMARK    2  A    between atoms: C16_22  and  O5_5 
REMARK       I    between atoms: C5_11  and  N1_6 
REMARK    3  A    between atoms: C5_11  and  C6_12 
REMARK    4  A    between atoms: C6_12  and  C7_13 
ROOT
HETATM    1  O2  UNK     1      -1.623  -0.829  -1.670  1.00  0.00    -0.274 OA
HETATM    2  O3  UNK     1      -0.179  -0.384  -3.363  1.00  0.00    -0.259 OA
HETATM    3  C7  UNK     1       0.691  -0.185  -1.155  1.00  0.00     0.033 A 
HETATM    4  C8  UNK     1       0.445  -0.244   0.172  1.00  0.00    -0.036 A 
HETATM    5  C9  UNK     1      -0.895  -0.649   0.644  1.00  0.00     0.007 A 
HETATM    6  C10 UNK     1      -0.378  -0.469  -2.155  1.00  0.00     0.295 A 
HETATM    7  C11 UNK     1      -1.884  -0.928  -0.295  1.00  0.00     0.093 A 
HETATM    8  C12 UNK     1       1.466   0.100   1.228  1.00  0.00     0.050 C 
HETATM    9  C13 UNK     1      -1.241  -0.785   1.997  1.00  0.00     0.054 A 
HETATM   10  C14 UNK     1      -3.176  -1.319   0.066  1.00  0.00     0.077 A 
HETATM   11  C15 UNK     1      -2.531  -1.176   2.378  1.00  0.00     0.102 A 
HETATM   12  C16 UNK     1      -3.498  -1.442   1.413  1.00  0.00     0.104 A 
ENDROOT
BRANCH   3  13
HETATM   13  C6  UNK     1       2.026   0.152  -1.769  1.00  0.00     0.148 C 
BRANCH  13  14
HETATM   14  C5  UNK     1       2.059   1.648  -1.950  1.00  0.00     0.224 C 
HETATM   15  O1  UNK     1       1.016   2.277  -2.138  1.00  0.00    -0.273 OA
HETATM   16  N1  UNK     1       3.313   2.228  -1.896  1.00  0.00    -0.352 N 
HETATM   17  C3  UNK     1       3.515   3.660  -2.060  1.00  0.00     0.126 C 
HETATM   18  C4  UNK     1       4.583   1.542  -1.675  1.00  0.00     0.126 C 
HETATM   19  C1  UNK     1       4.949   3.896  -1.612  1.00  0.00     0.021 C 
HETATM   20  C2  UNK     1       5.640   2.592  -1.988  1.00  0.00     0.021 C 
ENDBRANCH  13  14
ENDBRANCH   3  13
BRANCH  11  21
HETATM   21  O4  UNK     1      -2.827  -1.295   3.703  1.00  0.00    -0.353 OA
HETATM   22  C17 UNK     1      -2.606  -2.569   4.304  1.00  0.00     0.210 C 
ENDBRANCH  11  21
BRANCH  12  23
HETATM   23  O5  UNK     1      -4.754  -1.822   1.772  1.00  0.00    -0.353 OA
HETATM   24  C18 UNK     1      -5.715  -0.786   1.971  1.00  0.00     0.210 C 
ENDBRANCH  12  23
TORSDOF 4
