REMARK  4 active torsions:
REMARK  status: ('A' for Active; 'I' for Inactive)
REMARK    1  A    between atoms: C4_7  and  O1_1 
REMARK    2  A    between atoms: C6_9  and  O1_1 
REMARK    3  A    between atoms: C5_8  and  C6_9 
REMARK    4  A    between atoms: C5_8  and  C7_10 
ROOT
HETATM    1  O2  UNK     1      -2.424  -0.888  -0.591  1.00  0.00    -0.274 OA
HETATM    2  O3  UNK     1      -4.255  -2.248  -0.434  1.00  0.00    -0.260 OA
HETATM    3  C1  UNK     1      -0.513   0.533  -0.759  1.00  0.00     0.006 A 
HETATM    4  C2  UNK     1      -1.055  -0.494   1.394  1.00  0.00     0.005 A 
HETATM    5  C3  UNK     1      -1.319  -0.281   0.040  1.00  0.00     0.099 A 
HETATM    6  C4  UNK     1       0.593   1.157  -0.192  1.00  0.00     0.077 A 
HETATM    7  C8  UNK     1      -1.956  -1.366   2.158  1.00  0.00    -0.043 A 
HETATM    8  C9  UNK     1       0.064   0.144   1.945  1.00  0.00     0.017 A 
HETATM    9  C10 UNK     1       0.882   0.963   1.157  1.00  0.00     0.038 A 
HETATM   10  C11 UNK     1      -0.829   0.733  -2.205  1.00  0.00     0.054 C 
HETATM   11  C12 UNK     1      -2.999  -1.930   1.532  1.00  0.00     0.090 A 
HETATM   12  C14 UNK     1      -1.700  -1.613   3.616  1.00  0.00     0.049 C 
HETATM   13  C15 UNK     1      -3.291  -1.716   0.105  1.00  0.00     0.288 A 
ENDROOT
BRANCH   6  14
HETATM   14  O1  UNK     1       1.403   1.958  -0.938  1.00  0.00    -0.351 OA
BRANCH  14  15
HETATM   15  C6  UNK     1       2.774   1.578  -1.042  1.00  0.00     0.175 C 
BRANCH  15  16
HETATM   16  C5  UNK     1       3.321   2.068  -2.375  1.00  0.00     0.026 C 
BRANCH  16  17
HETATM   17  C7  UNK     1       4.786   1.680  -2.560  1.00  0.00    -0.002 C 
HETATM   18  C13 UNK     1       5.316   2.133  -3.911  1.00  0.00     0.005 C 
ENDBRANCH  16  17
ENDBRANCH  15  16
ENDBRANCH  14  15
ENDBRANCH   6  14
TORSDOF 4
