REMARK  6 active torsions:
REMARK  status: ('A' for Active; 'I' for Inactive)
REMARK    1  A    between atoms: C5_11  and  N1_4 
REMARK    2  A    between atoms: C6_12  and  N2_5 
REMARK    3  A    between atoms: C15_21  and  N3_6 
REMARK       I    between atoms: C9_15  and  N3_6 
REMARK    4  A    between atoms: C5_11  and  C7_13 
REMARK    5  A    between atoms: C6_12  and  C9_15 
REMARK    6  A    between atoms: C13_19  and  C18_24 
ROOT
HETATM    1  N1  UNK     1       1.300   0.190  -1.609  1.00  0.00     0.096 N 
HETATM    2  N2  UNK     1      -1.432  -0.455  -0.914  1.00  0.00     0.100 N 
HETATM    3  C1  UNK     1       0.241   0.161  -2.625  1.00  0.00     0.303 C 
HETATM    4  C2  UNK     1       0.990  -0.745  -0.519  1.00  0.00     0.303 C 
HETATM    5  C3  UNK     1      -1.122   0.480  -2.003  1.00  0.00     0.303 C 
HETATM    6  C4  UNK     1      -0.373  -0.425   0.103  1.00  0.00     0.303 C 
ENDROOT
BRANCH   1   7
HETATM    7  C5  UNK     1       2.599  -0.119  -2.203  1.00  0.00     0.312 C 
BRANCH   7   8
HETATM    8  C7  UNK     1       3.195   1.059  -2.892  1.00  0.00    -0.011 A 
HETATM    9  C10 UNK     1       2.953   1.300  -4.188  1.00  0.00     0.092 A 
HETATM   10  C14 UNK     1       3.519   2.450  -4.912  1.00  0.00     0.288 A 
HETATM   11  O1  UNK     1       4.336   3.302  -4.185  1.00  0.00    -0.275 OA
HETATM   12  O3  UNK     1       3.273   2.638  -6.098  1.00  0.00    -0.260 OA
HETATM   13  C11 UNK     1       4.609   3.076  -2.822  1.00  0.00     0.090 A 
HETATM   14  C8  UNK     1       4.065   1.981  -2.149  1.00  0.00     0.007 A 
HETATM   15  C16 UNK     1       5.445   3.999  -2.191  1.00  0.00     0.039 A 
HETATM   16  C12 UNK     1       4.386   1.826  -0.794  1.00  0.00     0.022 A 
HETATM   17  C13 UNK     1       5.223   2.743  -0.147  1.00  0.00    -0.058 A 
HETATM   18  C17 UNK     1       5.751   3.828  -0.845  1.00  0.00     0.010 A 
BRANCH  17  19
HETATM   19  C18 UNK     1       5.551   2.558   1.297  1.00  0.00     0.034 C 
HETATM   20  C24 UNK     1       4.554   3.262   2.213  1.00  0.00     0.010 C 
ENDBRANCH  17  19
ENDBRANCH   7   8
ENDBRANCH   1   7
BRANCH   2  21
HETATM   21  C6  UNK     1      -2.731  -0.149  -0.320  1.00  0.00     0.375 C 
BRANCH  21  22
HETATM   22  C9  UNK     1      -3.246  -1.368   0.425  1.00  0.00     0.250 C 
HETATM   23  O2  UNK     1      -2.964  -2.515   0.092  1.00  0.00    -0.271 OA
HETATM   24  N3  UNK     1      -4.045  -0.976   1.497  1.00  0.00    -0.325 N 
HETATM   25  H15 UNK     1      -4.458  -0.050   1.400  1.00  0.00     0.169 HD
BRANCH  24  26
HETATM   26  C15 UNK     1      -4.708  -1.808   2.430  1.00  0.00     0.046 A 
HETATM   27  C19 UNK     1      -6.096  -1.753   2.551  1.00  0.00    -0.034 A 
HETATM   28  C21 UNK     1      -6.750  -2.573   3.470  1.00  0.00     0.015 A 
HETATM   29  C25 UNK     1      -6.910  -0.824   1.709  1.00  0.00     0.050 C 
HETATM   30  C23 UNK     1      -6.015  -3.448   4.270  1.00  0.00    -0.061 A 
HETATM   31  C22 UNK     1      -4.627  -3.504   4.150  1.00  0.00     0.015 A 
HETATM   32  C27 UNK     1      -6.716  -4.326   5.251  1.00  0.00     0.048 C 
HETATM   33  C20 UNK     1      -3.973  -2.684   3.230  1.00  0.00    -0.034 A 
HETATM   34  C26 UNK     1      -2.485  -2.767   3.123  1.00  0.00     0.050 C 
ENDBRANCH  24  26
ENDBRANCH  21  22
ENDBRANCH   2  21
TORSDOF 6
