REMARK  3 active torsions:
REMARK  status: ('A' for Active; 'I' for Inactive)
REMARK    1  A    between atoms: C7_11  and  O2_2 
REMARK    2  A    between atoms: C11_15  and  O4_4 
REMARK    3  A    between atoms: C1_5  and  C2_6 
ROOT
HETATM    1  O1  UNK     1       0.845  -1.379   1.646  1.00  0.00    -0.309 OA
HETATM    2  O3  UNK     1       0.159  -3.447  -1.797  1.00  0.00    -0.287 OA
HETATM    3  C1  UNK     1       0.473  -0.738   0.474  1.00  0.00     0.093 A 
HETATM    4  C3  UNK     1       0.773  -3.511   0.484  1.00  0.00     0.048 A 
HETATM    5  C4  UNK     1       0.991  -2.743   1.627  1.00  0.00     0.090 A 
HETATM    6  C5  UNK     1       0.230  -1.367  -0.687  1.00  0.00     0.094 A 
HETATM    7  C6  UNK     1       0.369  -2.836  -0.759  1.00  0.00     0.187 A 
HETATM    8  C9  UNK     1       0.936  -4.898   0.523  1.00  0.00     0.018 A 
HETATM    9  C10 UNK     1       1.373  -3.359   2.819  1.00  0.00     0.038 A 
HETATM   10  C12 UNK     1       1.319  -5.511   1.717  1.00  0.00     0.001 A 
HETATM   11  C13 UNK     1       1.537  -4.744   2.862  1.00  0.00     0.003 A 
ENDROOT
BRANCH   3  12
HETATM   12  C2  UNK     1       0.341   0.726   0.607  1.00  0.00     0.034 A 
HETATM   13  C7  UNK     1      -0.870   1.316   0.985  1.00  0.00     0.111 A 
HETATM   14  C11 UNK     1      -0.969   2.702   1.104  1.00  0.00     0.099 A 
HETATM   15  C15 UNK     1       0.142   3.506   0.845  1.00  0.00     0.039 A 
HETATM   16  C14 UNK     1       1.351   2.923   0.468  1.00  0.00     0.004 A 
HETATM   17  C8  UNK     1       1.451   1.536   0.349  1.00  0.00     0.017 A 
BRANCH  13  18
HETATM   18  O2  UNK     1      -1.965   0.542   1.241  1.00  0.00    -0.357 OA
HETATM   19  H9  UNK     1      -2.772   1.064   1.103  1.00  0.00     0.217 HD
ENDBRANCH  13  18
BRANCH  14  20
HETATM   20  O4  UNK     1      -2.144   3.285   1.472  1.00  0.00    -0.358 OA
HETATM   21  H10 UNK     1      -2.689   2.643   1.954  1.00  0.00     0.217 HD
ENDBRANCH  14  20
ENDBRANCH   3  12
TORSDOF 3
