REMARK  10 active torsions:
REMARK  status: ('A' for Active; 'I' for Inactive)
REMARK    1  A    between atoms: C6_14  and  N1_7 
REMARK       I    between atoms: C8_16  and  N1_7 
REMARK    2  A    between atoms: C7_15  and  N2_8 
REMARK       I    between atoms: C9_17  and  N2_8 
REMARK    3  A    between atoms: C1_9  and  C2_10 
REMARK    4  A    between atoms: C1_9  and  C3_11 
REMARK    5  A    between atoms: C2_10  and  C4_12 
REMARK    6  A    between atoms: C3_11  and  C5_13 
REMARK    7  A    between atoms: C4_12  and  C6_14 
REMARK    8  A    between atoms: C5_13  and  C7_15 
REMARK    9  A    between atoms: C10_18  and  C8_16 
REMARK   10  A    between atoms: C11_19  and  C9_17 
ROOT
HETATM    1  C1  UNK     1       3.395   2.633  -2.197  1.00  0.00     0.000 C 
ENDROOT
BRANCH   1   2
HETATM    2  C2  UNK     1       2.140   2.997  -2.993  1.00  0.00     0.002 C 
BRANCH   2   3
HETATM    3  C4  UNK     1       2.066   2.209  -4.304  1.00  0.00     0.020 C 
BRANCH   3   4
HETATM    4  C6  UNK     1       2.014   0.701  -4.079  1.00  0.00     0.123 C 
BRANCH   4   5
HETATM    5  N1  UNK     1       0.861   0.299  -3.323  1.00  0.00    -0.357 N 
HETATM    6  C8  UNK     1      -0.348  -0.039  -3.909  1.00  0.00     0.257 C 
HETATM    7  O3  UNK     1      -0.599  -0.043  -5.109  1.00  0.00    -0.267 OA
HETATM    8  H15 UNK     1       0.951   0.284  -2.310  1.00  0.00     0.162 HD
BRANCH   6   9
HETATM    9  C10 UNK     1      -1.377  -0.420  -2.924  1.00  0.00     0.108 A 
HETATM   10  C16 UNK     1      -2.656   0.316  -2.800  1.00  0.00     0.304 A 
HETATM   11  O1  UNK     1      -3.548  -0.140  -1.834  1.00  0.00    -0.274 OA
HETATM   12  O5  UNK     1      -2.922   1.278  -3.512  1.00  0.00    -0.259 OA
HETATM   13  C18 UNK     1      -3.253  -1.245  -1.012  1.00  0.00     0.089 A 
HETATM   14  C14 UNK     1      -2.045  -1.923  -1.145  1.00  0.00    -0.001 A 
HETATM   15  C22 UNK     1      -4.209  -1.628  -0.073  1.00  0.00     0.038 A 
HETATM   16  C12 UNK     1      -1.091  -1.470  -2.146  1.00  0.00     0.037 A 
HETATM   17  C20 UNK     1      -1.788  -3.014  -0.312  1.00  0.00     0.014 A 
HETATM   18  C24 UNK     1      -2.738  -3.409   0.635  1.00  0.00     0.001 A 
HETATM   19  C26 UNK     1      -3.945  -2.718   0.754  1.00  0.00     0.003 A 
ENDBRANCH   6   9
ENDBRANCH   4   5
ENDBRANCH   3   4
ENDBRANCH   2   3
ENDBRANCH   1   2
BRANCH   1  20
HETATM   20  C3  UNK     1       3.487   3.442  -0.901  1.00  0.00     0.002 C 
BRANCH  20  21
HETATM   21  C5  UNK     1       4.729   3.054  -0.093  1.00  0.00     0.020 C 
BRANCH  21  22
HETATM   22  C7  UNK     1       4.705   1.595   0.351  1.00  0.00     0.123 C 
BRANCH  22  23
HETATM   23  N2  UNK     1       3.560   1.285   1.163  1.00  0.00    -0.357 N 
HETATM   24  C9  UNK     1       2.621   0.329   0.811  1.00  0.00     0.257 C 
HETATM   25  O4  UNK     1       2.629  -0.361  -0.202  1.00  0.00    -0.267 OA
HETATM   26  H16 UNK     1       3.461   1.781   2.045  1.00  0.00     0.162 HD
BRANCH  24  27
HETATM   27  C11 UNK     1       1.542   0.191   1.806  1.00  0.00     0.108 A 
HETATM   28  C17 UNK     1       1.813  -0.197   3.209  1.00  0.00     0.304 A 
HETATM   29  O2  UNK     1       0.711  -0.294   4.054  1.00  0.00    -0.274 OA
HETATM   30  O6  UNK     1       2.949  -0.422   3.612  1.00  0.00    -0.259 OA
HETATM   31  C19 UNK     1      -0.598  -0.037   3.602  1.00  0.00     0.089 A 
HETATM   32  C15 UNK     1      -0.830   0.326   2.279  1.00  0.00    -0.001 A 
HETATM   33  C23 UNK     1      -1.637  -0.160   4.522  1.00  0.00     0.038 A 
HETATM   34  C13 UNK     1       0.301   0.436   1.371  1.00  0.00     0.037 A 
HETATM   35  C21 UNK     1      -2.142   0.573   1.868  1.00  0.00     0.014 A 
HETATM   36  C25 UNK     1      -3.195   0.454   2.780  1.00  0.00     0.001 A 
HETATM   37  C27 UNK     1      -2.942   0.088   4.104  1.00  0.00     0.003 A 
ENDBRANCH  24  27
ENDBRANCH  22  23
ENDBRANCH  21  22
ENDBRANCH  20  21
ENDBRANCH   1  20
TORSDOF 10
