REMARK  2 active torsions:
REMARK  status: ('A' for Active; 'I' for Inactive)
REMARK       I    between atoms: C6_12  and  N1_5 
REMARK    1  A    between atoms: C9_15  and  N1_5 
REMARK    2  A    between atoms: C3_9  and  C6_12 
ROOT
HETATM    1  N2  UNK     1      -1.844   0.518   3.920  1.00  0.00    -0.191 NA
HETATM    2  C9  UNK     1      -2.694  -1.139   0.927  1.00  0.00     0.055 A 
HETATM    3  C12 UNK     1      -3.197  -0.872   2.200  1.00  0.00     0.071 A 
HETATM    4  C13 UNK     1      -3.445  -1.891   0.023  1.00  0.00     0.031 A 
HETATM    5  C14 UNK     1      -4.452  -1.357   2.569  1.00  0.00     0.025 A 
HETATM    6  C15 UNK     1      -4.700  -2.375   0.392  1.00  0.00     0.002 A 
HETATM    7  C16 UNK     1      -5.203  -2.109   1.665  1.00  0.00     0.002 A 
HETATM    8  C17 UNK     1      -2.449  -0.104   3.150  1.00  0.00     0.102 C 
ENDROOT
BRANCH   2   9
HETATM    9  N1  UNK     1      -1.423  -0.661   0.522  1.00  0.00    -0.321 N 
HETATM   10  C6  UNK     1      -0.799  -0.849  -0.704  1.00  0.00     0.262 C 
HETATM   11  O2  UNK     1      -1.219  -1.463  -1.683  1.00  0.00    -0.267 OA
HETATM   12  H4  UNK     1      -0.920  -0.116   1.217  1.00  0.00     0.169 HD
BRANCH  10  13
HETATM   13  C3  UNK     1       0.517  -0.203  -0.760  1.00  0.00     0.108 A 
HETATM   14  C4  UNK     1       0.678   0.733  -1.703  1.00  0.00     0.037 A 
HETATM   15  C1  UNK     1       1.948   1.429  -1.836  1.00  0.00     0.001 A 
HETATM   16  C2  UNK     1       2.987   1.106  -0.970  1.00  0.00     0.089 A 
HETATM   17  C5  UNK     1       2.159   2.413  -2.806  1.00  0.00     0.038 A 
HETATM   18  O1  UNK     1       2.812   0.120   0.020  1.00  0.00    -0.274 OA
HETATM   19  C8  UNK     1       4.228   1.735  -1.046  1.00  0.00     0.040 A 
HETATM   20  C7  UNK     1       1.609  -0.563   0.173  1.00  0.00     0.304 A 
HETATM   21  O3  UNK     1       1.466  -1.420   1.039  1.00  0.00    -0.259 OA
HETATM   22  C11 UNK     1       4.431   2.715  -2.015  1.00  0.00     0.026 A 
HETATM   23  C10 UNK     1       3.399   3.053  -2.894  1.00  0.00     0.035 A 
HETATM   24 Cl1  UNK     1       3.655   4.264  -4.091  1.00  0.00    -0.084 Cl
ENDBRANCH  10  13
ENDBRANCH   2   9
TORSDOF 2
