REMARK  7 active torsions:
REMARK  status: ('A' for Active; 'I' for Inactive)
REMARK    1  A    between atoms: C5_13  and  N1_5 
REMARK       I    between atoms: C15_23  and  N2_6 
REMARK    2  A    between atoms: N2_6  and  N3_7 
REMARK    3  A    between atoms: C26_34  and  N3_7 
REMARK    4  A    between atoms: C22_30  and  N4_8 
REMARK    5  A    between atoms: C26_34  and  N4_8 
REMARK    6  A    between atoms: C11_19  and  C5_13 
REMARK    7  A    between atoms: C10_18  and  C15_23 
ROOT
HETATM    1  O1  UNK     1       2.396   1.336   3.321  1.00  0.00    -0.266 OA
HETATM    2  N2  UNK     1       0.731   0.111   2.274  1.00  0.00    -0.264 N 
HETATM    3  C15 UNK     1       1.793   0.993   2.307  1.00  0.00     0.270 C 
HETATM    4  H17 UNK     1       0.329  -0.267   1.423  1.00  0.00     0.190 HD
ENDROOT
BRANCH   2   5
HETATM    5  N3  UNK     1       0.293  -0.444   3.456  1.00  0.00    -0.273 N 
HETATM    6  H18 UNK     1       0.989  -0.580   4.181  1.00  0.00     0.189 HD
BRANCH   5   7
HETATM    7  C26 UNK     1      -1.038  -0.798   3.649  1.00  0.00     0.191 C 
HETATM    8  S1  UNK     1      -1.445  -1.432   5.147  1.00  0.00    -0.039 SA
BRANCH   7   9
HETATM    9  N4  UNK     1      -1.868  -0.551   2.540  1.00  0.00    -0.332 N 
HETATM   10  H22 UNK     1      -1.498   0.169   1.923  1.00  0.00     0.168 HD
BRANCH   9  11
HETATM   11  C22 UNK     1      -3.038  -1.132   2.051  1.00  0.00     0.037 A 
HETATM   12  C23 UNK     1      -3.601  -2.224   2.702  1.00  0.00     0.067 A 
HETATM   13  C20 UNK     1      -4.772  -2.790   2.196  1.00  0.00     0.092 A 
HETATM   14  C19 UNK     1      -5.405  -2.296   1.054  1.00  0.00     0.004 A 
HETATM   15  O2  UNK     1      -5.295  -3.894   2.899  1.00  0.00    -0.275 OA
HETATM   16  C21 UNK     1      -6.635  -2.953   0.592  1.00  0.00    -0.043 A 
HETATM   17  C24 UNK     1      -4.823  -1.195   0.412  1.00  0.00     0.017 A 
HETATM   18  C27 UNK     1      -7.109  -4.001   1.280  1.00  0.00     0.090 A 
HETATM   19  C28 UNK     1      -7.339  -2.447  -0.633  1.00  0.00     0.049 C 
HETATM   20  C29 UNK     1      -6.454  -4.533   2.487  1.00  0.00     0.288 A 
HETATM   21  O3  UNK     1      -6.917  -5.494   3.091  1.00  0.00    -0.260 OA
HETATM   22  C25 UNK     1      -3.648  -0.618   0.908  1.00  0.00     0.030 A 
ENDBRANCH   9  11
ENDBRANCH   7   9
ENDBRANCH   5   7
ENDBRANCH   2   5
BRANCH   3  23
HETATM   23  C10 UNK     1       2.196   1.559   0.993  1.00  0.00     0.034 A 
HETATM   24  C6  UNK     1       1.239   1.659  -0.002  1.00  0.00     0.031 A 
HETATM   25  C2  UNK     1       1.628   2.196  -1.246  1.00  0.00    -0.000 A 
HETATM   26  C1  UNK     1       2.953   2.600  -1.417  1.00  0.00     0.045 A 
HETATM   27  C4  UNK     1       0.952   2.449  -2.471  1.00  0.00    -0.027 A 
HETATM   28  N1  UNK     1       3.067   3.080  -2.703  1.00  0.00    -0.345 N 
HETATM   29  C7  UNK     1       3.913   2.495  -0.404  1.00  0.00     0.031 A 
HETATM   30  C3  UNK     1       1.863   2.993  -3.347  1.00  0.00     0.015 A 
HETATM   31  C8  UNK     1       1.689   3.437  -4.747  1.00  0.00     0.069 C 
HETATM   32  C12 UNK     1       3.503   1.959   0.821  1.00  0.00     0.019 A 
HETATM   33  C9  UNK     1      -0.474   2.178  -2.754  1.00  0.00     0.051 C 
BRANCH  28  34
HETATM   34  C5  UNK     1       4.286   3.603  -3.287  1.00  0.00     0.167 C 
BRANCH  34  35
HETATM   35  C11 UNK     1       5.082   2.517  -3.958  1.00  0.00    -0.040 A 
HETATM   36  C13 UNK     1       6.030   1.813  -3.228  1.00  0.00     0.009 A 
HETATM   37  C16 UNK     1       6.769   0.806  -3.850  1.00  0.00     0.001 A 
HETATM   38  C18 UNK     1       6.552   0.513  -5.196  1.00  0.00     0.000 A 
HETATM   39  C17 UNK     1       5.597   1.226  -5.921  1.00  0.00     0.001 A 
HETATM   40  C14 UNK     1       4.859   2.233  -5.298  1.00  0.00     0.009 A 
ENDBRANCH  34  35
ENDBRANCH  28  34
ENDBRANCH   3  23
TORSDOF 7
