REMARK  5 active torsions:
REMARK  status: ('A' for Active; 'I' for Inactive)
REMARK    1  A    between atoms: C5_12  and  N1_5 
REMARK    2  A    between atoms: C6_13  and  N2_6 
REMARK    3  A    between atoms: C15_22  and  N3_7 
REMARK       I    between atoms: C8_15  and  N3_7 
REMARK    4  A    between atoms: C5_12  and  C7_14 
REMARK    5  A    between atoms: C6_13  and  C8_15 
ROOT
HETATM    1  N1  UNK     1       1.910  -0.028  -0.535  1.00  0.00     0.096 N 
HETATM    2  N2  UNK     1      -0.174  -0.849   1.294  1.00  0.00     0.100 N 
HETATM    3  C1  UNK     1       0.561  -0.356  -1.013  1.00  0.00     0.303 C 
HETATM    4  C2  UNK     1       2.220  -0.786   0.684  1.00  0.00     0.303 C 
HETATM    5  C3  UNK     1      -0.484  -0.090   0.076  1.00  0.00     0.303 C 
HETATM    6  C4  UNK     1       1.174  -0.519   1.773  1.00  0.00     0.303 C 
ENDROOT
BRANCH   1   7
HETATM    7  C5  UNK     1       2.906  -0.285  -1.573  1.00  0.00     0.312 C 
BRANCH   7   8
HETATM    8  C7  UNK     1       2.968   0.814  -2.576  1.00  0.00    -0.011 A 
HETATM    9  C10 UNK     1       2.201   0.794  -3.675  1.00  0.00     0.092 A 
HETATM   10  C13 UNK     1       2.228   1.857  -4.694  1.00  0.00     0.288 A 
HETATM   11  O1  UNK     1       3.101   2.911  -4.471  1.00  0.00    -0.275 OA
HETATM   12  O3  UNK     1       1.511   1.805  -5.687  1.00  0.00    -0.260 OA
HETATM   13  C11 UNK     1       3.920   2.960  -3.325  1.00  0.00     0.090 A 
HETATM   14  C9  UNK     1       3.883   1.944  -2.368  1.00  0.00     0.006 A 
HETATM   15  C14 UNK     1       4.760   4.068  -3.204  1.00  0.00     0.045 A 
HETATM   16  C12 UNK     1       4.729   2.067  -1.257  1.00  0.00     0.015 A 
HETATM   17  C17 UNK     1       5.577   3.172  -1.122  1.00  0.00     0.007 A 
HETATM   18  C16 UNK     1       5.592   4.171  -2.094  1.00  0.00    -0.059 A 
HETATM   19  C19 UNK     1       6.497   5.346  -1.944  1.00  0.00     0.048 C 
ENDBRANCH   7   8
ENDBRANCH   1   7
BRANCH   2  20
HETATM   20  C6  UNK     1      -1.170  -0.594   2.333  1.00  0.00     0.375 C 
BRANCH  20  21
HETATM   21  C8  UNK     1      -2.412  -1.434   2.062  1.00  0.00     0.252 C 
HETATM   22  O2  UNK     1      -2.469  -2.138   1.051  1.00  0.00    -0.271 OA
HETATM   23  N3  UNK     1      -3.453  -1.304   3.011  1.00  0.00    -0.321 N 
HETATM   24  C18 UNK     1      -3.326  -0.448   4.200  1.00  0.00     0.159 C 
BRANCH  23  25
HETATM   25  C15 UNK     1      -4.743  -1.931   2.800  1.00  0.00     0.036 A 
HETATM   26  C20 UNK     1      -5.222  -2.122   1.504  1.00  0.00     0.033 A 
HETATM   27  C22 UNK     1      -6.463  -2.726   1.302  1.00  0.00     0.044 A 
HETATM   28  C24 UNK     1      -7.225  -3.138   2.395  1.00  0.00     0.116 A 
HETATM   29  C23 UNK     1      -6.745  -2.948   3.691  1.00  0.00     0.044 A 
HETATM   30  F1  UNK     1      -8.417  -3.717   2.201  1.00  0.00    -0.206 F 
HETATM   31  C21 UNK     1      -5.504  -2.344   3.894  1.00  0.00     0.033 A 
ENDBRANCH  23  25
ENDBRANCH  20  21
ENDBRANCH   2  20
TORSDOF 5
