REMARK  6 active torsions:
REMARK  status: ('A' for Active; 'I' for Inactive)
REMARK    1  A    between atoms: C3_14  and  O2_2 
REMARK       I    between atoms: C14_25  and  N1_9 
REMARK    2  A    between atoms: C5_16  and  N1_9 
REMARK    3  A    between atoms: C16_27  and  N2_10 
REMARK    4  A    between atoms: C21_32  and  N3_11 
REMARK    5  A    between atoms: C1_12  and  C2_13 
REMARK    6  A    between atoms: C12_23  and  C14_25 
ROOT
HETATM    1  C1  UNK     1       1.808   1.150  -1.199  1.00  0.00     0.014 A 
HETATM    2  C3  UNK     1       0.772   1.987  -0.781  1.00  0.00     0.081 A 
HETATM    3  C5  UNK     1      -0.519   0.057  -0.112  1.00  0.00     0.037 A 
HETATM    4  C7  UNK     1       1.679  -0.233  -1.072  1.00  0.00     0.017 A 
HETATM    5  C8  UNK     1      -0.391   1.440  -0.238  1.00  0.00     0.067 A 
HETATM    6  C10 UNK     1       0.516  -0.780  -0.529  1.00  0.00     0.030 A 
ENDROOT
BRANCH   3   7
HETATM    7  N1  UNK     1      -1.683  -0.490   0.429  1.00  0.00    -0.323 N 
HETATM    8  C14 UNK     1      -1.988  -1.843   0.630  1.00  0.00     0.258 C 
HETATM    9  O4  UNK     1      -1.276  -2.805   0.362  1.00  0.00    -0.267 OA
HETATM   10  H5  UNK     1      -2.393   0.184   0.706  1.00  0.00     0.169 HD
BRANCH   8  11
HETATM   11  C12 UNK     1      -3.331  -2.114   1.206  1.00  0.00     0.065 A 
HETATM   12  C16 UNK     1      -3.508  -2.183   2.573  1.00  0.00     0.120 A 
HETATM   13  C20 UNK     1      -4.783  -2.439   3.077  1.00  0.00     0.073 A 
HETATM   14  C21 UNK     1      -5.855  -2.622   2.203  1.00  0.00     0.105 A 
HETATM   15  C22 UNK     1      -5.652  -2.548   0.825  1.00  0.00     0.037 A 
HETATM   16  C18 UNK     1      -4.377  -2.291   0.321  1.00  0.00     0.022 A 
BRANCH  12  17
HETATM   17  N2  UNK     1      -2.431  -2.000   3.485  1.00  0.00    -0.115 N 
HETATM   18  O5  UNK     1      -2.660  -2.075   4.715  1.00  0.00    -0.532 OA
HETATM   19  O6  UNK     1      -1.286  -1.770   3.030  1.00  0.00    -0.532 OA
ENDBRANCH  12  17
BRANCH  14  20
HETATM   20  N3  UNK     1      -7.153  -2.883   2.716  1.00  0.00    -0.116 N 
HETATM   21  O7  UNK     1      -8.103  -3.044   1.913  1.00  0.00    -0.532 OA
HETATM   22  O8  UNK     1      -7.315  -2.946   3.959  1.00  0.00    -0.532 OA
ENDBRANCH  14  20
ENDBRANCH   8  11
ENDBRANCH   3   7
BRANCH   2  23
HETATM   23  O2  UNK     1       0.872   3.342  -0.894  1.00  0.00    -0.355 OA
HETATM   24  C23 UNK     1       1.434   4.043   0.213  1.00  0.00     0.210 C 
ENDBRANCH   2  23
BRANCH   1  25
HETATM   25  C2  UNK     1       3.047   1.703  -1.776  1.00  0.00     0.053 A 
HETATM   26  C11 UNK     1       4.207   2.026  -0.899  1.00  0.00     0.299 A 
HETATM   27  O1  UNK     1       5.352   2.516  -1.522  1.00  0.00    -0.274 OA
HETATM   28  O3  UNK     1       4.165   1.877   0.318  1.00  0.00    -0.259 OA
HETATM   29  C9  UNK     1       5.416   2.719  -2.913  1.00  0.00     0.089 A 
HETATM   30  C15 UNK     1       6.603   3.225  -3.441  1.00  0.00     0.038 A 
HETATM   31  C4  UNK     1       4.324   2.422  -3.720  1.00  0.00    -0.001 A 
HETATM   32  C19 UNK     1       6.694   3.437  -4.815  1.00  0.00     0.003 A 
HETATM   33  C17 UNK     1       5.608   3.144  -5.641  1.00  0.00     0.001 A 
HETATM   34  C13 UNK     1       4.424   2.637  -5.096  1.00  0.00     0.014 A 
HETATM   35  C6  UNK     1       3.119   1.894  -3.102  1.00  0.00     0.032 A 
ENDBRANCH   1  25
TORSDOF 6
