REMARK  6 active torsions:
REMARK  status: ('A' for Active; 'I' for Inactive)
REMARK    1  A    between atoms: C12_20  and  O2_2 
REMARK    2  A    between atoms: C13_21  and  O3_3 
REMARK    3  A    between atoms: C19_27  and  O3_3 
REMARK    4  A    between atoms: C12_20  and  C2_10 
REMARK    5  A    between atoms: C11_19  and  C6_14 
REMARK    6  A    between atoms: C13_21  and  C8_16 
ROOT
HETATM    1  O1  UNK     1      -1.324  -2.147  -0.189  1.00  0.00    -0.292 OA
HETATM    2  N1  UNK     1       0.049   0.976   3.095  1.00  0.00    -0.362 N 
HETATM    3  C1  UNK     1      -3.307  -0.634   2.443  1.00  0.00     0.008 C 
HETATM    4  C2  UNK     1      -2.791  -1.871   1.695  1.00  0.00     0.164 C 
HETATM    5  C3  UNK     1      -2.168  -0.059   3.299  1.00  0.00     0.063 C 
HETATM    6  C4  UNK     1      -0.605  -0.520   1.380  1.00  0.00     0.025 C 
HETATM    7  C5  UNK     1      -0.878   0.117   2.538  1.00  0.00     0.020 C 
HETATM    8  C6  UNK     1       0.691  -0.253   0.618  1.00  0.00     0.104 C 
HETATM    9  C7  UNK     1      -1.565  -1.545   0.857  1.00  0.00     0.172 C 
HETATM   10  C8  UNK     1       1.692   0.560   1.443  1.00  0.00     0.052 C 
HETATM   11  C9  UNK     1      -3.897   0.439   1.515  1.00  0.00     0.011 C 
HETATM   12  C10 UNK     1       1.333   1.156   2.604  1.00  0.00     0.018 C 
HETATM   13  C14 UNK     1       2.224   2.021   3.453  1.00  0.00     0.069 C 
HETATM   14  H9  UNK     1      -0.190   1.431   3.969  1.00  0.00     0.165 HD
ENDROOT
BRANCH   8  15
HETATM   15  C11 UNK     1       0.403   0.447  -0.687  1.00  0.00     0.029 A 
HETATM   16  C15 UNK     1       0.770  -0.236  -1.954  1.00  0.00     0.194 A 
HETATM   17  O7  UNK     1       1.294  -1.342  -1.969  1.00  0.00    -0.287 OA
HETATM   18  C17 UNK     1       0.469   0.492  -3.200  1.00  0.00     0.048 A 
HETATM   19  C18 UNK     1      -0.129   1.750  -3.123  1.00  0.00     0.089 A 
HETATM   20  C20 UNK     1       0.776  -0.066  -4.444  1.00  0.00     0.018 A 
HETATM   21  O4  UNK     1      -0.453   2.345  -1.929  1.00  0.00    -0.321 OA
HETATM   22  C22 UNK     1      -0.423   2.457  -4.289  1.00  0.00     0.038 A 
HETATM   23  C16 UNK     1      -0.166   1.656  -0.777  1.00  0.00     0.154 A 
HETATM   24  C26 UNK     1      -0.117   1.902  -5.532  1.00  0.00     0.003 A 
HETATM   25  C23 UNK     1       0.481   0.644  -5.609  1.00  0.00     0.001 A 
ENDBRANCH   8  15
BRANCH  10  26
HETATM   26  C13 UNK     1       3.076   0.612   0.942  1.00  0.00     0.292 C 
HETATM   27  O6  UNK     1       3.919  -0.219   1.220  1.00  0.00    -0.259 OA
BRANCH  26  28
HETATM   28  O3  UNK     1       3.204   1.708   0.156  1.00  0.00    -0.313 OA
BRANCH  28  29
HETATM   29  C19 UNK     1       4.504   1.898  -0.412  1.00  0.00     0.124 C 
HETATM   30  C24 UNK     1       4.868   0.681  -1.249  1.00  0.00     0.040 C 
HETATM   31  C25 UNK     1       4.509   3.176  -1.237  1.00  0.00     0.040 C 
ENDBRANCH  28  29
ENDBRANCH  26  28
ENDBRANCH  10  26
BRANCH   4  32
HETATM   32  C12 UNK     1      -3.896  -2.523   0.922  1.00  0.00     0.270 C 
HETATM   33  O5  UNK     1      -3.869  -2.711  -0.287  1.00  0.00    -0.264 OA
BRANCH  32  34
HETATM   34  O2  UNK     1      -4.908  -2.861   1.771  1.00  0.00    -0.326 OA
HETATM   35  C21 UNK     1      -6.036  -3.497   1.160  1.00  0.00     0.213 C 
ENDBRANCH  32  34
ENDBRANCH   4  32
TORSDOF 6
