REMARK  6 active torsions:
REMARK  status: ('A' for Active; 'I' for Inactive)
REMARK    1  A    between atoms: C1_7  and  O1_2 
REMARK    2  A    between atoms: C7_13  and  O1_2 
REMARK    3  A    between atoms: C8_14  and  O2_3 
REMARK    4  A    between atoms: C9_15  and  O2_3 
REMARK    5  A    between atoms: C7_13  and  C8_14 
REMARK    6  A    between atoms: C13_19  and  C17_23 
ROOT
HETATM    1  O4  UNK     1       0.705   0.709   1.756  1.00  0.00    -0.321 OA
HETATM    2  O5  UNK     1      -1.319   2.628  -1.222  1.00  0.00    -0.286 OA
HETATM    3  C9  UNK     1       0.362  -2.055  -0.594  1.00  0.00     0.072 A 
HETATM    4  C10 UNK     1      -0.360   0.632  -0.423  1.00  0.00     0.049 A 
HETATM    5  C11 UNK     1       0.342   0.031   0.621  1.00  0.00     0.091 A 
HETATM    6  C12 UNK     1       0.704  -1.314   0.537  1.00  0.00     0.075 A 
HETATM    7  C13 UNK     1      -0.333   2.748   0.942  1.00  0.00     0.048 A 
HETATM    8  C14 UNK     1      -0.729   2.055  -0.315  1.00  0.00     0.197 A 
HETATM    9  C15 UNK     1      -0.340  -1.454  -1.638  1.00  0.00     0.038 A 
HETATM   10  C16 UNK     1      -0.704  -0.109  -1.557  1.00  0.00     0.021 A 
HETATM   11  C18 UNK     1       0.338   2.029   1.855  1.00  0.00     0.159 A 
ENDROOT
BRANCH   3  12
HETATM   12  O2  UNK     1       0.715  -3.372  -0.678  1.00  0.00    -0.341 OA
BRANCH  12  13
HETATM   13  C8  UNK     1       1.425  -3.919   0.414  1.00  0.00     0.286 C 
BRANCH  13  14
HETATM   14  C7  UNK     1       1.731  -5.364   0.121  1.00  0.00     0.283 C 
HETATM   15  O3  UNK     1       1.394  -5.960  -0.893  1.00  0.00    -0.263 OA
BRANCH  14  16
HETATM   16  O1  UNK     1       2.440  -5.897   1.163  1.00  0.00    -0.314 OA
BRANCH  16  17
HETATM   17  C1  UNK     1       2.251  -7.289   1.394  1.00  0.00     0.132 C 
HETATM   18  C2  UNK     1       3.131  -7.740   2.559  1.00  0.00     0.032 C 
HETATM   19  C4  UNK     1       2.892  -9.205   2.909  1.00  0.00     0.002 C 
HETATM   20  C6  UNK     1       1.415  -9.485   3.175  1.00  0.00     0.000 C 
HETATM   21  C5  UNK     1       0.534  -9.034   2.012  1.00  0.00     0.002 C 
HETATM   22  C3  UNK     1       0.774  -7.568   1.663  1.00  0.00     0.032 C 
ENDBRANCH  16  17
ENDBRANCH  14  16
ENDBRANCH  13  14
ENDBRANCH  12  13
ENDBRANCH   3  12
BRANCH   7  23
HETATM   23  C17 UNK     1      -0.673   4.158   1.195  1.00  0.00    -0.020 A 
HETATM   24  C19 UNK     1       0.211   5.171   0.817  1.00  0.00     0.014 A 
HETATM   25  C21 UNK     1      -0.111   6.507   1.057  1.00  0.00     0.024 A 
HETATM   26  C23 UNK     1      -1.318   6.833   1.676  1.00  0.00     0.034 A 
HETATM   27  C22 UNK     1      -2.202   5.823   2.055  1.00  0.00     0.024 A 
HETATM   28 Cl1  UNK     1      -1.715   8.481   1.972  1.00  0.00    -0.084 Cl
HETATM   29  C20 UNK     1      -1.880   4.487   1.815  1.00  0.00     0.014 A 
ENDBRANCH   7  23
TORSDOF 6
