REMARK  4 active torsions:
REMARK  status: ('A' for Active; 'I' for Inactive)
REMARK    1  A    between atoms: C1_7  and  O1_1 
REMARK    2  A    between atoms: C17_23  and  O1_1 
REMARK    3  A    between atoms: C16_22  and  C4_10 
REMARK    4  A    between atoms: C10_16  and  C17_23 
ROOT
HETATM    1  O2  UNK     1       2.330   2.861   0.873  1.00  0.00    -0.293 OA
HETATM    2  N1  UNK     1       2.419   0.659  -3.323  1.00  0.00    -0.362 N 
HETATM    3  C4  UNK     1       0.845   1.309  -1.052  1.00  0.00     0.104 C 
HETATM    4  C8  UNK     1       2.313   1.697  -1.197  1.00  0.00     0.024 C 
HETATM    5  C9  UNK     1       3.024   1.349  -2.291  1.00  0.00     0.020 C 
HETATM    6  C10 UNK     1       0.272   0.683  -2.325  1.00  0.00     0.052 C 
HETATM    7  C11 UNK     1       4.472   1.715  -2.489  1.00  0.00     0.058 C 
HETATM    8  C12 UNK     1       4.890   2.911  -1.643  1.00  0.00     0.014 C 
HETATM    9  C13 UNK     1       4.460   2.732  -0.198  1.00  0.00     0.084 C 
HETATM   10  C14 UNK     1       1.065   0.364  -3.374  1.00  0.00     0.018 C 
HETATM   11  C15 UNK     1       2.972   2.478  -0.104  1.00  0.00     0.158 C 
HETATM   12  C18 UNK     1       0.606  -0.298  -4.645  1.00  0.00     0.069 C 
HETATM   13  H19 UNK     1       2.985   0.415  -4.128  1.00  0.00     0.165 HD
ENDROOT
BRANCH   3  14
HETATM   14  C16 UNK     1       0.659   0.372   0.111  1.00  0.00     0.029 A 
HETATM   15  C19 UNK     1      -0.193   0.812   1.245  1.00  0.00     0.194 A 
HETATM   16  C21 UNK     1      -0.342  -0.143   2.359  1.00  0.00     0.049 A 
HETATM   17  O5  UNK     1      -0.746   1.904   1.259  1.00  0.00    -0.287 OA
HETATM   18  C22 UNK     1       0.310  -1.375   2.289  1.00  0.00     0.089 A 
HETATM   19  C23 UNK     1      -1.123   0.177   3.472  1.00  0.00     0.025 A 
HETATM   20  C24 UNK     1       0.183  -2.293   3.331  1.00  0.00     0.039 A 
HETATM   21  O3  UNK     1       1.089  -1.741   1.220  1.00  0.00    -0.321 OA
HETATM   22  C26 UNK     1      -0.596  -1.976   4.444  1.00  0.00     0.009 A 
HETATM   23  C25 UNK     1      -1.248  -0.743   4.514  1.00  0.00    -0.061 A 
HETATM   24  C27 UNK     1      -2.080  -0.410   5.706  1.00  0.00     0.048 C 
HETATM   25  C20 UNK     1       1.218  -0.842   0.190  1.00  0.00     0.154 A 
ENDBRANCH   3  14
BRANCH   6  26
HETATM   26  C17 UNK     1      -1.188   0.498  -2.371  1.00  0.00     0.292 C 
HETATM   27  O4  UNK     1      -1.958   1.356  -2.759  1.00  0.00    -0.259 OA
BRANCH  26  28
HETATM   28  O1  UNK     1      -1.475  -0.746  -1.920  1.00  0.00    -0.312 OA
BRANCH  28  29
HETATM   29  C1  UNK     1      -2.860  -1.077  -1.904  1.00  0.00     0.132 C 
HETATM   30  C2  UNK     1      -3.038  -2.512  -1.410  1.00  0.00     0.032 C 
HETATM   31  C5  UNK     1      -4.512  -2.883  -1.283  1.00  0.00     0.002 C 
HETATM   32  C7  UNK     1      -5.268  -1.886  -0.407  1.00  0.00     0.000 C 
HETATM   33  C6  UNK     1      -5.090  -0.451  -0.899  1.00  0.00     0.002 C 
HETATM   34  C3  UNK     1      -3.615  -0.081  -1.026  1.00  0.00     0.032 C 
ENDBRANCH  28  29
ENDBRANCH  26  28
ENDBRANCH   6  26
TORSDOF 4
