REMARK  6 active torsions:
REMARK  status: ('A' for Active; 'I' for Inactive)
REMARK    1  A    between atoms: C3_7  and  N1_3 
REMARK    2  A    between atoms: C6_10  and  N2_4 
REMARK       I    between atoms: C7_11  and  N2_4 
REMARK    3  A    between atoms: C3_7  and  C6_10 
REMARK    4  A    between atoms: C7_11  and  C8_12 
REMARK    5  A    between atoms: C8_12  and  C9_13 
REMARK    6  A    between atoms: C10_14  and  C11_15 
ROOT
HETATM    1  C8  UNK     1      -1.810  -0.700   0.932  1.00  0.00     0.043 C 
HETATM    2  C10 UNK     1      -1.093  -0.878   2.061  1.00  0.00     0.029 C 
ENDROOT
BRANCH   1   3
HETATM    3  C7  UNK     1      -1.235   0.267  -0.072  1.00  0.00     0.252 C 
HETATM    4  O2  UNK     1      -1.491   1.469  -0.034  1.00  0.00    -0.268 OA
HETATM    5  N2  UNK     1      -0.400  -0.315  -1.019  1.00  0.00    -0.355 N 
HETATM    6  H13 UNK     1      -0.226  -1.315  -0.981  1.00  0.00     0.162 HD
BRANCH   5   7
HETATM    7  C6  UNK     1       0.245   0.450  -2.050  1.00  0.00     0.153 C 
BRANCH   7   8
HETATM    8  C3  UNK     1       1.606   0.954  -1.593  1.00  0.00     0.292 C 
BRANCH   8   9
HETATM    9  N1  UNK     1       2.240   1.737  -2.652  1.00  0.00     0.094 N 
HETATM   10  C1  UNK     1       3.516   2.301  -2.191  1.00  0.00     0.298 C 
HETATM   11  C4  UNK     1       4.163   3.104  -3.316  1.00  0.00     0.198 C 
HETATM   12  O1  UNK     1       4.369   2.277  -4.461  1.00  0.00    -0.388 OA
HETATM   13  C5  UNK     1       3.130   1.750  -4.936  1.00  0.00     0.198 C 
HETATM   14  C2  UNK     1       2.456   0.915  -3.850  1.00  0.00     0.298 C 
ENDBRANCH   8   9
ENDBRANCH   7   8
ENDBRANCH   5   7
ENDBRANCH   1   3
BRANCH   1  15
HETATM   15  C9  UNK     1      -3.093  -1.392   0.701  1.00  0.00    -0.021 A 
HETATM   16  C12 UNK     1      -3.300  -2.639   1.265  1.00  0.00     0.012 A 
HETATM   17  C14 UNK     1      -4.512  -3.293   1.046  1.00  0.00     0.001 A 
HETATM   18  C18 UNK     1      -5.499  -2.690   0.267  1.00  0.00     0.000 A 
HETATM   19  C15 UNK     1      -5.274  -1.433  -0.294  1.00  0.00     0.001 A 
HETATM   20  C13 UNK     1      -4.062  -0.779  -0.075  1.00  0.00     0.012 A 
ENDBRANCH   1  15
BRANCH   2  21
HETATM   21  C11 UNK     1       0.190  -0.233   2.375  1.00  0.00    -0.035 A 
HETATM   22  C16 UNK     1       1.374  -0.860   2.018  1.00  0.00     0.011 A 
HETATM   23  C19 UNK     1       2.592  -0.248   2.316  1.00  0.00     0.001 A 
HETATM   24  C21 UNK     1       2.611   0.985   2.968  1.00  0.00     0.000 A 
HETATM   25  C20 UNK     1       1.413   1.605   3.322  1.00  0.00     0.001 A 
HETATM   26  C17 UNK     1       0.196   0.993   3.024  1.00  0.00     0.011 A 
ENDBRANCH   2  21
TORSDOF 6
