REMARK  5 active torsions:
REMARK  status: ('A' for Active; 'I' for Inactive)
REMARK    1  A    between atoms: C5_11  and  O2_2 
REMARK    2  A    between atoms: C6_12  and  O2_2 
REMARK    3  A    between atoms: C13_19  and  O5_5 
REMARK    4  A    between atoms: C14_20  and  O5_5 
REMARK    5  A    between atoms: C2_8  and  C5_11 
ROOT
HETATM    1  O4  UNK     1      -1.417   1.758  -1.016  1.00  0.00    -0.319 OA
HETATM    2  O6  UNK     1       1.836  -0.280  -2.408  1.00  0.00    -0.284 OA
HETATM    3  C6  UNK     1      -2.350  -1.602   0.046  1.00  0.00     0.082 A 
HETATM    4  C7  UNK     1      -0.244  -0.355  -1.286  1.00  0.00     0.051 A 
HETATM    5  C8  UNK     1      -1.329   0.400  -0.834  1.00  0.00     0.092 A 
HETATM    6  C9  UNK     1      -2.384  -0.224  -0.167  1.00  0.00     0.075 A 
HETATM    7  C10 UNK     1      -1.265  -2.356  -0.405  1.00  0.00     0.038 A 
HETATM    8  C11 UNK     1      -0.208  -1.735  -1.073  1.00  0.00     0.021 A 
HETATM    9  C12 UNK     1       0.859   0.326  -1.989  1.00  0.00     0.220 A 
HETATM   10  C13 UNK     1       0.714   1.789  -2.158  1.00  0.00     0.149 A 
HETATM   11  C17 UNK     1      -0.383   2.379  -1.673  1.00  0.00     0.184 A 
ENDROOT
BRANCH  10  12
HETATM   12  O5  UNK     1       1.699   2.498  -2.803  1.00  0.00    -0.305 OA
BRANCH  12  13
HETATM   13  C14 UNK     1       2.952   2.460  -2.257  1.00  0.00     0.077 A 
HETATM   14  C18 UNK     1       3.112   2.621  -0.884  1.00  0.00     0.044 A 
HETATM   15  C16 UNK     1       4.390   2.583  -0.326  1.00  0.00    -0.059 A 
HETATM   16  C20 UNK     1       5.502   2.384  -1.144  1.00  0.00     0.013 A 
HETATM   17  C22 UNK     1       4.567   2.756   1.145  1.00  0.00     0.048 C 
HETATM   18  C15 UNK     1       5.336   2.223  -2.519  1.00  0.00    -0.059 A 
HETATM   19  C19 UNK     1       4.058   2.261  -3.077  1.00  0.00     0.044 A 
HETATM   20  C21 UNK     1       6.526   2.011  -3.393  1.00  0.00     0.048 C 
ENDBRANCH  12  13
ENDBRANCH  10  12
BRANCH   3  21
HETATM   21  O2  UNK     1      -3.378  -2.214   0.697  1.00  0.00    -0.277 OA
BRANCH  21  22
HETATM   22  C5  UNK     1      -3.214  -2.283   2.090  1.00  0.00     0.293 C 
HETATM   23  O3  UNK     1      -2.256  -1.853   2.720  1.00  0.00    -0.262 OA
BRANCH  22  24
HETATM   24  C2  UNK     1      -4.390  -2.970   2.711  1.00  0.00     0.221 C 
HETATM   25  C1  UNK     1      -5.677  -2.187   2.537  1.00  0.00     0.044 C 
HETATM   26  C3  UNK     1      -5.714  -1.336   3.784  1.00  0.00     0.029 C 
HETATM   27  C4  UNK     1      -5.094  -2.257   4.811  1.00  0.00     0.169 C 
HETATM   28  O1  UNK     1      -4.120  -3.045   4.114  1.00  0.00    -0.376 OA
ENDBRANCH  22  24
ENDBRANCH  21  22
ENDBRANCH   3  21
TORSDOF 5
