REMARK  4 active torsions:
REMARK  status: ('A' for Active; 'I' for Inactive)
REMARK    1  A    between atoms: C17_21  and  O2_2 
REMARK    2  A    between atoms: C5_9  and  O2_2 
REMARK    3  A    between atoms: C3_7  and  C7_11 
REMARK    4  A    between atoms: C17_21  and  C18_22 
ROOT
HETATM    1  O1  UNK     1      -2.349  -0.584  -1.906  1.00  0.00    -0.274 OA
HETATM    2  O3  UNK     1      -4.544  -1.135  -2.228  1.00  0.00    -0.260 OA
HETATM    3  C1  UNK     1      -1.405  -0.733   0.338  1.00  0.00     0.010 A 
HETATM    4  C2  UNK     1      -1.265  -0.445  -1.018  1.00  0.00     0.099 A 
HETATM    5  C3  UNK     1      -2.709  -1.186   0.845  1.00  0.00    -0.007 A 
HETATM    6  C4  UNK     1      -0.056  -0.010  -1.564  1.00  0.00     0.007 A 
HETATM    7  C5  UNK     1       1.048   0.143  -0.731  1.00  0.00     0.088 A 
HETATM    8  C6  UNK     1      -0.283  -0.574   1.163  1.00  0.00     0.018 A 
HETATM    9  C8  UNK     1       0.935  -0.139   0.630  1.00  0.00     0.039 A 
HETATM   10  C9  UNK     1      -3.723  -1.307  -0.027  1.00  0.00     0.095 A 
HETATM   11  C10 UNK     1       0.056   0.289  -3.023  1.00  0.00     0.054 C 
HETATM   12  C11 UNK     1      -3.592  -1.010  -1.465  1.00  0.00     0.289 A 
ENDROOT
BRANCH   7  13
HETATM   13  O2  UNK     1       2.244   0.566  -1.226  1.00  0.00    -0.274 OA
BRANCH  13  14
HETATM   14  C17 UNK     1       2.415   1.952  -1.213  1.00  0.00     0.298 C 
HETATM   15  O4  UNK     1       1.603   2.765  -0.798  1.00  0.00    -0.259 OA
BRANCH  14  16
HETATM   16  C18 UNK     1       3.739   2.335  -1.766  1.00  0.00     0.039 A 
HETATM   17  C19 UNK     1       4.354   3.475  -1.293  1.00  0.00     0.017 A 
HETATM   18  C21 UNK     1       5.598   3.835  -1.813  1.00  0.00     0.001 A 
HETATM   19  C23 UNK     1       6.199   3.046  -2.794  1.00  0.00     0.000 A 
HETATM   20  C22 UNK     1       5.556   1.897  -3.255  1.00  0.00     0.001 A 
HETATM   21  C20 UNK     1       4.312   1.538  -2.735  1.00  0.00     0.017 A 
ENDBRANCH  14  16
ENDBRANCH  13  14
ENDBRANCH   7  13
BRANCH   5  22
HETATM   22  C7  UNK     1      -3.023  -1.526   2.230  1.00  0.00    -0.025 A 
HETATM   23  C12 UNK     1      -3.490  -0.541   3.095  1.00  0.00     0.012 A 
HETATM   24  C14 UNK     1      -3.790  -0.866   4.418  1.00  0.00     0.001 A 
HETATM   25  C16 UNK     1      -3.623  -2.175   4.870  1.00  0.00     0.000 A 
HETATM   26  C15 UNK     1      -3.155  -3.159   4.000  1.00  0.00     0.001 A 
HETATM   27  C13 UNK     1      -2.855  -2.834   2.677  1.00  0.00     0.012 A 
ENDBRANCH   5  22
TORSDOF 4
