REMARK  2 active torsions:
REMARK  status: ('A' for Active; 'I' for Inactive)
REMARK    1  A    between atoms: C11_14  and  O2_2 
REMARK    2  A    between atoms: C5_8  and  O2_2 
ROOT
HETATM    1  O1  UNK     1      -1.734  -0.420  -1.052  1.00  0.00    -0.275 OA
HETATM    2  O3  UNK     1      -3.738  -1.513  -0.921  1.00  0.00    -0.260 OA
HETATM    3  C1  UNK     1      -0.388  -0.146   0.969  1.00  0.00     0.004 A 
HETATM    4  C2  UNK     1      -0.578   0.053  -0.400  1.00  0.00     0.092 A 
HETATM    5  C3  UNK     1      -1.424  -0.862   1.725  1.00  0.00    -0.043 A 
HETATM    6  C4  UNK     1       0.789   0.353   1.542  1.00  0.00     0.017 A 
HETATM    7  C5  UNK     1       1.519   1.211  -0.604  1.00  0.00     0.071 A 
HETATM    8  C6  UNK     1       0.357   0.722  -1.192  1.00  0.00     0.075 A 
HETATM    9  C7  UNK     1       1.735   1.027   0.760  1.00  0.00     0.038 A 
HETATM   10  C8  UNK     1      -2.514  -1.300   1.079  1.00  0.00     0.090 A 
HETATM   11  C9  UNK     1      -1.251  -1.092   3.198  1.00  0.00     0.049 C 
HETATM   12  C10 UNK     1      -2.728  -1.098  -0.364  1.00  0.00     0.288 A 
ENDROOT
BRANCH   7  13
HETATM   13  O2  UNK     1       2.442   1.866  -1.359  1.00  0.00    -0.351 OA
BRANCH  13  14
HETATM   14  C11 UNK     1       2.546   1.489  -2.731  1.00  0.00     0.171 C 
HETATM   15  C12 UNK     1       3.967   1.719  -3.199  1.00  0.00     0.034 C 
ENDBRANCH  13  14
ENDBRANCH   7  13
TORSDOF 2
