REMARK  11 active torsions:
REMARK  status: ('A' for Active; 'I' for Inactive)
REMARK    1  A    between atoms: C1_9  and  O1_1 
REMARK    2  A    between atoms: C5_13  and  O1_1 
REMARK    3  A    between atoms: C13_21  and  O2_2 
REMARK    4  A    between atoms: C3_11  and  O2_2 
REMARK    5  A    between atoms: C12_20  and  O3_3 
REMARK    6  A    between atoms: C8_16  and  O3_3 
REMARK    7  A    between atoms: C16_24  and  O4_4 
REMARK    8  A    between atoms: C17_25  and  N1_7 
REMARK    9  A    between atoms: C2_10  and  C9_17 
REMARK   10  A    between atoms: C5_13  and  C8_16 
REMARK   11  A    between atoms: C10_18  and  C11_19 
ROOT
HETATM    1  N2  UNK     1      -1.645  -3.568  -0.143  1.00  0.00    -0.191 NA
HETATM    2  C9  UNK     1      -2.674  -0.472   0.975  1.00  0.00     0.035 C 
HETATM    3  C10 UNK     1      -3.029  -1.775   1.135  1.00  0.00     0.055 C 
HETATM    4  C25 UNK     1      -2.257  -2.760   0.423  1.00  0.00     0.100 C 
ENDROOT
BRANCH   3   5
HETATM    5  C11 UNK     1      -4.126  -2.217   1.981  1.00  0.00    -0.015 A 
HETATM    6  C14 UNK     1      -4.114  -1.930   3.346  1.00  0.00     0.015 A 
HETATM    7  C18 UNK     1      -5.166  -2.355   4.157  1.00  0.00     0.037 A 
HETATM    8  C17 UNK     1      -6.230  -3.068   3.603  1.00  0.00     0.102 A 
HETATM    9  C19 UNK     1      -6.242  -3.355   2.238  1.00  0.00     0.037 A 
HETATM   10  C15 UNK     1      -5.190  -2.929   1.427  1.00  0.00     0.015 A 
BRANCH   8  11
HETATM   11  N1  UNK     1      -7.300  -3.500   4.430  1.00  0.00    -0.116 N 
HETATM   12  O5  UNK     1      -8.248  -4.140   3.912  1.00  0.00    -0.532 OA
HETATM   13  O6  UNK     1      -7.270  -3.232   5.655  1.00  0.00    -0.532 OA
ENDBRANCH   8  11
ENDBRANCH   3   5
BRANCH   2  14
HETATM   14  C2  UNK     1      -1.569   0.018   0.137  1.00  0.00    -0.032 A 
HETATM   15  C4  UNK     1      -0.295   0.172   0.683  1.00  0.00     0.051 A 
HETATM   16  C3  UNK     1       0.753   0.637  -0.111  1.00  0.00     0.102 A 
HETATM   17  C1  UNK     1       0.526   0.949  -1.452  1.00  0.00     0.102 A 
HETATM   18  C6  UNK     1      -0.749   0.796  -1.998  1.00  0.00     0.040 A 
HETATM   19  C7  UNK     1      -1.796   0.331  -1.203  1.00  0.00     0.014 A 
BRANCH  16  20
HETATM   20  O2  UNK     1       1.993   0.782   0.433  1.00  0.00    -0.349 OA
BRANCH  20  21
HETATM   21  C13 UNK     1       2.117   1.681   1.533  1.00  0.00     0.171 C 
HETATM   22  C21 UNK     1       3.512   2.267   1.537  1.00  0.00     0.034 C 
ENDBRANCH  20  21
ENDBRANCH  16  20
BRANCH  17  23
HETATM   23  O1  UNK     1       1.541   1.404  -2.238  1.00  0.00    -0.346 OA
BRANCH  23  24
HETATM   24  C5  UNK     1       1.191   2.287  -3.302  1.00  0.00     0.202 C 
BRANCH  24  25
HETATM   25  C8  UNK     1       2.341   3.244  -3.551  1.00  0.00     0.202 C 
BRANCH  25  26
HETATM   26  O3  UNK     1       3.504   2.495  -3.883  1.00  0.00    -0.346 OA
BRANCH  26  27
HETATM   27  C12 UNK     1       4.711   3.051  -3.552  1.00  0.00     0.102 A 
HETATM   28  C16 UNK     1       5.804   2.241  -3.244  1.00  0.00     0.101 A 
HETATM   29  C22 UNK     1       7.028   2.820  -2.908  1.00  0.00     0.039 A 
HETATM   30  C24 UNK     1       7.159   4.208  -2.879  1.00  0.00     0.003 A 
HETATM   31  C23 UNK     1       6.066   5.018  -3.187  1.00  0.00     0.003 A 
HETATM   32  C20 UNK     1       4.842   4.439  -3.523  1.00  0.00     0.039 A 
BRANCH  28  33
HETATM   33  O4  UNK     1       5.689   0.884  -3.267  1.00  0.00    -0.353 OA
HETATM   34  C26 UNK     1       6.854   0.129  -2.940  1.00  0.00     0.210 C 
ENDBRANCH  28  33
ENDBRANCH  26  27
ENDBRANCH  25  26
ENDBRANCH  24  25
ENDBRANCH  23  24
ENDBRANCH  17  23
ENDBRANCH   2  14
TORSDOF 11
