REMARK  3 active torsions:
REMARK  status: ('A' for Active; 'I' for Inactive)
REMARK    1  A    between atoms: C14_20  and  N2_6 
REMARK    2  A    between atoms: C6_12  and  C9_15 
REMARK    3  A    between atoms: C14_20  and  C9_15 
ROOT
HETATM    1  S1  UNK     1      -3.478  -1.081  -0.821  1.00  0.00    -0.084 SA
HETATM    2  O1  UNK     1       2.226   1.217   0.419  1.00  0.00    -0.274 OA
HETATM    3  O2  UNK     1       0.602   0.265   1.702  1.00  0.00    -0.259 OA
HETATM    4  N1  UNK     1      -1.290  -1.189   0.552  1.00  0.00    -0.244 NA
HETATM    5  C1  UNK     1       0.200   0.308  -0.649  1.00  0.00     0.070 A 
HETATM    6  C2  UNK     1       1.984   1.296  -1.992  1.00  0.00    -0.001 A 
HETATM    7  C3  UNK     1      -1.085  -0.328  -0.503  1.00  0.00     0.080 A 
HETATM    8  C4  UNK     1       0.690   0.650  -1.852  1.00  0.00     0.034 A 
HETATM    9  C5  UNK     1       2.723   1.568  -0.849  1.00  0.00     0.089 A 
HETATM   10  C6  UNK     1      -2.520  -1.648   0.486  1.00  0.00     0.082 A 
HETATM   11  C7  UNK     1       0.997   0.583   0.585  1.00  0.00     0.301 A 
HETATM   12  C8  UNK     1       2.508   1.655  -3.236  1.00  0.00     0.014 A 
HETATM   13  C10 UNK     1      -2.148  -0.139  -1.354  1.00  0.00     0.084 A 
HETATM   14  C11 UNK     1       3.969   2.188  -0.910  1.00  0.00     0.038 A 
HETATM   15  C12 UNK     1       3.757   2.278  -3.315  1.00  0.00     0.001 A 
HETATM   16  C13 UNK     1       4.486   2.544  -2.154  1.00  0.00     0.003 A 
ENDROOT
BRANCH  10  17
HETATM   17  C9  UNK     1      -3.111  -2.601   1.450  1.00  0.00     0.136 C 
BRANCH  17  18
HETATM   18  C14 UNK     1      -3.778  -1.865   2.607  1.00  0.00     0.077 C 
HETATM   19  S2  UNK     1      -2.946  -1.388   3.978  1.00  0.00    -0.066 SA
BRANCH  18  20
HETATM   20  N2  UNK     1      -5.120  -1.633   2.459  1.00  0.00    -0.393 N 
HETATM   21  H10 UNK     1      -5.651  -1.155   3.179  1.00  0.00     0.156 HD
HETATM   22  H9  UNK     1      -5.632  -1.919   1.630  1.00  0.00     0.156 HD
ENDBRANCH  18  20
ENDBRANCH  17  18
ENDBRANCH  10  17
TORSDOF 3
