REMARK  5 active torsions:
REMARK  status: ('A' for Active; 'I' for Inactive)
REMARK    1  A    between atoms: C11_20  and  O1_1 
REMARK    2  A    between atoms: C3_12  and  O1_1 
REMARK    3  A    between atoms: C14_23  and  N1_8 
REMARK    4  A    between atoms: C17_26  and  N2_9 
REMARK    5  A    between atoms: C1_10  and  C6_15 
ROOT
HETATM    1  O2  UNK     1      -2.685  -1.914  -0.801  1.00  0.00    -0.275 OA
HETATM    2  O3  UNK     1      -4.581  -2.884  -1.635  1.00  0.00    -0.260 OA
HETATM    3  C1  UNK     1      -0.708   0.179   2.219  1.00  0.00    -0.024 A 
HETATM    4  C2  UNK     1      -2.762  -0.830   1.387  1.00  0.00     0.005 A 
HETATM    5  C3  UNK     1      -0.030  -0.209   1.065  1.00  0.00     0.085 A 
HETATM    6  C4  UNK     1      -2.064  -0.128   2.379  1.00  0.00     0.024 A 
HETATM    7  C5  UNK     1      -2.056  -1.206   0.243  1.00  0.00     0.092 A 
HETATM    8  C7  UNK     1      -4.183  -1.188   1.487  1.00  0.00    -0.043 A 
HETATM    9  C8  UNK     1      -0.704  -0.906   0.068  1.00  0.00     0.076 A 
HETATM   10  C10 UNK     1      -4.755  -1.862   0.479  1.00  0.00     0.090 A 
HETATM   11  C12 UNK     1      -4.969  -0.800   2.705  1.00  0.00     0.049 C 
HETATM   12  C13 UNK     1      -4.025  -2.265  -0.734  1.00  0.00     0.288 A 
ENDROOT
BRANCH   5  13
HETATM   13  O1  UNK     1       1.289   0.086   0.898  1.00  0.00    -0.308 OA
BRANCH  13  14
HETATM   14  C11 UNK     1       1.641   0.866  -0.191  1.00  0.00     0.109 A 
HETATM   15  C14 UNK     1       2.511   0.375  -1.150  1.00  0.00     0.139 A 
HETATM   16  C16 UNK     1       2.850   1.180  -2.238  1.00  0.00     0.075 A 
HETATM   17  C17 UNK     1       2.314   2.463  -2.351  1.00  0.00     0.105 A 
HETATM   18  C18 UNK     1       1.439   2.941  -1.375  1.00  0.00     0.039 A 
HETATM   19  C15 UNK     1       1.100   2.137  -0.287  1.00  0.00     0.042 A 
BRANCH  15  20
HETATM   20  N1  UNK     1       3.067  -0.930  -1.051  1.00  0.00    -0.113 N 
HETATM   21  O4  UNK     1       3.851  -1.324  -1.946  1.00  0.00    -0.532 OA
HETATM   22  O5  UNK     1       2.758  -1.647  -0.070  1.00  0.00    -0.532 OA
ENDBRANCH  15  20
BRANCH  17  23
HETATM   23  N2  UNK     1       2.659   3.283  -3.458  1.00  0.00    -0.116 N 
HETATM   24  O6  UNK     1       2.166   4.433  -3.539  1.00  0.00    -0.532 OA
HETATM   25  O7  UNK     1       3.448   2.834  -4.324  1.00  0.00    -0.532 OA
ENDBRANCH  17  23
ENDBRANCH  13  14
ENDBRANCH   5  13
BRANCH   3  26
HETATM   26  C6  UNK     1      -0.001   0.930   3.299  1.00  0.00     0.037 C 
HETATM   27  C9  UNK     1       0.624  -0.000   4.335  1.00  0.00     0.010 C 
ENDBRANCH   3  26
TORSDOF 5
