REMARK  6 active torsions:
REMARK  status: ('A' for Active; 'I' for Inactive)
REMARK    1  A    between atoms: C1_7  and  O1_1 
REMARK    2  A    between atoms: C6_12  and  N1_6 
REMARK    3  A    between atoms: C1_7  and  C5_11 
REMARK    4  A    between atoms: C5_11  and  C9_15 
REMARK    5  A    between atoms: C10_16  and  C6_12 
REMARK    6  A    between atoms: C13_19  and  C9_15 
ROOT
HETATM    1  O2  UNK     1      -0.016   2.703  -0.060  1.00  0.00    -0.269 OA
HETATM    2  N1  UNK     1       1.942   2.026  -1.193  1.00  0.00    -0.310 N 
HETATM    3  C1  UNK     1       1.658   1.277   1.036  1.00  0.00     0.175 A 
HETATM    4  C2  UNK     1       2.950   0.791   0.440  1.00  0.00     0.013 A 
HETATM    5  C3  UNK     1       3.068   1.257  -0.869  1.00  0.00     0.047 A 
HETATM    6  C4  UNK     1       1.046   2.099  -0.116  1.00  0.00     0.264 A 
HETATM    7  C7  UNK     1       3.941   0.006   1.005  1.00  0.00     0.013 A 
HETATM    8  C8  UNK     1       4.168   0.957  -1.654  1.00  0.00     0.030 A 
HETATM    9  C11 UNK     1       5.058  -0.308   0.228  1.00  0.00     0.001 A 
HETATM   10  C12 UNK     1       5.171   0.164  -1.091  1.00  0.00     0.002 A 
ENDROOT
BRANCH   3  11
HETATM   11  O1  UNK     1       1.925   2.151   2.115  1.00  0.00    -0.375 OA
HETATM   12  H7  UNK     1       1.094   2.573   2.390  1.00  0.00     0.211 HD
ENDBRANCH   3  11
BRANCH   3  13
HETATM   13  C5  UNK     1       0.728   0.152   1.465  1.00  0.00     0.137 C 
BRANCH  13  14
HETATM   14  C9  UNK     1      -0.569   0.671   2.050  1.00  0.00     0.169 C 
HETATM   15  O3  UNK     1      -0.668   1.730   2.662  1.00  0.00    -0.292 OA
BRANCH  14  16
HETATM   16  C13 UNK     1      -1.761  -0.178   1.851  1.00  0.00     0.086 A 
HETATM   17  C16 UNK     1      -1.542  -1.495   1.769  1.00  0.00     0.035 A 
HETATM   18  C18 UNK     1      -2.653  -2.413   1.573  1.00  0.00    -0.001 A 
HETATM   19  C21 UNK     1      -3.942  -1.897   1.472  1.00  0.00     0.089 A 
HETATM   20  C23 UNK     1      -2.472  -3.795   1.482  1.00  0.00     0.014 A 
HETATM   21  C24 UNK     1      -5.049  -2.721   1.283  1.00  0.00     0.038 A 
HETATM   22  O4  UNK     1      -4.166  -0.509   1.559  1.00  0.00    -0.274 OA
HETATM   23  C26 UNK     1      -4.859  -4.098   1.194  1.00  0.00     0.003 A 
HETATM   24  C25 UNK     1      -3.573  -4.634   1.293  1.00  0.00     0.001 A 
HETATM   25  C17 UNK     1      -3.122   0.393   1.747  1.00  0.00     0.302 A 
HETATM   26  O5  UNK     1      -3.327   1.600   1.820  1.00  0.00    -0.259 OA
ENDBRANCH  14  16
ENDBRANCH  13  14
ENDBRANCH   3  13
BRANCH   2  27
HETATM   27  C6  UNK     1       1.758   2.661  -2.476  1.00  0.00     0.170 C 
BRANCH  27  28
HETATM   28  C10 UNK     1       1.032   1.771  -3.444  1.00  0.00    -0.040 A 
HETATM   29  C14 UNK     1       1.754   0.911  -4.262  1.00  0.00     0.009 A 
HETATM   30  C19 UNK     1       1.080   0.084  -5.160  1.00  0.00     0.001 A 
HETATM   31  C22 UNK     1      -0.312   0.124  -5.235  1.00  0.00     0.000 A 
HETATM   32  C20 UNK     1      -1.030   0.990  -4.410  1.00  0.00     0.001 A 
HETATM   33  C15 UNK     1      -0.356   1.817  -3.511  1.00  0.00     0.009 A 
ENDBRANCH  27  28
ENDBRANCH   2  27
TORSDOF 6
