REMARK  6 active torsions:
REMARK  status: ('A' for Active; 'I' for Inactive)
REMARK    1  A    between atoms: C15_22  and  O1_1 
REMARK    2  A    between atoms: C9_16  and  O1_1 
REMARK    3  A    between atoms: C18_25  and  O2_2 
REMARK    4  A    between atoms: C6_13  and  O2_2 
REMARK    5  A    between atoms: C1_8  and  C6_13 
REMARK    6  A    between atoms: C4_11  and  C9_16 
ROOT
HETATM    1  O2  UNK     1       0.442  -0.644  -0.342  1.00  0.00    -0.279 OA
ENDROOT
BRANCH   1   2
HETATM    2  C18 UNK     1       1.471   0.150  -0.741  1.00  0.00     0.082 A 
HETATM    3  C20 UNK     1       1.643   0.450  -2.087  1.00  0.00     0.075 A 
HETATM    4  C16 UNK     1       2.708   1.266  -2.475  1.00  0.00     0.093 A 
HETATM    5  C14 UNK     1       3.612   1.801  -1.559  1.00  0.00     0.005 A 
HETATM    6  O3  UNK     1       2.834   1.522  -3.851  1.00  0.00    -0.274 OA
HETATM    7  C7  UNK     1       4.703   2.653  -2.060  1.00  0.00    -0.033 A 
HETATM    8  C19 UNK     1       3.425   1.480  -0.207  1.00  0.00     0.017 A 
HETATM    9  C13 UNK     1       4.832   2.860  -3.385  1.00  0.00     0.025 A 
HETATM   10  C8  UNK     1       5.655   3.276  -1.062  1.00  0.00     0.040 C 
HETATM   11  C12 UNK     1       5.956   3.673  -3.980  1.00  0.00     0.045 C 
HETATM   12  C17 UNK     1       3.869   2.290  -4.362  1.00  0.00     0.295 A 
HETATM   13  C11 UNK     1       7.102   3.940  -3.006  1.00  0.00     0.005 C 
HETATM   14  C10 UNK     1       6.560   4.361  -1.650  1.00  0.00     0.005 C 
HETATM   15  O6  UNK     1       3.970   2.490  -5.568  1.00  0.00    -0.259 OA
HETATM   16  C21 UNK     1       2.362   0.663   0.198  1.00  0.00     0.038 A 
ENDBRANCH   1   2
BRANCH   1  17
HETATM   17  C6  UNK     1      -0.737   0.055  -0.033  1.00  0.00     0.270 C 
HETATM   18  O4  UNK     1      -0.886   1.268  -0.095  1.00  0.00    -0.264 OA
BRANCH  17  19
HETATM   19  C1  UNK     1      -1.808  -0.905   0.393  1.00  0.00     0.114 C 
HETATM   20  C2  UNK     1      -1.724  -1.143   1.902  1.00  0.00     0.019 C 
HETATM   21  C3  UNK     1      -2.894  -1.999   2.373  1.00  0.00     0.047 C 
HETATM   22  C4  UNK     1      -4.228  -1.416   1.907  1.00  0.00     0.319 C 
HETATM   23  N1  UNK     1      -4.263  -1.242   0.455  1.00  0.00     0.098 N 
HETATM   24  C5  UNK     1      -3.184  -0.364  -0.003  1.00  0.00     0.285 C 
HETATM   25  H9  UNK     1      -5.158  -0.839   0.179  1.00  0.00     0.317 HD
BRANCH  22  26
HETATM   26  C9  UNK     1      -5.340  -2.357   2.244  1.00  0.00     0.293 C 
HETATM   27  O5  UNK     1      -6.079  -2.870   1.415  1.00  0.00    -0.263 OA
BRANCH  26  28
HETATM   28  O1  UNK     1      -5.390  -2.539   3.595  1.00  0.00    -0.310 OA
BRANCH  28  29
HETATM   29  C15 UNK     1      -6.415  -3.423   4.059  1.00  0.00     0.060 C 
HETATM   30  C22 UNK     1      -7.772  -2.850   3.650  1.00  0.00     0.045 C 
HETATM   31  C23 UNK     1      -6.302  -3.501   5.580  1.00  0.00     0.045 C 
HETATM   32  C24 UNK     1      -6.193  -4.798   3.432  1.00  0.00     0.045 C 
ENDBRANCH  28  29
ENDBRANCH  26  28
ENDBRANCH  22  26
ENDBRANCH  17  19
ENDBRANCH   1  17
TORSDOF 6
