REMARK  4 active torsions:
REMARK  status: ('A' for Active; 'I' for Inactive)
REMARK    1  A    between atoms: C11_15  and  O2_2 
REMARK    2  A    between atoms: C2_6  and  N1_4 
REMARK    3  A    between atoms: C6_10  and  N1_4 
REMARK    4  A    between atoms: C11_15  and  C6_10 
ROOT
HETATM    1  O1  UNK     1       1.951   1.028   1.113  1.00  0.00    -0.275 OA
HETATM    2  O3  UNK     1       1.567   0.591   3.322  1.00  0.00    -0.260 OA
HETATM    3  C1  UNK     1       0.311   0.304  -0.553  1.00  0.00     0.025 A 
HETATM    4  C2  UNK     1      -0.513  -0.258   0.533  1.00  0.00     0.047 A 
HETATM    5  C3  UNK     1       1.517   0.929  -0.224  1.00  0.00     0.092 A 
HETATM    6  C4  UNK     1      -0.034   0.256  -1.912  1.00  0.00     0.023 A 
HETATM    7  C5  UNK     1       0.801   0.813  -2.889  1.00  0.00    -0.061 A 
HETATM    8  C7  UNK     1       2.360   1.490  -1.187  1.00  0.00     0.039 A 
HETATM    9  C8  UNK     1      -0.065  -0.144   1.793  1.00  0.00     0.112 A 
HETATM   10  C9  UNK     1       1.996   1.429  -2.527  1.00  0.00     0.009 A 
HETATM   11  C10 UNK     1       1.202   0.511   2.155  1.00  0.00     0.290 A 
HETATM   12  C12 UNK     1       0.407   0.747  -4.327  1.00  0.00     0.048 C 
ENDROOT
BRANCH   4  13
HETATM   13  N1  UNK     1      -1.698  -0.875   0.236  1.00  0.00    -0.387 N 
HETATM   14  H2  UNK     1      -1.998  -0.919  -0.730  1.00  0.00     0.159 HD
BRANCH  13  15
HETATM   15  C6  UNK     1      -2.560  -1.449   1.233  1.00  0.00     0.146 C 
BRANCH  15  16
HETATM   16  C11 UNK     1      -3.778  -2.104   0.608  1.00  0.00     0.183 C 
BRANCH  16  17
HETATM   17  O2  UNK     1      -4.535  -1.124  -0.090  1.00  0.00    -0.399 OA
HETATM   18  H13 UNK     1      -5.305  -1.578  -0.473  1.00  0.00     0.209 HD
ENDBRANCH  16  17
ENDBRANCH  15  16
ENDBRANCH  13  15
ENDBRANCH   4  13
TORSDOF 4
