REMARK  7 active torsions:
REMARK  status: ('A' for Active; 'I' for Inactive)
REMARK    1  A    between atoms: C11_17  and  O1_1 
REMARK    2  A    between atoms: C3_9  and  O1_1 
REMARK       I    between atoms: C22_28  and  N1_5 
REMARK    3  A    between atoms: N1_5  and  N2_6 
REMARK    4  A    between atoms: C1_7  and  C2_8 
REMARK    5  A    between atoms: C1_7  and  C3_9 
REMARK    6  A    between atoms: C12_18  and  C21_27 
REMARK    7  A    between atoms: C15_21  and  C22_28 
ROOT
HETATM    1  O4  UNK     1      -0.556   0.159  -2.729  1.00  0.00    -0.266 OA
HETATM    2  N1  UNK     1       0.152   0.462  -0.546  1.00  0.00    -0.243 N 
HETATM    3  C22 UNK     1       0.262   0.586  -1.918  1.00  0.00     0.271 C 
HETATM    4  H22 UNK     1       0.862   0.769   0.111  1.00  0.00     0.192 HD
ENDROOT
BRANCH   2   5
HETATM    5  N2  UNK     1      -0.931  -0.174  -0.039  1.00  0.00    -0.183 NA
HETATM    6  C21 UNK     1      -0.929  -0.270   1.252  1.00  0.00     0.156 C 
BRANCH   6   7
HETATM    7  C12 UNK     1      -2.009  -0.922   1.992  1.00  0.00     0.056 A 
HETATM    8  C14 UNK     1      -1.915  -0.970   3.325  1.00  0.00     0.159 A 
HETATM    9  O2  UNK     1      -2.828  -1.538   4.183  1.00  0.00    -0.321 OA
HETATM   10  C5  UNK     1      -3.946  -2.114   3.632  1.00  0.00     0.089 A 
HETATM   11  C10 UNK     1      -4.866  -2.688   4.509  1.00  0.00     0.039 A 
HETATM   12  C4  UNK     1      -4.181  -2.141   2.256  1.00  0.00     0.049 A 
HETATM   13  C13 UNK     1      -6.021  -3.288   4.007  1.00  0.00     0.009 A 
HETATM   14  C6  UNK     1      -6.255  -3.315   2.632  1.00  0.00    -0.061 A 
HETATM   15  C16 UNK     1      -7.492  -3.959   2.102  1.00  0.00     0.048 C 
HETATM   16  C7  UNK     1      -5.337  -2.742   1.751  1.00  0.00     0.025 A 
HETATM   17  C9  UNK     1      -3.194  -1.528   1.347  1.00  0.00     0.198 A 
HETATM   18  O3  UNK     1      -3.350  -1.522   0.134  1.00  0.00    -0.286 OA
ENDBRANCH   6   7
ENDBRANCH   2   5
BRANCH   3  19
HETATM   19  C15 UNK     1       1.484   1.275  -2.409  1.00  0.00     0.033 A 
HETATM   20  C19 UNK     1       1.960   0.969  -3.667  1.00  0.00     0.020 A 
HETATM   21  C17 UNK     1       3.107   1.616  -4.128  1.00  0.00     0.038 A 
HETATM   22  C11 UNK     1       3.751   2.554  -3.322  1.00  0.00     0.068 A 
HETATM   23  C18 UNK     1       3.248   2.845  -2.054  1.00  0.00     0.038 A 
HETATM   24  C20 UNK     1       2.102   2.198  -1.592  1.00  0.00     0.020 A 
BRANCH  22  25
HETATM   25  O1  UNK     1       4.869   3.184  -3.772  1.00  0.00    -0.351 OA
BRANCH  25  26
HETATM   26  C3  UNK     1       5.828   3.585  -2.793  1.00  0.00     0.175 C 
BRANCH  26  27
HETATM   27  C1  UNK     1       7.211   3.577  -3.428  1.00  0.00     0.026 C 
BRANCH  27  28
HETATM   28  C2  UNK     1       8.291   3.981  -2.429  1.00  0.00    -0.002 C 
HETATM   29  C8  UNK     1       9.676   3.931  -3.054  1.00  0.00     0.005 C 
ENDBRANCH  27  28
ENDBRANCH  26  27
ENDBRANCH  25  26
ENDBRANCH  22  25
ENDBRANCH   3  19
TORSDOF 7
