REMARK  7 active torsions:
REMARK  status: ('A' for Active; 'I' for Inactive)
REMARK    1  A    between atoms: C5_13  and  N1_6 
REMARK    2  A    between atoms: C6_14  and  N2_7 
REMARK    3  A    between atoms: C15_23  and  N3_8 
REMARK       I    between atoms: C9_17  and  N3_8 
REMARK    4  A    between atoms: C5_13  and  C7_15 
REMARK    5  A    between atoms: C6_14  and  C9_17 
REMARK    6  A    between atoms: C13_21  and  C18_26 
REMARK    7  A    between atoms: C15_23  and  C19_27 
ROOT
HETATM    1  N1  UNK     1       1.994   0.062  -0.120  1.00  0.00     0.096 N 
HETATM    2  N2  UNK     1       0.611  -0.401   2.377  1.00  0.00     0.100 N 
HETATM    3  C1  UNK     1       0.588  -0.358  -0.094  1.00  0.00     0.303 C 
HETATM    4  C2  UNK     1       2.703  -0.445   1.062  1.00  0.00     0.303 C 
HETATM    5  C3  UNK     1      -0.097   0.107   1.196  1.00  0.00     0.303 C 
HETATM    6  C4  UNK     1       2.017   0.021   2.351  1.00  0.00     0.303 C 
ENDROOT
BRANCH   2   7
HETATM    7  C6  UNK     1      -0.042   0.045   3.606  1.00  0.00     0.374 C 
BRANCH   7   8
HETATM    8  C9  UNK     1      -1.241  -0.842   3.870  1.00  0.00     0.246 C 
HETATM    9  O2  UNK     1      -1.150  -2.054   4.054  1.00  0.00    -0.272 OA
HETATM   10  N3  UNK     1      -2.423  -0.117   3.904  1.00  0.00    -0.355 N 
HETATM   11  H15 UNK     1      -2.404   0.882   3.719  1.00  0.00     0.162 HD
BRANCH  10  12
HETATM   12  C15 UNK     1      -3.713  -0.715   4.165  1.00  0.00     0.161 C 
BRANCH  12  13
HETATM   13  C19 UNK     1      -4.389  -1.168   2.903  1.00  0.00    -0.038 A 
HETATM   14  C20 UNK     1      -4.174  -2.464   2.428  1.00  0.00     0.048 A 
HETATM   15  C23 UNK     1      -4.817  -2.834   1.265  1.00  0.00     0.105 A 
HETATM   16  C24 UNK     1      -5.642  -1.967   0.586  1.00  0.00     0.105 A 
HETATM   17  O4  UNK     1      -4.728  -4.048   0.654  1.00  0.00    -0.323 OA
HETATM   18  C25 UNK     1      -5.870  -0.682   1.033  1.00  0.00     0.040 A 
HETATM   19  O5  UNK     1      -6.173  -2.529  -0.534  1.00  0.00    -0.323 OA
HETATM   20  C22 UNK     1      -5.232  -0.282   2.209  1.00  0.00     0.012 A 
HETATM   21  C26 UNK     1      -5.590  -3.847  -0.484  1.00  0.00     0.352 A 
ENDBRANCH  12  13
ENDBRANCH  10  12
ENDBRANCH   7   8
ENDBRANCH   2   7
BRANCH   1  22
HETATM   22  C5  UNK     1       2.647  -0.386  -1.348  1.00  0.00     0.312 C 
BRANCH  22  23
HETATM   23  C7  UNK     1       2.336   0.499  -2.505  1.00  0.00    -0.011 A 
HETATM   24  C10 UNK     1       1.277   0.263  -3.292  1.00  0.00     0.092 A 
HETATM   25  C14 UNK     1       0.930   1.110  -4.446  1.00  0.00     0.288 A 
HETATM   26  O1  UNK     1       1.760   2.191  -4.697  1.00  0.00    -0.275 OA
HETATM   27  O3  UNK     1      -0.048   0.864  -5.143  1.00  0.00    -0.260 OA
HETATM   28  C11 UNK     1       2.880   2.464  -3.887  1.00  0.00     0.090 A 
HETATM   29  C8  UNK     1       3.197   1.653  -2.797  1.00  0.00     0.007 A 
HETATM   30  C16 UNK     1       3.645   3.579  -4.235  1.00  0.00     0.039 A 
HETATM   31  C12 UNK     1       4.328   1.991  -2.042  1.00  0.00     0.022 A 
HETATM   32  C13 UNK     1       5.105   3.106  -2.378  1.00  0.00    -0.058 A 
HETATM   33  C17 UNK     1       4.764   3.899  -3.472  1.00  0.00     0.010 A 
BRANCH  32  34
HETATM   34  C18 UNK     1       6.305   3.448  -1.559  1.00  0.00     0.034 C 
HETATM   35  C21 UNK     1       5.971   4.390  -0.406  1.00  0.00     0.010 C 
ENDBRANCH  32  34
ENDBRANCH  22  23
ENDBRANCH   1  22
TORSDOF 7
