REMARK  1 active torsions:
REMARK  status: ('A' for Active; 'I' for Inactive)
REMARK       I    between atoms: C5_10  and  N1_4 
REMARK    1  A    between atoms: C2_7  and  C5_10 
ROOT
HETATM    1  O1  UNK     1       0.431   1.501  -2.251  1.00  0.00    -0.274 OA
HETATM    2  O3  UNK     1      -1.604   0.470  -2.362  1.00  0.00    -0.259 OA
HETATM    3  C1  UNK     1       2.086   0.721  -0.650  1.00  0.00    -0.001 A 
HETATM    4  C2  UNK     1      -0.071  -0.375  -0.766  1.00  0.00     0.110 A 
HETATM    5  C3  UNK     1       1.141  -0.291  -0.205  1.00  0.00     0.037 A 
HETATM    6  C4  UNK     1       1.708   1.595  -1.665  1.00  0.00     0.089 A 
HETATM    7  C8  UNK     1      -0.494   0.543  -1.847  1.00  0.00     0.304 A 
HETATM    8  C9  UNK     1       3.362   0.846  -0.094  1.00  0.00     0.014 A 
HETATM    9  C10 UNK     1       2.566   2.587  -2.137  1.00  0.00     0.038 A 
HETATM   10  C12 UNK     1       4.233   1.836  -0.557  1.00  0.00     0.001 A 
HETATM   11  C13 UNK     1       3.836   2.704  -1.576  1.00  0.00     0.003 A 
ENDROOT
BRANCH   4  12
HETATM   12  C5  UNK     1      -0.954  -1.429  -0.248  1.00  0.00     0.284 C 
HETATM   13  O2  UNK     1      -0.993  -2.562  -0.705  1.00  0.00    -0.265 OA
HETATM   14  N1  UNK     1      -1.784  -1.095   0.823  1.00  0.00    -0.208 N 
HETATM   15  C7  UNK     1      -2.683  -1.926   1.457  1.00  0.00     0.130 A 
HETATM   16  N2  UNK     1      -1.777   0.147   1.365  1.00  0.00    -0.177 NA
HETATM   17  C6  UNK     1      -3.279  -1.185   2.447  1.00  0.00    -0.025 A 
HETATM   18  C11 UNK     1      -2.683   0.081   2.342  1.00  0.00     0.147 A 
HETATM   19  C14 UNK     1      -4.311  -1.623   3.400  1.00  0.00     0.051 C 
ENDBRANCH   4  12
TORSDOF 1
