REMARK  4 active torsions:
REMARK  status: ('A' for Active; 'I' for Inactive)
REMARK    1  A    between atoms: C6_13  and  O2_3 
REMARK    2  A    between atoms: C12_19  and  O3_4 
REMARK    3  A    between atoms: C3_10  and  N1_7 
REMARK       I    between atoms: C7_14  and  N1_7 
REMARK    4  A    between atoms: C2_9  and  C7_14 
ROOT
HETATM    1  O4  UNK     1       1.090  -0.097   1.510  1.00  0.00    -0.267 OA
HETATM    2  N1  UNK     1      -0.690  -0.052  -0.032  1.00  0.00    -0.320 N 
HETATM    3  C7  UNK     1       0.616   0.136   0.399  1.00  0.00     0.262 C 
HETATM    4  H2  UNK     1      -0.930   0.215  -0.983  1.00  0.00     0.169 HD
ENDROOT
BRANCH   2   5
HETATM    5  C3  UNK     1      -1.781  -0.559   0.715  1.00  0.00     0.070 A 
HETATM    6  C6  UNK     1      -3.027  -0.681   0.123  1.00  0.00     0.097 A 
HETATM    7  C11 UNK     1      -4.093  -1.181   0.871  1.00  0.00     0.077 A 
HETATM    8  C12 UNK     1      -3.898  -1.552   2.202  1.00  0.00     0.092 A 
HETATM    9  C14 UNK     1      -2.637  -1.423   2.784  1.00  0.00     0.069 A 
HETATM   10 Cl1  UNK     1      -2.368  -1.873   4.427  1.00  0.00    -0.081 Cl
HETATM   11  C8  UNK     1      -1.571  -0.922   2.036  1.00  0.00     0.059 A 
BRANCH   6  12
HETATM   12  O2  UNK     1      -3.239  -0.325  -1.176  1.00  0.00    -0.354 OA
HETATM   13  C17 UNK     1      -3.047  -1.334  -2.164  1.00  0.00     0.210 C 
ENDBRANCH   6  12
BRANCH   8  14
HETATM   14  O3  UNK     1      -4.957  -2.037   2.909  1.00  0.00    -0.354 OA
HETATM   15  C18 UNK     1      -5.168  -3.447   2.874  1.00  0.00     0.210 C 
ENDBRANCH   8  14
ENDBRANCH   2   5
BRANCH   3  16
HETATM   16  C2  UNK     1       1.475   0.681  -0.659  1.00  0.00     0.108 A 
HETATM   17  C5  UNK     1       2.492   1.453  -0.256  1.00  0.00     0.037 A 
HETATM   18  C1  UNK     1       3.398   2.039  -1.232  1.00  0.00    -0.001 A 
HETATM   19  C4  UNK     1       3.189   1.784  -2.583  1.00  0.00     0.089 A 
HETATM   20  C10 UNK     1       4.472   2.850  -0.857  1.00  0.00     0.014 A 
HETATM   21  C13 UNK     1       4.020   2.316  -3.567  1.00  0.00     0.038 A 
HETATM   22  O1  UNK     1       2.117   0.971  -3.001  1.00  0.00    -0.274 OA
HETATM   23  C16 UNK     1       5.088   3.124  -3.185  1.00  0.00     0.003 A 
HETATM   24  C15 UNK     1       5.314   3.391  -1.833  1.00  0.00     0.001 A 
HETATM   25  C9  UNK     1       1.234   0.396  -2.091  1.00  0.00     0.304 A 
HETATM   26  O5  UNK     1       0.303  -0.310  -2.464  1.00  0.00    -0.259 OA
ENDBRANCH   3  16
TORSDOF 4
