REMARK  5 active torsions:
REMARK  status: ('A' for Active; 'I' for Inactive)
REMARK    1  A    between atoms: C5_12  and  O2_2 
REMARK    2  A    between atoms: C17_24  and  O5_5 
REMARK       I    between atoms: C7_14  and  N1_7 
REMARK    3  A    between atoms: C9_16  and  N1_7 
REMARK    4  A    between atoms: C3_10  and  C7_14 
REMARK    5  A    between atoms: C13_20  and  C17_24 
ROOT
HETATM    1  O3  UNK     1      -1.108  -0.550  -2.486  1.00  0.00    -0.267 OA
HETATM    2  N1  UNK     1      -1.025  -0.432  -0.135  1.00  0.00    -0.323 N 
HETATM    3  C7  UNK     1      -0.559  -0.244  -1.429  1.00  0.00     0.262 C 
HETATM    4  H5  UNK     1      -0.454  -0.100   0.638  1.00  0.00     0.169 HD
ENDROOT
BRANCH   3   5
HETATM    5  C3  UNK     1       0.756   0.409  -1.454  1.00  0.00     0.108 A 
HETATM    6  C4  UNK     1       1.017   1.173  -2.520  1.00  0.00     0.037 A 
HETATM    7  C1  UNK     1       2.294   1.861  -2.635  1.00  0.00     0.002 A 
HETATM    8  C2  UNK     1       3.233   1.709  -1.621  1.00  0.00     0.123 A 
HETATM    9  C6  UNK     1       2.608   2.669  -3.731  1.00  0.00     0.014 A 
HETATM   10  O1  UNK     1       2.953   0.903  -0.500  1.00  0.00    -0.271 OA
HETATM   11  C5  UNK     1       4.475   2.340  -1.670  1.00  0.00     0.102 A 
HETATM   12  C8  UNK     1       1.741   0.233  -0.362  1.00  0.00     0.304 A 
HETATM   13  O4  UNK     1       1.506  -0.467   0.617  1.00  0.00    -0.259 OA
HETATM   14  C10 UNK     1       4.781   3.144  -2.766  1.00  0.00     0.040 A 
HETATM   15  C11 UNK     1       3.850   3.308  -3.794  1.00  0.00     0.004 A 
BRANCH  11  16
HETATM   16  O2  UNK     1       5.384   2.183  -0.672  1.00  0.00    -0.353 OA
HETATM   17  C18 UNK     1       5.332   3.115   0.408  1.00  0.00     0.210 C 
ENDBRANCH  11  16
ENDBRANCH   3   5
BRANCH   2  18
HETATM   18  C9  UNK     1      -2.248  -1.025   0.265  1.00  0.00     0.035 A 
HETATM   19  C12 UNK     1      -2.541  -1.128   1.614  1.00  0.00     0.047 A 
HETATM   20  C13 UNK     1      -3.745  -1.713   2.007  1.00  0.00     0.041 A 
HETATM   21  C15 UNK     1      -4.637  -2.186   1.045  1.00  0.00     0.018 A 
HETATM   22  C16 UNK     1      -4.326  -2.075  -0.310  1.00  0.00     0.003 A 
HETATM   23  C14 UNK     1      -3.122  -1.490  -0.703  1.00  0.00     0.029 A 
BRANCH  20  24
HETATM   24  C17 UNK     1      -4.071  -1.829   3.419  1.00  0.00     0.293 C 
HETATM   25  O6  UNK     1      -3.330  -1.432   4.321  1.00  0.00    -0.259 OA
BRANCH  24  26
HETATM   26  O5  UNK     1      -5.286  -2.424   3.653  1.00  0.00    -0.323 OA
HETATM   27  C19 UNK     1      -5.669  -2.571   5.025  1.00  0.00     0.213 C 
ENDBRANCH  24  26
ENDBRANCH  20  24
ENDBRANCH   2  18
TORSDOF 5
