REMARK  2 active torsions:
REMARK  status: ('A' for Active; 'I' for Inactive)
REMARK    1  A    between atoms: C5_11  and  N1_5 
REMARK       I    between atoms: C6_12  and  N2_6 
REMARK    2  A    between atoms: C6_12  and  C7_13 
ROOT
HETATM    1  O1  UNK     1      -0.847   2.026  -2.918  1.00  0.00    -0.267 OA
HETATM    2  N1  UNK     1      -2.360  -1.155   0.704  1.00  0.00    -0.378 N 
HETATM    3  N2  UNK     1      -0.905   0.393  -1.261  1.00  0.00    -0.345 N 
HETATM    4  C1  UNK     1      -2.930   0.061   0.117  1.00  0.00     0.143 C 
HETATM    5  C2  UNK     1      -1.088  -1.648   0.172  1.00  0.00     0.143 C 
HETATM    6  C3  UNK     1      -2.363   0.304  -1.279  1.00  0.00     0.146 C 
HETATM    7  C4  UNK     1      -0.216  -0.489  -0.314  1.00  0.00     0.146 C 
HETATM    8  C6  UNK     1      -0.269   1.286  -2.122  1.00  0.00     0.260 C 
ENDROOT
BRANCH   8   9
HETATM    9  C7  UNK     1       1.206   1.349  -2.059  1.00  0.00     0.108 A 
HETATM   10  C10 UNK     1       1.724   2.232  -1.198  1.00  0.00     0.037 A 
HETATM   11  C12 UNK     1       3.167   2.367  -1.065  1.00  0.00    -0.001 A 
HETATM   12  C15 UNK     1       3.992   1.566  -1.847  1.00  0.00     0.089 A 
HETATM   13  C17 UNK     1       3.751   3.275  -0.179  1.00  0.00     0.014 A 
HETATM   14  O2  UNK     1       3.441   0.638  -2.752  1.00  0.00    -0.274 OA
HETATM   15  C18 UNK     1       5.381   1.647  -1.768  1.00  0.00     0.038 A 
HETATM   16  C11 UNK     1       2.065   0.486  -2.901  1.00  0.00     0.304 A 
HETATM   17  O3  UNK     1       1.594  -0.324  -3.692  1.00  0.00    -0.259 OA
HETATM   18  C20 UNK     1       5.956   2.555  -0.882  1.00  0.00     0.003 A 
HETATM   19  C19 UNK     1       5.143   3.368  -0.089  1.00  0.00     0.001 A 
ENDBRANCH   8   9
BRANCH   2  20
HETATM   20  C5  UNK     1      -3.048  -1.853   1.694  1.00  0.00     0.031 A 
HETATM   21  C8  UNK     1      -3.917  -1.191   2.594  1.00  0.00     0.053 A 
HETATM   22  C13 UNK     1      -4.606  -1.889   3.586  1.00  0.00     0.036 A 
HETATM   23 Cl1  UNK     1      -5.653  -1.049   4.662  1.00  0.00    -0.084 Cl
HETATM   24  C16 UNK     1      -4.447  -3.270   3.705  1.00  0.00     0.024 A 
HETATM   25  C14 UNK     1      -3.598  -3.952   2.833  1.00  0.00     0.004 A 
HETATM   26  C9  UNK     1      -2.908  -3.253   1.842  1.00  0.00     0.029 A 
ENDBRANCH   2  20
TORSDOF 2
