REMARK  5 active torsions:
REMARK  status: ('A' for Active; 'I' for Inactive)
REMARK    1  A    between atoms: C13_18  and  O2_2 
REMARK    2  A    between atoms: C8_13  and  O2_2 
REMARK       I    between atoms: C16_21  and  N1_5 
REMARK    3  A    between atoms: C18_23  and  N1_5 
REMARK    4  A    between atoms: C3_8  and  C5_10 
REMARK    5  A    between atoms: C13_18  and  C16_21 
ROOT
HETATM    1  O1  UNK     1       1.080   1.359   1.639  1.00  0.00    -0.321 OA
HETATM    2  O3  UNK     1      -1.738   2.840  -0.913  1.00  0.00    -0.286 OA
HETATM    3  C1  UNK     1      -0.380   1.027  -0.271  1.00  0.00     0.049 A 
HETATM    4  C2  UNK     1       0.591   0.578   0.623  1.00  0.00     0.091 A 
HETATM    5  C3  UNK     1      -0.363   3.204   0.996  1.00  0.00     0.048 A 
HETATM    6  C4  UNK     1      -0.907   2.398  -0.131  1.00  0.00     0.197 A 
HETATM    7  C6  UNK     1      -0.842   0.187  -1.288  1.00  0.00     0.021 A 
HETATM    8  C7  UNK     1       1.106  -0.713   0.506  1.00  0.00     0.075 A 
HETATM    9  C8  UNK     1       0.646  -1.554  -0.507  1.00  0.00     0.072 A 
HETATM   10  C9  UNK     1       0.567   2.627   1.772  1.00  0.00     0.159 A 
HETATM   11  C10 UNK     1      -0.326  -1.104  -1.402  1.00  0.00     0.038 A 
ENDROOT
BRANCH   9  12
HETATM   12  O2  UNK     1       1.146  -2.814  -0.623  1.00  0.00    -0.342 OA
BRANCH  12  13
HETATM   13  C13 UNK     1       1.580  -3.454   0.576  1.00  0.00     0.278 C 
BRANCH  13  14
HETATM   14  C16 UNK     1       1.402  -4.949   0.424  1.00  0.00     0.246 C 
HETATM   15  O4  UNK     1       0.947  -5.420  -0.614  1.00  0.00    -0.271 OA
HETATM   16  N1  UNK     1       1.815  -5.630   1.563  1.00  0.00    -0.325 N 
HETATM   17  H12 UNK     1       2.173  -5.073   2.336  1.00  0.00     0.169 HD
BRANCH  16  18
HETATM   18  C18 UNK     1       1.797  -7.028   1.784  1.00  0.00     0.034 A 
HETATM   19  C19 UNK     1       2.252  -7.528   2.992  1.00  0.00     0.029 A 
HETATM   20  C21 UNK     1       2.236  -8.905   3.211  1.00  0.00     0.002 A 
HETATM   21  C23 UNK     1       1.763  -9.763   2.217  1.00  0.00     0.000 A 
HETATM   22  C22 UNK     1       1.308  -9.243   1.006  1.00  0.00     0.002 A 
HETATM   23  C20 UNK     1       1.325  -7.866   0.787  1.00  0.00     0.029 A 
ENDBRANCH  16  18
ENDBRANCH  13  14
ENDBRANCH  12  13
ENDBRANCH   9  12
BRANCH   5  24
HETATM   24  C5  UNK     1      -0.830   4.572   1.272  1.00  0.00    -0.020 A 
HETATM   25  C11 UNK     1      -0.184   5.666   0.691  1.00  0.00     0.012 A 
HETATM   26  C14 UNK     1      -0.630   6.961   0.951  1.00  0.00     0.001 A 
HETATM   27  C17 UNK     1      -1.722   7.167   1.794  1.00  0.00     0.000 A 
HETATM   28  C15 UNK     1      -2.369   6.077   2.376  1.00  0.00     0.001 A 
HETATM   29  C12 UNK     1      -1.924   4.781   2.115  1.00  0.00     0.012 A 
ENDBRANCH   5  24
TORSDOF 5
