REMARK  5 active torsions:
REMARK  status: ('A' for Active; 'I' for Inactive)
REMARK    1  A    between atoms: C5_12  and  N1_5 
REMARK    2  A    between atoms: C6_13  and  N2_6 
REMARK    3  A    between atoms: C17_24  and  N3_7 
REMARK       I    between atoms: C9_16  and  N3_7 
REMARK    4  A    between atoms: C5_12  and  C7_14 
REMARK    5  A    between atoms: C6_13  and  C9_16 
ROOT
HETATM    1  N1  UNK     1       2.099  -0.029  -0.376  1.00  0.00     0.096 N 
HETATM    2  N2  UNK     1       0.066  -1.015   1.428  1.00  0.00     0.100 N 
HETATM    3  C1  UNK     1       2.451  -0.608   0.926  1.00  0.00     0.303 C 
HETATM    4  C2  UNK     1       0.853  -0.621  -0.881  1.00  0.00     0.303 C 
HETATM    5  C3  UNK     1       1.310  -0.422   1.933  1.00  0.00     0.303 C 
HETATM    6  C4  UNK     1      -0.287  -0.436   0.126  1.00  0.00     0.303 C 
ENDROOT
BRANCH   1   7
HETATM    7  C5  UNK     1       3.186  -0.210  -1.336  1.00  0.00     0.312 C 
BRANCH   7   8
HETATM    8  C7  UNK     1       3.131   0.786  -2.442  1.00  0.00    -0.011 A 
HETATM    9  C10 UNK     1       2.447   0.537  -3.567  1.00  0.00     0.092 A 
HETATM   10  C13 UNK     1       2.365   1.491  -4.686  1.00  0.00     0.288 A 
HETATM   11  O1  UNK     1       3.039   2.692  -4.530  1.00  0.00    -0.275 OA
HETATM   12  O3  UNK     1       1.729   1.228  -5.701  1.00  0.00    -0.260 OA
HETATM   13  C11 UNK     1       3.766   2.983  -3.359  1.00  0.00     0.090 A 
HETATM   14  C8  UNK     1       3.836   2.069  -2.307  1.00  0.00     0.006 A 
HETATM   15  C14 UNK     1       4.406   4.223  -3.312  1.00  0.00     0.045 A 
HETATM   16  C12 UNK     1       4.580   2.433  -1.177  1.00  0.00     0.015 A 
HETATM   17  C16 UNK     1       5.226   3.673  -1.115  1.00  0.00     0.007 A 
HETATM   18  C15 UNK     1       5.139   4.566  -2.181  1.00  0.00    -0.059 A 
HETATM   19  C19 UNK     1       5.831   5.886  -2.109  1.00  0.00     0.048 C 
ENDBRANCH   7   8
ENDBRANCH   1   7
BRANCH   2  20
HETATM   20  C6  UNK     1      -1.021  -0.836   2.388  1.00  0.00     0.375 C 
BRANCH  20  21
HETATM   21  C9  UNK     1      -2.087  -1.892   2.147  1.00  0.00     0.250 C 
HETATM   22  O2  UNK     1      -1.826  -3.005   1.704  1.00  0.00    -0.271 OA
HETATM   23  N3  UNK     1      -3.341  -1.401   2.505  1.00  0.00    -0.325 N 
HETATM   24  H15 UNK     1      -3.372  -0.452   2.867  1.00  0.00     0.169 HD
BRANCH  23  25
HETATM   25  C17 UNK     1      -4.584  -2.072   2.431  1.00  0.00     0.042 A 
HETATM   26  C18 UNK     1      -5.765  -1.444   2.828  1.00  0.00    -0.013 A 
HETATM   27  C21 UNK     1      -6.979  -2.125   2.745  1.00  0.00     0.042 A 
HETATM   28  C22 UNK     1      -5.716  -0.037   3.341  1.00  0.00     0.052 C 
HETATM   29 Cl1  UNK     1      -8.463  -1.385   3.226  1.00  0.00    -0.084 Cl
HETATM   30  C24 UNK     1      -7.013  -3.435   2.265  1.00  0.00     0.024 A 
HETATM   31  C23 UNK     1      -5.832  -4.063   1.868  1.00  0.00     0.004 A 
HETATM   32  C20 UNK     1      -4.618  -3.381   1.951  1.00  0.00     0.030 A 
ENDBRANCH  23  25
ENDBRANCH  20  21
ENDBRANCH   2  20
TORSDOF 5
