REMARK  5 active torsions:
REMARK  status: ('A' for Active; 'I' for Inactive)
REMARK    1  A    between atoms: C5_11  and  N1_4 
REMARK    2  A    between atoms: C6_12  and  N2_5 
REMARK    3  A    between atoms: C17_23  and  N3_6 
REMARK       I    between atoms: C9_15  and  N3_6 
REMARK    4  A    between atoms: C5_11  and  C7_13 
REMARK    5  A    between atoms: C6_12  and  C9_15 
ROOT
HETATM    1  N1  UNK     1       1.556   0.258  -0.344  1.00  0.00     0.096 N 
HETATM    2  N2  UNK     1      -0.671  -0.101   1.464  1.00  0.00     0.100 N 
HETATM    3  C1  UNK     1       1.615   0.735   1.043  1.00  0.00     0.303 C 
HETATM    4  C2  UNK     1       0.671  -0.908  -0.448  1.00  0.00     0.303 C 
HETATM    5  C3  UNK     1       0.214   1.066   1.566  1.00  0.00     0.303 C 
HETATM    6  C4  UNK     1      -0.731  -0.578   0.077  1.00  0.00     0.303 C 
ENDROOT
BRANCH   1   7
HETATM    7  C5  UNK     1       2.894  -0.060  -0.841  1.00  0.00     0.312 C 
BRANCH   7   8
HETATM    8  C7  UNK     1       3.639   1.157  -1.266  1.00  0.00    -0.011 A 
HETATM    9  C10 UNK     1       4.408   1.836  -0.403  1.00  0.00     0.092 A 
HETATM   10  C13 UNK     1       5.163   3.044  -0.777  1.00  0.00     0.288 A 
HETATM   11  O1  UNK     1       5.049   3.467  -2.092  1.00  0.00    -0.275 OA
HETATM   12  O3  UNK     1       5.856   3.639   0.040  1.00  0.00    -0.260 OA
HETATM   13  C11 UNK     1       4.249   2.774  -3.022  1.00  0.00     0.090 A 
HETATM   14  C8  UNK     1       3.539   1.631  -2.653  1.00  0.00     0.006 A 
HETATM   15  C14 UNK     1       4.208   3.291  -4.319  1.00  0.00     0.045 A 
HETATM   16  C12 UNK     1       2.766   1.000  -3.637  1.00  0.00     0.015 A 
HETATM   17  C16 UNK     1       2.715   1.506  -4.941  1.00  0.00     0.007 A 
HETATM   18  C15 UNK     1       3.435   2.650  -5.281  1.00  0.00    -0.059 A 
HETATM   19  C18 UNK     1       3.377   3.183  -6.672  1.00  0.00     0.048 C 
ENDBRANCH   7   8
ENDBRANCH   1   7
BRANCH   2  20
HETATM   20  C6  UNK     1      -2.008   0.215   1.962  1.00  0.00     0.375 C 
BRANCH  20  21
HETATM   21  C9  UNK     1      -2.736  -1.072   2.309  1.00  0.00     0.250 C 
HETATM   22  O2  UNK     1      -2.150  -2.079   2.695  1.00  0.00    -0.271 OA
HETATM   23  N3  UNK     1      -4.108  -0.914   2.128  1.00  0.00    -0.326 N 
HETATM   24  H15 UNK     1      -4.442  -0.007   1.809  1.00  0.00     0.169 HD
BRANCH  23  25
HETATM   25  C17 UNK     1      -5.124  -1.875   2.342  1.00  0.00     0.034 A 
HETATM   26  C19 UNK     1      -6.459  -1.543   2.109  1.00  0.00     0.030 A 
HETATM   27  C21 UNK     1      -7.460  -2.491   2.320  1.00  0.00     0.009 A 
HETATM   28  C23 UNK     1      -7.127  -3.770   2.765  1.00  0.00    -0.062 A 
HETATM   29  C22 UNK     1      -5.793  -4.102   2.999  1.00  0.00     0.009 A 
HETATM   30  C24 UNK     1      -8.199  -4.783   2.990  1.00  0.00     0.048 C 
HETATM   31  C20 UNK     1      -4.791  -3.155   2.787  1.00  0.00     0.030 A 
ENDBRANCH  23  25
ENDBRANCH  20  21
ENDBRANCH   2  20
TORSDOF 5
