REMARK  2 active torsions:
REMARK  status: ('A' for Active; 'I' for Inactive)
REMARK    1  A    between atoms: C4_8  and  N1_3 
REMARK    2  A    between atoms: C9_13  and  N2_4 
ROOT
HETATM    1  O1  UNK     1      -3.319  -1.546   2.628  1.00  0.00    -0.275 OA
HETATM    2  O2  UNK     1      -5.469  -2.327   2.742  1.00  0.00    -0.260 OA
HETATM    3  C1  UNK     1      -2.307  -1.181   0.444  1.00  0.00     0.000 A 
HETATM    4  C2  UNK     1      -2.224  -1.149   1.834  1.00  0.00     0.089 A 
HETATM    5  C3  UNK     1      -1.201  -0.780  -0.308  1.00  0.00     0.047 A 
HETATM    6  C4  UNK     1      -0.035  -0.356   0.337  1.00  0.00     0.080 A 
HETATM    7  C5  UNK     1      -1.068  -0.729   2.489  1.00  0.00     0.040 A 
HETATM    8  C6  UNK     1       0.031  -0.331   1.732  1.00  0.00     0.036 A 
HETATM    9  C7  UNK     1      -3.543  -1.631  -0.173  1.00  0.00     0.020 A 
HETATM   10  C10 UNK     1      -4.576  -2.005   0.586  1.00  0.00     0.083 A 
HETATM   11  C15 UNK     1      -4.512  -1.980   2.058  1.00  0.00     0.288 A 
ENDROOT
BRANCH   6  12
HETATM   12  N1  UNK     1       1.072   0.045  -0.420  1.00  0.00    -0.150 NA
HETATM   13  N2  UNK     1       1.008   1.275  -0.652  1.00  0.00    -0.150 NA
BRANCH  13  14
HETATM   14  C9  UNK     1       2.120   1.679  -1.411  1.00  0.00     0.079 A 
HETATM   15  C13 UNK     1       2.053   1.653  -2.801  1.00  0.00     0.034 A 
HETATM   16  C11 UNK     1       3.156   2.054  -3.555  1.00  0.00     0.009 A 
HETATM   17  C8  UNK     1       4.321   2.478  -2.915  1.00  0.00    -0.062 A 
HETATM   18  C12 UNK     1       4.382   2.501  -1.522  1.00  0.00     0.009 A 
HETATM   19  C16 UNK     1       5.500   2.907  -3.721  1.00  0.00     0.048 C 
HETATM   20  C14 UNK     1       3.279   2.100  -0.768  1.00  0.00     0.034 A 
ENDBRANCH  13  14
ENDBRANCH   6  12
TORSDOF 2
