REMARK  3 active torsions:
REMARK  status: ('A' for Active; 'I' for Inactive)
REMARK    1  A    between atoms: C15_19  and  O2_2 
REMARK    2  A    between atoms: C9_13  and  N1_4 
REMARK    3  A    between atoms: C2_6  and  C3_7 
ROOT
HETATM    1  O1  UNK     1       2.244   0.987   0.755  1.00  0.00    -0.274 OA
HETATM    2  O3  UNK     1       0.864   0.233   2.408  1.00  0.00    -0.259 OA
HETATM    3  C1  UNK     1       1.468   1.029  -1.545  1.00  0.00     0.001 A 
HETATM    4  C2  UNK     1      -0.012   0.190   0.196  1.00  0.00     0.051 A 
HETATM    5  C4  UNK     1       0.205   0.463  -1.100  1.00  0.00     0.032 A 
HETATM    6  C5  UNK     1       2.461   1.276  -0.605  1.00  0.00     0.089 A 
HETATM    7  C6  UNK     1       1.719   1.330  -2.886  1.00  0.00     0.043 A 
HETATM    8  C7  UNK     1       1.041   0.458   1.214  1.00  0.00     0.299 A 
HETATM    9  C8  UNK     1       3.695   1.814  -0.965  1.00  0.00     0.040 A 
HETATM   10  C9  UNK     1       2.952   1.870  -3.263  1.00  0.00     0.026 A 
HETATM   11  C12 UNK     1       3.938   2.112  -2.304  1.00  0.00     0.032 A 
ENDROOT
BRANCH   4  12
HETATM   12  C3  UNK     1      -1.304  -0.398   0.596  1.00  0.00    -0.020 A 
HETATM   13  C10 UNK     1      -1.458  -1.784   0.628  1.00  0.00     0.015 A 
HETATM   14  C13 UNK     1      -2.680  -2.340   1.008  1.00  0.00     0.037 A 
HETATM   15  C15 UNK     1      -3.746  -1.510   1.355  1.00  0.00     0.068 A 
HETATM   16  C14 UNK     1      -3.591  -0.125   1.323  1.00  0.00     0.037 A 
HETATM   17  C11 UNK     1      -2.369   0.432   0.943  1.00  0.00     0.015 A 
BRANCH  15  18
HETATM   18  O2  UNK     1      -4.938  -2.053   1.726  1.00  0.00    -0.356 OA
HETATM   19  C16 UNK     1      -5.028  -3.477   1.737  1.00  0.00     0.210 C 
ENDBRANCH  15  18
ENDBRANCH   4  12
BRANCH  10  20
HETATM   20  N1  UNK     1       3.202   2.173  -4.619  1.00  0.00    -0.399 N 
HETATM   21  H10 UNK     1       2.490   1.999  -5.315  1.00  0.00     0.156 HD
HETATM   22  H9  UNK     1       4.093   2.563  -4.894  1.00  0.00     0.156 HD
ENDBRANCH  10  20
TORSDOF 3
