REMARK  4 active torsions:
REMARK  status: ('A' for Active; 'I' for Inactive)
REMARK    1  A    between atoms: C11_18  and  O3_4 
REMARK    2  A    between atoms: C17_24  and  O3_4 
REMARK    3  A    between atoms: C1_8  and  C10_17 
REMARK    4  A    between atoms: C11_18  and  C6_13 
ROOT
HETATM    1  O1  UNK     1       0.327  -1.155  -3.249  1.00  0.00    -0.293 OA
HETATM    2  N1  UNK     1       2.700   2.482  -1.355  1.00  0.00    -0.362 N 
HETATM    3  C1  UNK     1       1.241   0.107  -0.821  1.00  0.00     0.104 C 
HETATM    4  C2  UNK     1       1.425   0.682  -2.221  1.00  0.00     0.024 C 
HETATM    5  C3  UNK     1       2.109   1.829  -2.420  1.00  0.00     0.020 C 
HETATM    6  C4  UNK     1       2.279   2.467  -3.773  1.00  0.00     0.058 C 
HETATM    7  C5  UNK     1       1.224   1.997  -4.767  1.00  0.00     0.014 C 
HETATM    8  C6  UNK     1       2.066   0.846   0.234  1.00  0.00     0.052 C 
HETATM    9  C7  UNK     1       1.136   0.482  -4.785  1.00  0.00     0.084 C 
HETATM   10  C8  UNK     1       0.893  -0.073  -3.399  1.00  0.00     0.158 C 
HETATM   11  C9  UNK     1       2.727   1.990  -0.059  1.00  0.00     0.018 C 
HETATM   12  C13 UNK     1       3.522   2.816   0.915  1.00  0.00     0.069 C 
HETATM   13  H8  UNK     1       3.207   3.338  -1.546  1.00  0.00     0.165 HD
ENDROOT
BRANCH   3  14
HETATM   14  C10 UNK     1      -0.216   0.117  -0.442  1.00  0.00     0.029 A 
HETATM   15  C12 UNK     1      -0.888  -1.180  -0.177  1.00  0.00     0.194 A 
HETATM   16  O5  UNK     1      -0.296  -2.249  -0.257  1.00  0.00    -0.287 OA
HETATM   17  C15 UNK     1      -2.315  -1.114   0.189  1.00  0.00     0.050 A 
HETATM   18  C16 UNK     1      -2.939   0.131   0.265  1.00  0.00     0.089 A 
HETATM   19  C18 UNK     1      -3.037  -2.280   0.457  1.00  0.00     0.042 A 
HETATM   20  O2  UNK     1      -2.279   1.307   0.013  1.00  0.00    -0.321 OA
HETATM   21  C19 UNK     1      -4.288   0.218   0.610  1.00  0.00     0.040 A 
HETATM   22  C14 UNK     1      -0.950   1.230  -0.328  1.00  0.00     0.154 A 
HETATM   23  C23 UNK     1      -5.010  -0.945   0.878  1.00  0.00     0.026 A 
HETATM   24  C20 UNK     1      -4.386  -2.191   0.802  1.00  0.00     0.035 A 
HETATM   25 Cl1  UNK     1      -5.284  -3.622   1.135  1.00  0.00    -0.084 Cl
ENDBRANCH   3  14
BRANCH   8  26
HETATM   26  C11 UNK     1       2.143   0.219   1.564  1.00  0.00     0.292 C 
HETATM   27  O4  UNK     1       2.984  -0.607   1.866  1.00  0.00    -0.259 OA
BRANCH  26  28
HETATM   28  O3  UNK     1       1.148   0.724   2.332  1.00  0.00    -0.313 OA
BRANCH  28  29
HETATM   29  C17 UNK     1       1.090   0.208   3.666  1.00  0.00     0.124 C 
HETATM   30  C21 UNK     1      -0.047   0.884   4.416  1.00  0.00     0.040 C 
HETATM   31  C22 UNK     1       0.916  -1.302   3.612  1.00  0.00     0.040 C 
ENDBRANCH  28  29
ENDBRANCH  26  28
ENDBRANCH   8  26
TORSDOF 4
