REMARK  5 active torsions:
REMARK  status: ('A' for Active; 'I' for Inactive)
REMARK    1  A    between atoms: C7_12  and  O2_2 
REMARK    2  A    between atoms: C8_13  and  O2_2 
REMARK    3  A    between atoms: C5_10  and  N1_5 
REMARK       I    between atoms: C6_11  and  N1_5 
REMARK    4  A    between atoms: C2_7  and  C6_11 
REMARK    5  A    between atoms: C11_16  and  C8_13 
ROOT
HETATM    1  O3  UNK     1       1.051  -0.102  -2.711  1.00  0.00    -0.267 OA
HETATM    2  N1  UNK     1       0.928   0.614  -0.470  1.00  0.00    -0.323 N 
HETATM    3  C6  UNK     1       1.473   0.530  -1.744  1.00  0.00     0.262 C 
HETATM    4  H4  UNK     1       1.392   1.203   0.217  1.00  0.00     0.169 HD
ENDROOT
BRANCH   2   5
HETATM    5  C5  UNK     1      -0.247  -0.015   0.009  1.00  0.00     0.035 A 
HETATM    6  C12 UNK     1      -0.980  -0.820  -0.846  1.00  0.00     0.032 A 
HETATM    7  C15 UNK     1      -2.138  -1.439  -0.374  1.00  0.00     0.039 A 
HETATM    8  C7  UNK     1      -2.545  -1.243   0.946  1.00  0.00     0.069 A 
HETATM    9  C16 UNK     1      -1.794  -0.429   1.794  1.00  0.00     0.039 A 
HETATM   10  C13 UNK     1      -0.636   0.190   1.322  1.00  0.00     0.032 A 
BRANCH   8  11
HETATM   11  O2  UNK     1      -3.674  -1.847   1.407  1.00  0.00    -0.347 OA
BRANCH  11  12
HETATM   12  C8  UNK     1      -4.032  -1.604   2.766  1.00  0.00     0.214 C 
BRANCH  12  13
HETATM   13  C11 UNK     1      -5.277  -2.376   3.090  1.00  0.00    -0.034 A 
HETATM   14  C19 UNK     1      -6.522  -1.789   2.894  1.00  0.00     0.009 A 
HETATM   15  C21 UNK     1      -7.680  -2.507   3.196  1.00  0.00     0.001 A 
HETATM   16  C23 UNK     1      -7.585  -3.807   3.691  1.00  0.00     0.000 A 
HETATM   17  C22 UNK     1      -6.332  -4.390   3.886  1.00  0.00     0.001 A 
HETATM   18  C20 UNK     1      -5.175  -3.672   3.585  1.00  0.00     0.009 A 
ENDBRANCH  12  13
ENDBRANCH  11  12
ENDBRANCH   8  11
ENDBRANCH   2   5
BRANCH   3  19
HETATM   19  C2  UNK     1       2.702   1.323  -1.873  1.00  0.00     0.108 A 
HETATM   20  C10 UNK     1       3.608   1.560  -0.727  1.00  0.00     0.304 A 
HETATM   21  O1  UNK     1       4.743   2.328  -0.975  1.00  0.00    -0.274 OA
HETATM   22  O4  UNK     1       3.376   1.104   0.388  1.00  0.00    -0.259 OA
HETATM   23  C3  UNK     1       5.018   2.855  -2.251  1.00  0.00     0.089 A 
HETATM   24  C1  UNK     1       4.153   2.621  -3.315  1.00  0.00    -0.001 A 
HETATM   25  C14 UNK     1       6.179   3.612  -2.402  1.00  0.00     0.038 A 
HETATM   26  C4  UNK     1       2.959   1.822  -3.088  1.00  0.00     0.037 A 
HETATM   27  C9  UNK     1       4.460   3.162  -4.566  1.00  0.00     0.014 A 
HETATM   28  C17 UNK     1       5.621   3.923  -4.733  1.00  0.00     0.001 A 
HETATM   29  C18 UNK     1       6.478   4.147  -3.653  1.00  0.00     0.003 A 
ENDBRANCH   3  19
TORSDOF 5
