REMARK  5 active torsions:
REMARK  status: ('A' for Active; 'I' for Inactive)
REMARK    1  A    between atoms: C9_15  and  O2_2 
REMARK    2  A    between atoms: C10_16  and  O3_3 
REMARK    3  A    between atoms: C11_17  and  O4_4 
REMARK    4  A    between atoms: C14_20  and  O6_6 
REMARK    5  A    between atoms: C3_9  and  C6_12 
ROOT
HETATM    1  O1  UNK     1       0.947   1.124  -0.665  1.00  0.00    -0.306 OA
HETATM    2  O5  UNK     1       0.969   0.170  -4.075  1.00  0.00    -0.284 OA
HETATM    3  C1  UNK     1       2.204   1.555  -2.554  1.00  0.00     0.051 A 
HETATM    4  C2  UNK     1       0.400   0.401  -1.718  1.00  0.00     0.127 A 
HETATM    5  C4  UNK     1       2.021   1.801  -1.195  1.00  0.00     0.093 A 
HETATM    6  C5  UNK     1       1.159   0.629  -2.971  1.00  0.00     0.218 A 
HETATM    7  C6  UNK     1      -0.667  -0.394  -1.618  1.00  0.00     0.053 C 
HETATM    8  C12 UNK     1       3.223   2.133  -3.282  1.00  0.00     0.021 A 
HETATM    9  C13 UNK     1       2.861   2.647  -0.503  1.00  0.00     0.074 A 
HETATM   10  C14 UNK     1       3.903   3.247  -1.218  1.00  0.00     0.068 A 
HETATM   11  C15 UNK     1       4.082   2.993  -2.593  1.00  0.00     0.037 A 
ENDROOT
BRANCH   7  12
HETATM   12  C3  UNK     1      -1.446  -0.645  -0.391  1.00  0.00    -0.028 A 
HETATM   13  C7  UNK     1      -1.097  -1.707   0.426  1.00  0.00     0.051 A 
HETATM   14  C10 UNK     1      -1.834  -1.945   1.587  1.00  0.00     0.105 A 
HETATM   15  C11 UNK     1      -2.908  -1.117   1.913  1.00  0.00     0.135 A 
HETATM   16  C9  UNK     1      -3.245  -0.051   1.079  1.00  0.00     0.105 A 
HETATM   17  C8  UNK     1      -2.509   0.186  -0.082  1.00  0.00     0.051 A 
BRANCH  14  18
HETATM   18  O3  UNK     1      -1.493  -2.989   2.394  1.00  0.00    -0.353 OA
HETATM   19  C17 UNK     1      -0.549  -2.726   3.429  1.00  0.00     0.210 C 
ENDBRANCH  14  18
BRANCH  15  20
HETATM   20  O4  UNK     1      -3.628  -1.349   3.047  1.00  0.00    -0.351 OA
HETATM   21  C18 UNK     1      -4.752  -2.218   2.933  1.00  0.00     0.210 C 
ENDBRANCH  15  20
BRANCH  16  22
HETATM   22  O2  UNK     1      -4.292   0.764   1.386  1.00  0.00    -0.353 OA
HETATM   23  C16 UNK     1      -4.008   1.911   2.184  1.00  0.00     0.210 C 
ENDBRANCH  16  22
ENDBRANCH   7  12
BRANCH  10  24
HETATM   24  O6  UNK     1       4.760   4.091  -0.576  1.00  0.00    -0.361 OA
HETATM   25  H16 UNK     1       5.418   4.417  -1.214  1.00  0.00     0.217 HD
ENDBRANCH  10  24
TORSDOF 5
