REMARK  5 active torsions:
REMARK  status: ('A' for Active; 'I' for Inactive)
REMARK    1  A    between atoms: C5_12  and  N1_5 
REMARK    2  A    between atoms: C6_13  and  N2_6 
REMARK    3  A    between atoms: C17_24  and  N3_7 
REMARK       I    between atoms: C9_16  and  N3_7 
REMARK    4  A    between atoms: C5_12  and  C7_14 
REMARK    5  A    between atoms: C6_13  and  C9_16 
ROOT
HETATM    1  N1  UNK     1       0.740  -0.155  -1.942  1.00  0.00     0.096 N 
HETATM    2  N2  UNK     1      -1.933  -1.013  -1.251  1.00  0.00     0.100 N 
HETATM    3  C1  UNK     1      -0.192  -0.646  -2.965  1.00  0.00     0.303 C 
HETATM    4  C2  UNK     1       0.450  -0.777  -0.644  1.00  0.00     0.303 C 
HETATM    5  C3  UNK     1      -1.645  -0.391  -2.548  1.00  0.00     0.303 C 
HETATM    6  C4  UNK     1      -1.002  -0.521  -0.228  1.00  0.00     0.303 C 
ENDROOT
BRANCH   1   7
HETATM    7  C5  UNK     1       2.124  -0.403  -2.339  1.00  0.00     0.312 C 
BRANCH   7   8
HETATM    8  C7  UNK     1       3.084   0.469  -1.606  1.00  0.00    -0.011 A 
HETATM    9  C10 UNK     1       3.624   0.080  -0.443  1.00  0.00     0.092 A 
HETATM   10  C13 UNK     1       4.577   0.908   0.317  1.00  0.00     0.288 A 
HETATM   11  O1  UNK     1       4.905   2.139  -0.228  1.00  0.00    -0.275 OA
HETATM   12  O3  UNK     1       5.051   0.518   1.378  1.00  0.00    -0.260 OA
HETATM   13  C11 UNK     1       4.353   2.575  -1.450  1.00  0.00     0.090 A 
HETATM   14  C14 UNK     1       4.755   3.833  -1.903  1.00  0.00     0.045 A 
HETATM   15  C8  UNK     1       3.451   1.780  -2.158  1.00  0.00     0.006 A 
HETATM   16  C15 UNK     1       4.244   4.317  -3.103  1.00  0.00    -0.059 A 
HETATM   17  C16 UNK     1       3.341   3.545  -3.832  1.00  0.00     0.007 A 
HETATM   18  C18 UNK     1       4.659   5.657  -3.607  1.00  0.00     0.048 C 
HETATM   19  C12 UNK     1       2.947   2.286  -3.364  1.00  0.00     0.015 A 
ENDBRANCH   7   8
ENDBRANCH   1   7
BRANCH   2  20
HETATM   20  C6  UNK     1      -3.318  -0.768  -0.853  1.00  0.00     0.375 C 
BRANCH  20  21
HETATM   21  C9  UNK     1      -3.734  -1.791   0.190  1.00  0.00     0.250 C 
HETATM   22  O2  UNK     1      -3.723  -2.998  -0.027  1.00  0.00    -0.271 OA
HETATM   23  N3  UNK     1      -4.101  -1.151   1.372  1.00  0.00    -0.324 N 
HETATM   24  H15 UNK     1      -4.051  -0.135   1.403  1.00  0.00     0.169 HD
BRANCH  23  25
HETATM   25  C17 UNK     1      -4.547  -1.749   2.575  1.00  0.00     0.056 A 
HETATM   26  C19 UNK     1      -4.882  -0.980   3.689  1.00  0.00     0.060 A 
HETATM   27  C21 UNK     1      -5.317  -1.601   4.860  1.00  0.00     0.026 A 
HETATM   28 Cl1  UNK     1      -4.773   0.744   3.663  1.00  0.00    -0.082 Cl
HETATM   29  C23 UNK     1      -5.416  -2.991   4.917  1.00  0.00     0.002 A 
HETATM   30  C22 UNK     1      -5.081  -3.760   3.803  1.00  0.00     0.002 A 
HETATM   31  C20 UNK     1      -4.646  -3.139   2.632  1.00  0.00     0.031 A 
ENDBRANCH  23  25
ENDBRANCH  20  21
ENDBRANCH   2  20
TORSDOF 5
