REMARK  4 active torsions:
REMARK  status: ('A' for Active; 'I' for Inactive)
REMARK    1  A    between atoms: C3_7  and  O1_1 
REMARK    2  A    between atoms: C7_11  and  O1_1 
REMARK    3  A    between atoms: C10_14  and  C7_11 
REMARK    4  A    between atoms: C10_14  and  C9_13 
ROOT
HETATM    1  O2  UNK     1       3.316   1.361  -0.319  1.00  0.00    -0.275 OA
HETATM    2  O4  UNK     1       5.288   2.407   0.193  1.00  0.00    -0.260 OA
HETATM    3  C1  UNK     1       2.260   1.810  -2.466  1.00  0.00    -0.002 A 
HETATM    4  C2  UNK     1       2.267   1.153  -1.238  1.00  0.00     0.092 A 
HETATM    5  C3  UNK     1       0.200   0.049  -1.759  1.00  0.00     0.072 A 
HETATM    6  C4  UNK     1       1.250   0.274  -0.872  1.00  0.00     0.075 A 
HETATM    7  C5  UNK     1       1.204   1.579  -3.350  1.00  0.00     0.017 A 
HETATM    8  C6  UNK     1       0.176   0.700  -2.995  1.00  0.00     0.038 A 
HETATM    9  C8  UNK     1       3.353   2.714  -2.783  1.00  0.00     0.020 A 
HETATM   10  C11 UNK     1       4.342   2.905  -1.907  1.00  0.00     0.083 A 
HETATM   11  C14 UNK     1       4.372   2.221  -0.601  1.00  0.00     0.288 A 
ENDROOT
BRANCH   5  12
HETATM   12  O1  UNK     1      -0.805  -0.805  -1.422  1.00  0.00    -0.344 OA
BRANCH  12  13
HETATM   13  C7  UNK     1      -1.118  -0.924  -0.035  1.00  0.00     0.259 C 
BRANCH  13  14
HETATM   14  C10 UNK     1      -2.585  -1.266   0.139  1.00  0.00     0.183 C 
HETATM   15  O3  UNK     1      -3.341  -1.373  -0.824  1.00  0.00    -0.290 OA
BRANCH  14  16
HETATM   16  C9  UNK     1      -3.114  -1.475   1.518  1.00  0.00     0.012 A 
HETATM   17  C12 UNK     1      -2.250  -1.349   2.582  1.00  0.00     0.015 A 
HETATM   18  C15 UNK     1      -2.745  -1.544   3.872  1.00  0.00     0.001 A 
HETATM   19  C17 UNK     1      -4.090  -1.860   4.062  1.00  0.00     0.000 A 
HETATM   20  C16 UNK     1      -4.940  -1.981   2.963  1.00  0.00     0.001 A 
HETATM   21  C13 UNK     1      -4.445  -1.785   1.674  1.00  0.00     0.015 A 
ENDBRANCH  14  16
ENDBRANCH  13  14
ENDBRANCH  12  13
ENDBRANCH   5  12
TORSDOF 4
