REMARK  4 active torsions:
REMARK  status: ('A' for Active; 'I' for Inactive)
REMARK    1  A    between atoms: C13_17  and  O2_2 
REMARK    2  A    between atoms: C5_9  and  O2_2 
REMARK    3  A    between atoms: C1_5  and  C6_10 
REMARK    4  A    between atoms: C13_17  and  C14_18 
ROOT
HETATM    1  O1  UNK     1      -2.733  -0.514  -0.645  1.00  0.00    -0.275 OA
HETATM    2  O3  UNK     1      -4.691  -1.649  -0.317  1.00  0.00    -0.260 OA
HETATM    3  C1  UNK     1       1.068   0.614   0.653  1.00  0.00    -0.024 A 
HETATM    4  C2  UNK     1      -0.993  -0.613   1.067  1.00  0.00     0.005 A 
HETATM    5  C3  UNK     1       0.288  -0.213   1.469  1.00  0.00     0.024 A 
HETATM    6  C4  UNK     1      -1.456  -0.157  -0.168  1.00  0.00     0.093 A 
HETATM    7  C5  UNK     1       0.580   1.055  -0.576  1.00  0.00     0.088 A 
HETATM    8  C7  UNK     1      -1.867  -1.480   1.869  1.00  0.00    -0.043 A 
HETATM    9  C8  UNK     1      -0.690   0.669  -0.993  1.00  0.00     0.076 A 
HETATM   10  C10 UNK     1      -3.077  -1.803   1.391  1.00  0.00     0.090 A 
HETATM   11  C11 UNK     1      -1.399  -1.988   3.201  1.00  0.00     0.049 C 
HETATM   12  C12 UNK     1      -3.579  -1.330   0.090  1.00  0.00     0.288 A 
ENDROOT
BRANCH   7  13
HETATM   13  O2  UNK     1       1.330   1.861  -1.377  1.00  0.00    -0.278 OA
BRANCH  13  14
HETATM   14  C13 UNK     1       2.150   1.168  -2.288  1.00  0.00     0.263 C 
HETATM   15  O4  UNK     1       2.219  -0.049  -2.392  1.00  0.00    -0.265 OA
BRANCH  14  16
HETATM   16  C14 UNK     1       2.930   2.163  -3.117  1.00  0.00     0.107 C 
HETATM   17  C15 UNK     1       3.822   1.479  -4.138  1.00  0.00     0.015 C 
ENDBRANCH  14  16
ENDBRANCH  13  14
ENDBRANCH   7  13
BRANCH   3  18
HETATM   18  C6  UNK     1       2.429   1.019   1.118  1.00  0.00     0.037 C 
HETATM   19  C9  UNK     1       2.403   2.314   1.925  1.00  0.00     0.010 C 
ENDBRANCH   3  18
TORSDOF 4
