REMARK  9 active torsions:
REMARK  status: ('A' for Active; 'I' for Inactive)
REMARK    1  A    between atoms: C2_11  and  O1_1 
REMARK    2  A    between atoms: C3_12  and  O1_1 
REMARK    3  A    between atoms: C12_21  and  O2_2 
REMARK    4  A    between atoms: C5_14  and  O2_2 
REMARK    5  A    between atoms: C15_24  and  N1_7 
REMARK    6  A    between atoms: C20_29  and  N2_8 
REMARK    7  A    between atoms: C1_10  and  C7_16 
REMARK    8  A    between atoms: C3_12  and  C5_14 
REMARK    9  A    between atoms: C6_15  and  C8_17 
ROOT
HETATM    1  N3  UNK     1      -2.245   1.829   1.878  1.00  0.00    -0.191 NA
HETATM    2  C7  UNK     1      -1.080  -1.392   2.279  1.00  0.00     0.035 C 
HETATM    3  C8  UNK     1      -2.234  -0.771   1.916  1.00  0.00     0.055 C 
HETATM    4  C23 UNK     1      -2.231   0.668   1.898  1.00  0.00     0.100 C 
ENDROOT
BRANCH   3   5
HETATM    5  C6  UNK     1      -3.450  -1.477   1.543  1.00  0.00    -0.015 A 
HETATM    6  C13 UNK     1      -3.672  -1.830   0.212  1.00  0.00     0.015 A 
HETATM    7  C16 UNK     1      -4.837  -2.509  -0.144  1.00  0.00     0.037 A 
HETATM    8  C15 UNK     1      -5.781  -2.834   0.831  1.00  0.00     0.102 A 
HETATM    9  C17 UNK     1      -5.559  -2.481   2.162  1.00  0.00     0.037 A 
HETATM   10  C14 UNK     1      -4.393  -1.802   2.518  1.00  0.00     0.015 A 
BRANCH   8  11
HETATM   11  N1  UNK     1      -6.967  -3.525   0.469  1.00  0.00    -0.116 N 
HETATM   12  O3  UNK     1      -7.149  -3.833  -0.734  1.00  0.00    -0.532 OA
HETATM   13  O4  UNK     1      -7.803  -3.808   1.361  1.00  0.00    -0.532 OA
ENDBRANCH   8  11
ENDBRANCH   3   5
BRANCH   2  14
HETATM   14  C1  UNK     1       0.172  -0.720   2.656  1.00  0.00    -0.032 A 
HETATM   15  C9  UNK     1       0.392  -0.384   3.984  1.00  0.00     0.011 A 
HETATM   16  C11 UNK     1       1.580   0.252   4.343  1.00  0.00     0.004 A 
HETATM   17  C10 UNK     1       2.535   0.547   3.370  1.00  0.00     0.037 A 
HETATM   18  C2  UNK     1       2.302   0.204   2.038  1.00  0.00     0.069 A 
HETATM   19  C4  UNK     1       1.114  -0.433   1.679  1.00  0.00     0.048 A 
BRANCH  18  20
HETATM   20  O1  UNK     1       3.234   0.491   1.088  1.00  0.00    -0.349 OA
BRANCH  20  21
HETATM   21  C3  UNK     1       4.052   1.640   1.308  1.00  0.00     0.202 C 
BRANCH  21  22
HETATM   22  C5  UNK     1       4.468   2.214  -0.032  1.00  0.00     0.202 C 
BRANCH  22  23
HETATM   23  O2  UNK     1       3.303   2.563  -0.770  1.00  0.00    -0.349 OA
BRANCH  23  24
HETATM   24  C12 UNK     1       3.397   2.508  -2.136  1.00  0.00     0.069 A 
HETATM   25  C18 UNK     1       4.621   2.749  -2.751  1.00  0.00     0.039 A 
HETATM   26  C21 UNK     1       4.718   2.692  -4.141  1.00  0.00     0.039 A 
HETATM   27  C20 UNK     1       3.591   2.394  -4.907  1.00  0.00     0.103 A 
HETATM   28  C22 UNK     1       2.367   2.154  -4.283  1.00  0.00     0.039 A 
HETATM   29  C19 UNK     1       2.270   2.211  -2.893  1.00  0.00     0.039 A 
BRANCH  27  30
HETATM   30  N2  UNK     1       3.689   2.339  -6.323  1.00  0.00    -0.116 N 
HETATM   31  O5  UNK     1       4.799   2.560  -6.864  1.00  0.00    -0.532 OA
HETATM   32  O6  UNK     1       2.663   2.069  -6.993  1.00  0.00    -0.532 OA
ENDBRANCH  27  30
ENDBRANCH  23  24
ENDBRANCH  22  23
ENDBRANCH  21  22
ENDBRANCH  20  21
ENDBRANCH  18  20
ENDBRANCH   2  14
TORSDOF 9
