REMARK  4 active torsions:
REMARK  status: ('A' for Active; 'I' for Inactive)
REMARK    1  A    between atoms: C1_5  and  N1_4 
REMARK       I    between atoms: C6_10  and  N1_4 
REMARK    2  A    between atoms: C1_5  and  C2_6 
REMARK    3  A    between atoms: C1_5  and  C3_7 
REMARK    4  A    between atoms: C6_10  and  C8_12 
ROOT
HETATM    1  C1  UNK     1       2.404   1.462  -1.842  1.00  0.00     0.095 C 
HETATM    2  C7  UNK     1       3.789   1.138  -1.433  1.00  0.00    -0.086 C 
HETATM    3  C14 UNK     1       4.913   0.876  -1.102  1.00  0.00     0.015 C 
ENDROOT
BRANCH   1   4
HETATM    4  N1  UNK     1       1.470   0.814  -0.940  1.00  0.00    -0.337 N 
HETATM    5  C6  UNK     1       0.105   0.935  -1.074  1.00  0.00     0.259 C 
HETATM    6  O2  UNK     1      -0.498   1.575  -1.929  1.00  0.00    -0.267 OA
HETATM    7  H5  UNK     1       1.855   0.222  -0.210  1.00  0.00     0.164 HD
BRANCH   5   8
HETATM    8  C8  UNK     1      -0.631   0.184  -0.041  1.00  0.00     0.108 A 
HETATM    9  C12 UNK     1      -0.073  -0.044   1.311  1.00  0.00     0.304 A 
HETATM   10  O1  UNK     1      -0.863  -0.768   2.200  1.00  0.00    -0.274 OA
HETATM   11  O3  UNK     1       1.029   0.383   1.638  1.00  0.00    -0.259 OA
HETATM   12  C11 UNK     1      -2.131  -1.261   1.835  1.00  0.00     0.089 A 
HETATM   13  C10 UNK     1      -2.636  -1.036   0.559  1.00  0.00    -0.001 A 
HETATM   14  C15 UNK     1      -2.848  -1.975   2.793  1.00  0.00     0.038 A 
HETATM   15  C9  UNK     1      -1.835  -0.283  -0.393  1.00  0.00     0.037 A 
HETATM   16  C13 UNK     1      -3.898  -1.542   0.234  1.00  0.00     0.014 A 
HETATM   17  C16 UNK     1      -4.629  -2.260   1.185  1.00  0.00     0.001 A 
HETATM   18  C17 UNK     1      -4.105  -2.475   2.462  1.00  0.00     0.003 A 
ENDBRANCH   5   8
ENDBRANCH   1   4
BRANCH   1  19
HETATM   19  C2  UNK     1       2.150   0.976  -3.292  1.00  0.00     0.040 C 
HETATM   20  C4  UNK     1       2.348  -0.522  -3.517  1.00  0.00     0.009 C 
ENDBRANCH   1  19
BRANCH   1  21
HETATM   21  C3  UNK     1       2.190   2.999  -1.801  1.00  0.00     0.040 C 
HETATM   22  C5  UNK     1       2.347   3.636  -0.422  1.00  0.00     0.009 C 
ENDBRANCH   1  21
TORSDOF 4
