REMARK  5 active torsions:
REMARK  status: ('A' for Active; 'I' for Inactive)
REMARK    1  A    between atoms: C13_18  and  O2_2 
REMARK    2  A    between atoms: C1_6  and  N1_4 
REMARK    3  A    between atoms: C4_9  and  N1_4 
REMARK    4  A    between atoms: C1_6  and  C2_7 
REMARK    5  A    between atoms: C4_9  and  C9_14 
ROOT
HETATM    1  N2  UNK     1      -6.081  -2.388   0.997  1.00  0.00    -0.197 NA
HETATM    2  C9  UNK     1      -3.666  -1.447   0.547  1.00  0.00     0.154 C 
HETATM    3  C14 UNK     1      -5.015  -1.973   0.799  1.00  0.00     0.060 C 
ENDROOT
BRANCH   2   4
HETATM    4  C4  UNK     1      -2.677  -1.956   1.593  1.00  0.00     0.286 C 
BRANCH   4   5
HETATM    5  N1  UNK     1      -1.332  -1.409   1.335  1.00  0.00     0.089 N 
HETATM    6  C7  UNK     1      -0.407  -1.892   2.377  1.00  0.00     0.310 C 
BRANCH   5   7
HETATM    7  C1  UNK     1      -1.348   0.018   1.264  1.00  0.00     0.311 C 
BRANCH   7   8
HETATM    8  C2  UNK     1       0.033   0.508   0.940  1.00  0.00    -0.011 A 
HETATM    9  C3  UNK     1       0.439   0.682  -0.461  1.00  0.00     0.006 A 
HETATM   10  C5  UNK     1       1.730   1.139  -0.731  1.00  0.00     0.093 A 
HETATM   11  C8  UNK     1      -0.397   0.415  -1.553  1.00  0.00     0.017 A 
HETATM   12  C10 UNK     1       2.196   1.332  -2.033  1.00  0.00     0.075 A 
HETATM   13  O1  UNK     1       2.633   1.431   0.312  1.00  0.00    -0.275 OA
HETATM   14  C13 UNK     1       1.350   1.061  -3.103  1.00  0.00     0.070 A 
HETATM   15  C12 UNK     1       0.056   0.603  -2.864  1.00  0.00     0.038 A 
HETATM   16  C11 UNK     1       2.277   1.277   1.643  1.00  0.00     0.288 A 
HETATM   17  O3  UNK     1       3.054   1.528   2.557  1.00  0.00    -0.260 OA
HETATM   18  C6  UNK     1       0.912   0.794   1.911  1.00  0.00     0.092 A 
BRANCH  14  19
HETATM   19  O2  UNK     1       1.785   1.242  -4.380  1.00  0.00    -0.356 OA
HETATM   20  C15 UNK     1       3.121   1.712  -4.551  1.00  0.00     0.210 C 
ENDBRANCH  14  19
ENDBRANCH   7   8
ENDBRANCH   5   7
ENDBRANCH   4   5
ENDBRANCH   2   4
TORSDOF 5
