REMARK  5 active torsions:
REMARK  status: ('A' for Active; 'I' for Inactive)
REMARK    1  A    between atoms: C1_5  and  N1_4 
REMARK       I    between atoms: C6_10  and  N1_4 
REMARK    2  A    between atoms: C1_5  and  C2_6 
REMARK    3  A    between atoms: C2_6  and  C3_7 
REMARK    4  A    between atoms: C3_7  and  C5_9 
REMARK    5  A    between atoms: C6_10  and  C7_11 
ROOT
HETATM    1  O2  UNK     1       1.431   1.763   1.872  1.00  0.00    -0.267 OA
HETATM    2  N1  UNK     1       0.421  -0.217   1.169  1.00  0.00    -0.352 N 
HETATM    3  C6  UNK     1       1.150   0.946   0.997  1.00  0.00     0.258 C 
HETATM    4  H9  UNK     1       0.311  -0.863   0.393  1.00  0.00     0.163 HD
ENDROOT
BRANCH   3   5
HETATM    5  C7  UNK     1       1.593   1.142  -0.389  1.00  0.00     0.108 A 
HETATM    6  C10 UNK     1       2.740   1.811  -0.554  1.00  0.00     0.037 A 
HETATM    7  C11 UNK     1       3.260   2.057  -1.890  1.00  0.00    -0.001 A 
HETATM    8  C17 UNK     1       4.453   2.750  -2.109  1.00  0.00     0.014 A 
HETATM    9  C12 UNK     1       2.546   1.585  -2.987  1.00  0.00     0.089 A 
HETATM   10  C19 UNK     1       4.910   2.960  -3.414  1.00  0.00     0.001 A 
HETATM   11  C20 UNK     1       4.179   2.479  -4.503  1.00  0.00     0.003 A 
HETATM   12  C18 UNK     1       2.989   1.787  -4.293  1.00  0.00     0.038 A 
HETATM   13  O1  UNK     1       1.339   0.882  -2.807  1.00  0.00    -0.274 OA
HETATM   14  C13 UNK     1       0.817   0.632  -1.541  1.00  0.00     0.304 A 
HETATM   15  O3  UNK     1      -0.236   0.019  -1.394  1.00  0.00    -0.259 OA
ENDBRANCH   3   5
BRANCH   2  16
HETATM   16  C1  UNK     1      -0.119  -0.626   2.445  1.00  0.00     0.081 C 
HETATM   17  C4  UNK     1       0.926  -1.430   3.213  1.00  0.00     0.032 C 
BRANCH  16  18
HETATM   18  C2  UNK     1      -1.410  -1.443   2.270  1.00  0.00     0.029 C 
BRANCH  18  19
HETATM   19  C3  UNK     1      -2.552  -0.689   1.572  1.00  0.00     0.040 C 
BRANCH  19  20
HETATM   20  C5  UNK     1      -3.833  -1.477   1.470  1.00  0.00    -0.058 A 
HETATM   21  C8  UNK     1      -4.054  -2.277   0.360  1.00  0.00     0.007 A 
HETATM   22  C14 UNK     1      -5.239  -3.006   0.265  1.00  0.00     0.001 A 
HETATM   23  C16 UNK     1      -6.190  -2.927   1.283  1.00  0.00     0.000 A 
HETATM   24  C15 UNK     1      -5.955  -2.118   2.395  1.00  0.00     0.001 A 
HETATM   25  C9  UNK     1      -4.770  -1.389   2.489  1.00  0.00     0.007 A 
ENDBRANCH  19  20
ENDBRANCH  18  19
ENDBRANCH  16  18
ENDBRANCH   2  16
TORSDOF 5
