REMARK  4 active torsions:
REMARK  status: ('A' for Active; 'I' for Inactive)
REMARK    1  A    between atoms: C1_8  and  N1_6 
REMARK    2  A    between atoms: C7_14  and  N1_6 
REMARK       I    between atoms: C8_15  and  N1_6 
REMARK    3  A    between atoms: C17_24  and  N2_7 
REMARK    4  A    between atoms: C10_17  and  C8_15 
ROOT
HETATM    1  O2  UNK     1      -2.351  -0.671  -1.643  1.00  0.00    -0.274 OA
HETATM    2  O3  UNK     1      -0.858   0.096  -3.193  1.00  0.00    -0.259 OA
HETATM    3  C10 UNK     1      -0.060  -0.139  -0.974  1.00  0.00     0.108 A 
HETATM    4  C11 UNK     1      -0.321  -0.482   0.292  1.00  0.00     0.037 A 
HETATM    5  C12 UNK     1      -1.093  -0.220  -2.031  1.00  0.00     0.304 A 
HETATM    6  C13 UNK     1      -1.646  -0.951   0.667  1.00  0.00     0.001 A 
HETATM    7  C14 UNK     1      -2.632  -1.034  -0.311  1.00  0.00     0.089 A 
HETATM    8  C15 UNK     1      -1.963  -1.320   1.977  1.00  0.00     0.050 A 
HETATM    9  C16 UNK     1      -3.921  -1.475  -0.018  1.00  0.00     0.041 A 
HETATM   10  C17 UNK     1      -3.252  -1.764   2.286  1.00  0.00     0.103 A 
HETATM   11  C18 UNK     1      -4.229  -1.841   1.290  1.00  0.00     0.039 A 
ENDROOT
BRANCH   3  12
HETATM   12  C8  UNK     1       1.315   0.326  -1.255  1.00  0.00     0.260 C 
HETATM   13  O1  UNK     1       2.149  -0.516  -1.591  1.00  0.00    -0.267 OA
HETATM   14  N1  UNK     1       1.554   1.702  -1.127  1.00  0.00    -0.343 N 
BRANCH  14  15
HETATM   15  C1  UNK     1       2.851   2.278  -1.387  1.00  0.00     0.087 C 
HETATM   16  C2  UNK     1       3.898   1.714  -0.423  1.00  0.00     0.025 C 
HETATM   17  C4  UNK     1       5.289   2.271  -0.716  1.00  0.00     0.002 C 
HETATM   18  C6  UNK     1       5.690   2.044  -2.171  1.00  0.00     0.000 C 
HETATM   19  C5  UNK     1       4.649   2.604  -3.136  1.00  0.00     0.002 C 
HETATM   20  C3  UNK     1       3.256   2.050  -2.846  1.00  0.00     0.025 C 
ENDBRANCH  14  15
BRANCH  14  21
HETATM   21  C7  UNK     1       0.501   2.636  -0.721  1.00  0.00     0.122 C 
HETATM   22  C9  UNK     1       0.492   2.772   0.788  1.00  0.00     0.026 C 
ENDBRANCH  14  21
ENDBRANCH   3  12
BRANCH  10  23
HETATM   23  N2  UNK     1      -3.571  -2.138   3.618  1.00  0.00    -0.116 N 
HETATM   24  O4  UNK     1      -4.733  -2.533   3.877  1.00  0.00    -0.532 OA
HETATM   25  O5  UNK     1      -2.681  -2.062   4.500  1.00  0.00    -0.532 OA
ENDBRANCH  10  23
TORSDOF 4
