REMARK  6 active torsions:
REMARK  status: ('A' for Active; 'I' for Inactive)
REMARK    1  A    between atoms: C14_20  and  O2_2 
REMARK    2  A    between atoms: C6_12  and  O2_2 
REMARK    3  A    between atoms: C8_14  and  O3_3 
REMARK       I    between atoms: C17_23  and  N1_6 
REMARK    4  A    between atoms: C3_9  and  N1_6 
REMARK    5  A    between atoms: C13_19  and  C7_13 
REMARK    6  A    between atoms: C14_20  and  C17_23 
ROOT
HETATM    1  O1  UNK     1      -2.386  -1.339   1.150  1.00  0.00    -0.309 OA
HETATM    2  O4  UNK     1      -3.366   0.630   4.580  1.00  0.00    -0.287 OA
HETATM    3  C1  UNK     1      -1.807   0.315   2.833  1.00  0.00     0.081 A 
HETATM    4  C2  UNK     1      -1.534  -0.394   1.664  1.00  0.00     0.095 A 
HETATM    5  C6  UNK     1       0.555   0.795   1.436  1.00  0.00     0.074 A 
HETATM    6  C7  UNK     1      -3.565  -1.603   1.829  1.00  0.00     0.090 A 
HETATM    7  C8  UNK     1      -0.902   1.266   3.309  1.00  0.00     0.085 A 
HETATM    8  C9  UNK     1      -0.352  -0.155   0.963  1.00  0.00     0.075 A 
HETATM    9  C10 UNK     1      -3.061   0.043   3.551  1.00  0.00     0.190 A 
HETATM   10  C11 UNK     1       0.280   1.504   2.607  1.00  0.00     0.074 A 
HETATM   11  C12 UNK     1      -3.943  -0.983   2.959  1.00  0.00     0.094 A 
ENDROOT
BRANCH   5  12
HETATM   12  O2  UNK     1       1.709   1.031   0.754  1.00  0.00    -0.342 OA
BRANCH  12  13
HETATM   13  C14 UNK     1       1.679   0.839  -0.659  1.00  0.00     0.278 C 
BRANCH  13  14
HETATM   14  C17 UNK     1       2.680   1.775  -1.301  1.00  0.00     0.246 C 
HETATM   15  O5  UNK     1       3.355   2.533  -0.611  1.00  0.00    -0.271 OA
HETATM   16  N1  UNK     1       2.701   1.630  -2.682  1.00  0.00    -0.324 N 
HETATM   17  H4  UNK     1       2.052   0.969  -3.104  1.00  0.00     0.169 HD
BRANCH  16  18
HETATM   18  C3  UNK     1       3.506   2.333  -3.610  1.00  0.00     0.046 A 
HETATM   19  C4  UNK     1       3.037   3.518  -4.158  1.00  0.00    -0.035 A 
HETATM   20  C15 UNK     1       3.831   4.211  -5.072  1.00  0.00     0.009 A 
HETATM   21  C19 UNK     1       1.699   4.078  -3.798  1.00  0.00     0.050 C 
HETATM   22  C18 UNK     1       5.084   3.712  -5.427  1.00  0.00     0.001 A 
HETATM   23  C16 UNK     1       5.544   2.520  -4.868  1.00  0.00     0.009 A 
HETATM   24  C5  UNK     1       4.750   1.826  -3.954  1.00  0.00    -0.035 A 
HETATM   25  C20 UNK     1       5.271   0.552  -3.373  1.00  0.00     0.050 C 
ENDBRANCH  16  18
ENDBRANCH  13  14
ENDBRANCH  12  13
ENDBRANCH   5  12
BRANCH   7  26
HETATM   26  O3  UNK     1      -1.123   1.984   4.445  1.00  0.00    -0.360 OA
HETATM   27  H20 UNK     1      -1.969   1.734   4.847  1.00  0.00     0.217 HD
ENDBRANCH   7  26
BRANCH   6  28
HETATM   28  C13 UNK     1      -4.410  -2.631   1.187  1.00  0.00    -0.002 A 
HETATM   29  C21 UNK     1      -5.800  -2.572   1.310  1.00  0.00     0.014 A 
HETATM   30  C23 UNK     1      -6.598  -3.543   0.704  1.00  0.00     0.001 A 
HETATM   31  C25 UNK     1      -6.009  -4.575  -0.026  1.00  0.00     0.000 A 
HETATM   32  C24 UNK     1      -4.621  -4.637  -0.150  1.00  0.00     0.001 A 
HETATM   33  C22 UNK     1      -3.822  -3.666   0.456  1.00  0.00     0.014 A 
ENDBRANCH   6  28
TORSDOF 6
