REMARK  4 active torsions:
REMARK  status: ('A' for Active; 'I' for Inactive)
REMARK    1  A    between atoms: C10_17  and  O2_3 
REMARK       I    between atoms: C11_18  and  N1_7 
REMARK    2  A    between atoms: C4_11  and  N1_7 
REMARK    3  A    between atoms: C10_17  and  C2_9 
REMARK    4  A    between atoms: C11_18  and  C7_14 
ROOT
HETATM    1  S1  UNK     1      -0.005  -0.354   2.522  1.00  0.00    -0.075 SA
HETATM    2  C1  UNK     1      -2.355  -1.181   1.894  1.00  0.00     0.006 A 
HETATM    3  C2  UNK     1      -1.746  -0.760   0.677  1.00  0.00     0.085 A 
HETATM    4  C3  UNK     1      -1.518  -1.015   2.976  1.00  0.00    -0.007 A 
HETATM    5  C4  UNK     1      -0.499  -0.305   0.905  1.00  0.00     0.094 A 
HETATM    6  C5  UNK     1      -3.680  -1.725   2.060  1.00  0.00    -0.024 A 
HETATM    7  C6  UNK     1      -1.756  -1.323   4.406  1.00  0.00     0.057 C 
HETATM    8  C8  UNK     1      -3.879  -3.100   1.972  1.00  0.00     0.012 A 
HETATM    9  C9  UNK     1      -4.752  -0.873   2.306  1.00  0.00     0.012 A 
HETATM   10  C15 UNK     1      -5.161  -3.627   2.132  1.00  0.00     0.001 A 
HETATM   11  C16 UNK     1      -6.034  -1.399   2.467  1.00  0.00     0.001 A 
HETATM   12  C19 UNK     1      -6.238  -2.776   2.380  1.00  0.00     0.000 A 
ENDROOT
BRANCH   5  13
HETATM   13  N1  UNK     1       0.461   0.206  -0.002  1.00  0.00    -0.316 N 
HETATM   14  C11 UNK     1       1.739   0.664   0.286  1.00  0.00     0.262 C 
HETATM   15  O4  UNK     1       2.296   0.719   1.381  1.00  0.00    -0.267 OA
HETATM   16  H1  UNK     1       0.131   0.241  -0.963  1.00  0.00     0.169 HD
BRANCH  14  17
HETATM   17  C7  UNK     1       2.448   1.120  -0.915  1.00  0.00     0.108 A 
HETATM   18  C13 UNK     1       3.346   2.096  -0.737  1.00  0.00     0.037 A 
HETATM   19  C12 UNK     1       4.100   2.614  -1.869  1.00  0.00    -0.001 A 
HETATM   20  C14 UNK     1       3.870   2.079  -3.132  1.00  0.00     0.089 A 
HETATM   21  C18 UNK     1       5.047   3.632  -1.729  1.00  0.00     0.014 A 
HETATM   22  O1  UNK     1       2.923   1.052  -3.313  1.00  0.00    -0.274 OA
HETATM   23  C20 UNK     1       4.557   2.531  -4.257  1.00  0.00     0.038 A 
HETATM   24  C17 UNK     1       2.188   0.535  -2.250  1.00  0.00     0.304 A 
HETATM   25  O5  UNK     1       1.365  -0.359  -2.417  1.00  0.00    -0.259 OA
HETATM   26  C22 UNK     1       5.500   3.547  -4.109  1.00  0.00     0.003 A 
HETATM   27  C21 UNK     1       5.744   4.096  -2.848  1.00  0.00     0.001 A 
ENDBRANCH  14  17
ENDBRANCH   5  13
BRANCH   3  28
HETATM   28  C10 UNK     1      -2.358  -0.805  -0.629  1.00  0.00     0.296 C 
HETATM   29  O3  UNK     1      -3.205  -1.644  -0.966  1.00  0.00    -0.259 OA
BRANCH  28  30
HETATM   30  O2  UNK     1      -1.916   0.180  -1.486  1.00  0.00    -0.322 OA
HETATM   31  C23 UNK     1      -2.484   0.194  -2.801  1.00  0.00     0.213 C 
ENDBRANCH  28  30
ENDBRANCH   3  28
TORSDOF 4
