REMARK  7 active torsions:
REMARK  status: ('A' for Active; 'I' for Inactive)
REMARK    1  A    between atoms: C11_20  and  O1_2 
REMARK    2  A    between atoms: C13_22  and  O2_3 
REMARK    3  A    between atoms: C21_30  and  O6_7 
REMARK    4  A    between atoms: C26_35  and  O6_7 
REMARK       I    between atoms: C14_23  and  N1_9 
REMARK    5  A    between atoms: C8_17  and  N1_9 
REMARK    6  A    between atoms: C13_22  and  C7_16 
REMARK    7  A    between atoms: C14_23  and  C15_24 
ROOT
HETATM    1  S1  UNK     1      -2.473  -0.574  -1.745  1.00  0.00    -0.075 SA
HETATM    2  C1  UNK     1      -4.867  -1.813  -0.981  1.00  0.00     0.051 C 
HETATM    3  C2  UNK     1      -5.812  -1.730   0.226  1.00  0.00     0.044 C 
HETATM    4  C3  UNK     1      -2.972  -1.344   0.662  1.00  0.00     0.007 A 
HETATM    5  C4  UNK     1      -3.519  -1.286  -0.607  1.00  0.00    -0.003 A 
HETATM    6  C5  UNK     1      -5.150  -2.161   1.521  1.00  0.00    -0.044 A 
HETATM    7  C6  UNK     1      -3.769  -1.936   1.735  1.00  0.00    -0.017 A 
HETATM    8  C7  UNK     1      -1.659  -0.784   0.684  1.00  0.00     0.085 A 
HETATM    9  C8  UNK     1      -1.267  -0.326  -0.556  1.00  0.00     0.094 A 
HETATM   10  C9  UNK     1      -5.926  -2.716   2.546  1.00  0.00     0.044 A 
HETATM   11  C10 UNK     1      -3.194  -2.290   2.961  1.00  0.00     0.015 A 
HETATM   12  C11 UNK     1      -5.340  -3.067   3.762  1.00  0.00     0.068 A 
HETATM   13  C12 UNK     1      -3.979  -2.855   3.968  1.00  0.00     0.037 A 
ENDROOT
BRANCH   9  14
HETATM   14  N1  UNK     1      -0.112   0.278  -0.976  1.00  0.00    -0.316 N 
HETATM   15  C14 UNK     1       0.231   0.727  -2.271  1.00  0.00     0.262 C 
HETATM   16  O5  UNK     1      -0.453   0.661  -3.286  1.00  0.00    -0.267 OA
HETATM   17  H8  UNK     1       0.583   0.394  -0.242  1.00  0.00     0.169 HD
BRANCH  15  18
HETATM   18  C15 UNK     1       1.575   1.336  -2.342  1.00  0.00     0.108 A 
HETATM   19  C17 UNK     1       2.217   1.217  -3.511  1.00  0.00     0.037 A 
HETATM   20  C16 UNK     1       3.546   1.784  -3.678  1.00  0.00     0.002 A 
HETATM   21  C18 UNK     1       4.135   2.446  -2.606  1.00  0.00     0.123 A 
HETATM   22  C22 UNK     1       4.252   1.685  -4.880  1.00  0.00     0.014 A 
HETATM   23  O4  UNK     1       3.455   2.567  -1.379  1.00  0.00    -0.271 OA
HETATM   24  C21 UNK     1       5.406   3.011  -2.701  1.00  0.00     0.103 A 
HETATM   25  C19 UNK     1       2.182   2.037  -1.189  1.00  0.00     0.304 A 
HETATM   26  O7  UNK     1       1.597   2.148  -0.117  1.00  0.00    -0.259 OA
HETATM   27  C24 UNK     1       6.103   2.908  -3.903  1.00  0.00     0.040 A 
HETATM   28  C25 UNK     1       5.527   2.246  -4.990  1.00  0.00     0.004 A 
BRANCH  24  29
HETATM   29  O6  UNK     1       5.970   3.655  -1.645  1.00  0.00    -0.349 OA
BRANCH  29  30
HETATM   30  C26 UNK     1       7.394   3.622  -1.548  1.00  0.00     0.171 C 
HETATM   31  C27 UNK     1       7.790   3.701  -0.089  1.00  0.00     0.034 C 
ENDBRANCH  29  30
ENDBRANCH  24  29
ENDBRANCH  15  18
ENDBRANCH   9  14
BRANCH   8  32
HETATM   32  C13 UNK     1      -0.780  -0.631   1.818  1.00  0.00     0.296 C 
HETATM   33  O3  UNK     1       0.041  -1.488   2.176  1.00  0.00    -0.259 OA
BRANCH  32  34
HETATM   34  O2  UNK     1      -0.929   0.566   2.483  1.00  0.00    -0.322 OA
HETATM   35  C23 UNK     1      -0.087   0.783   3.620  1.00  0.00     0.213 C 
ENDBRANCH  32  34
ENDBRANCH   8  32
BRANCH  12  36
HETATM   36  O1  UNK     1      -6.100  -3.613   4.751  1.00  0.00    -0.356 OA
HETATM   37  C20 UNK     1      -5.438  -3.944   5.970  1.00  0.00     0.210 C 
ENDBRANCH  12  36
TORSDOF 7
