REMARK  7 active torsions:
REMARK  status: ('A' for Active; 'I' for Inactive)
REMARK    1  A    between atoms: C1_13  and  S1_1 
REMARK    2  A    between atoms: N1_9  and  S1_1 
REMARK    3  A    between atoms: C19_31  and  O6_7 
REMARK    4  A    between atoms: C20_32  and  O7_8 
REMARK    5  A    between atoms: C12_24  and  N1_9 
REMARK       I    between atoms: C11_23  and  N2_10 
REMARK    6  A    between atoms: C2_14  and  N2_10 
REMARK    7  A    between atoms: C11_23  and  C8_20 
ROOT
HETATM    1  C1  UNK     1      -1.232  -0.769   2.829  1.00  0.00     0.080 A 
HETATM    2  C2  UNK     1       0.640   0.378   1.141  1.00  0.00     0.035 A 
HETATM    3  C3  UNK     1      -0.730   0.503   3.106  1.00  0.00     0.027 A 
HETATM    4  C4  UNK     1      -0.791  -1.463   1.702  1.00  0.00     0.027 A 
HETATM    5  C5  UNK     1       0.213   1.081   2.255  1.00  0.00     0.031 A 
HETATM    6  C6  UNK     1       0.152  -0.885   0.852  1.00  0.00     0.031 A 
ENDROOT
BRANCH   1   7
HETATM    7  S1  UNK     1      -2.412  -1.491   3.893  1.00  0.00     0.264 S 
HETATM    8  O2  UNK     1      -2.264  -0.873   5.206  1.00  0.00    -0.200 OA
HETATM    9  O3  UNK     1      -2.313  -2.941   3.784  1.00  0.00    -0.200 OA
BRANCH   7  10
HETATM   10  N1  UNK     1      -3.908  -0.963   3.220  1.00  0.00    -0.264 N 
HETATM   11  H5  UNK     1      -4.240  -0.051   3.560  1.00  0.00     0.180 HD
BRANCH  10  12
HETATM   12  C12 UNK     1      -4.134  -1.184   1.817  1.00  0.00     0.145 A 
HETATM   13  N3  UNK     1      -4.264  -2.468   1.439  1.00  0.00    -0.189 NA
HETATM   14  C20 UNK     1      -4.475  -2.645   0.121  1.00  0.00     0.272 A 
HETATM   15  N4  UNK     1      -4.563  -1.686  -0.820  1.00  0.00    -0.182 NA
HETATM   16  C19 UNK     1      -4.422  -0.424  -0.363  1.00  0.00     0.171 A 
HETATM   17  C18 UNK     1      -4.203  -0.109   0.962  1.00  0.00     0.109 A 
BRANCH  14  18
HETATM   18  O7  UNK     1      -4.615  -3.943  -0.310  1.00  0.00    -0.324 OA
HETATM   19  C22 UNK     1      -4.522  -4.955   0.683  1.00  0.00     0.213 C 
ENDBRANCH  14  18
BRANCH  16  20
HETATM   20  O6  UNK     1      -4.506   0.585  -1.285  1.00  0.00    -0.339 OA
HETATM   21  C21 UNK     1      -4.733   0.202  -2.636  1.00  0.00     0.211 C 
ENDBRANCH  16  20
ENDBRANCH  10  12
ENDBRANCH   7  10
ENDBRANCH   1   7
BRANCH   2  22
HETATM   22  N2  UNK     1       1.596   0.964   0.277  1.00  0.00    -0.323 N 
HETATM   23  C11 UNK     1       2.140   0.420  -0.878  1.00  0.00     0.262 C 
HETATM   24  O4  UNK     1       1.904  -0.676  -1.385  1.00  0.00    -0.267 OA
HETATM   25  H6  UNK     1       1.884   1.900   0.553  1.00  0.00     0.169 HD
BRANCH  23  26
HETATM   26  C8  UNK     1       3.105   1.324  -1.515  1.00  0.00     0.108 A 
HETATM   27  C13 UNK     1       3.915   2.285  -0.734  1.00  0.00     0.304 A 
HETATM   28  O1  UNK     1       4.796   3.089  -1.452  1.00  0.00    -0.274 OA
HETATM   29  O5  UNK     1       3.821   2.372   0.486  1.00  0.00    -0.259 OA
HETATM   30  C10 UNK     1       4.914   2.996  -2.852  1.00  0.00     0.089 A 
HETATM   31  C7  UNK     1       4.142   2.087  -3.568  1.00  0.00    -0.001 A 
HETATM   32  C15 UNK     1       5.823   3.843  -3.483  1.00  0.00     0.038 A 
HETATM   33  C14 UNK     1       4.287   2.025  -4.956  1.00  0.00     0.014 A 
HETATM   34  C9  UNK     1       3.212   1.232  -2.846  1.00  0.00     0.037 A 
HETATM   35  C16 UNK     1       5.195   2.868  -5.602  1.00  0.00     0.001 A 
HETATM   36  C17 UNK     1       5.962   3.774  -4.867  1.00  0.00     0.003 A 
ENDBRANCH  23  26
ENDBRANCH   2  22
TORSDOF 7
