REMARK  6 active torsions:
REMARK  status: ('A' for Active; 'I' for Inactive)
REMARK    1  A    between atoms: C3_11  and  S1_1 
REMARK    2  A    between atoms: O1_2  and  S1_1 
REMARK    3  A    between atoms: C2_10  and  O1_2 
REMARK    4  A    between atoms: C15_23  and  N1_7 
REMARK    5  A    between atoms: C1_9  and  C7_15 
REMARK    6  A    between atoms: C10_18  and  C4_12 
ROOT
HETATM    1  N2  UNK     1      -5.989  -1.527   0.522  1.00  0.00    -0.191 NA
HETATM    2  C7  UNK     1      -3.319  -0.677  -1.440  1.00  0.00     0.034 C 
HETATM    3  C10 UNK     1      -3.551  -0.969  -0.158  1.00  0.00     0.055 C 
HETATM    4  C21 UNK     1      -4.898  -1.277   0.216  1.00  0.00     0.100 C 
ENDROOT
BRANCH   3   5
HETATM    5  C4  UNK     1      -2.524  -0.982   0.904  1.00  0.00    -0.015 A 
HETATM    6  C13 UNK     1      -1.848  -2.158   1.173  1.00  0.00     0.015 A 
HETATM    7  C16 UNK     1      -0.877  -2.171   2.174  1.00  0.00     0.037 A 
HETATM    8  C15 UNK     1      -0.599  -1.006   2.890  1.00  0.00     0.102 A 
HETATM    9  C17 UNK     1      -1.291   0.170   2.605  1.00  0.00     0.037 A 
HETATM   10  C14 UNK     1      -2.262   0.182   1.603  1.00  0.00     0.015 A 
BRANCH   8  11
HETATM   11  N1  UNK     1       0.390  -1.019   3.910  1.00  0.00    -0.116 N 
HETATM   12  O4  UNK     1       1.001  -2.088   4.151  1.00  0.00    -0.532 OA
HETATM   13  O5  UNK     1       0.625   0.039   4.542  1.00  0.00    -0.532 OA
ENDBRANCH   8  11
ENDBRANCH   3   5
BRANCH   2  14
HETATM   14  C1  UNK     1      -2.001  -0.358  -1.966  1.00  0.00    -0.035 A 
HETATM   15  C5  UNK     1      -1.547   0.961  -1.958  1.00  0.00     0.014 A 
HETATM   16  C8  UNK     1      -0.283   1.266  -2.462  1.00  0.00     0.039 A 
HETATM   17  C2  UNK     1       0.527   0.252  -2.975  1.00  0.00     0.089 A 
HETATM   18  C9  UNK     1       0.072  -1.067  -2.984  1.00  0.00     0.039 A 
HETATM   19  C6  UNK     1      -1.192  -1.372  -2.479  1.00  0.00     0.014 A 
BRANCH  17  20
HETATM   20  O1  UNK     1       1.760   0.551  -3.467  1.00  0.00    -0.229 OA
BRANCH  20  21
HETATM   21  S1  UNK     1       3.120   0.554  -2.552  1.00  0.00     0.303 S 
HETATM   22  O2  UNK     1       4.221   1.083  -3.333  1.00  0.00    -0.193 OA
HETATM   23  O3  UNK     1       3.209  -0.727  -1.875  1.00  0.00    -0.193 OA
BRANCH  21  24
HETATM   24  C3  UNK     1       2.802   1.762  -1.302  1.00  0.00     0.086 A 
HETATM   25  C11 UNK     1       2.205   1.368  -0.116  1.00  0.00     0.026 A 
HETATM   26  C18 UNK     1       1.953   2.322   0.870  1.00  0.00     0.002 A 
HETATM   27  C20 UNK     1       2.302   3.655   0.656  1.00  0.00     0.000 A 
HETATM   28  C19 UNK     1       2.903   4.035  -0.545  1.00  0.00     0.002 A 
HETATM   29  C12 UNK     1       3.154   3.081  -1.531  1.00  0.00     0.026 A 
ENDBRANCH  21  24
ENDBRANCH  20  21
ENDBRANCH  17  20
ENDBRANCH   2  14
TORSDOF 6
