REMARK  5 active torsions:
REMARK  status: ('A' for Active; 'I' for Inactive)
REMARK    1  A    between atoms: C16_22  and  O4_4 
REMARK    2  A    between atoms: C5_11  and  N1_5 
REMARK       I    between atoms: C6_12  and  N2_6 
REMARK    3  A    between atoms: C5_11  and  C8_14 
REMARK    4  A    between atoms: C6_12  and  C7_13 
REMARK    5  A    between atoms: C12_18  and  C14_20 
ROOT
HETATM    1  O1  UNK     1       0.714   2.773   1.252  1.00  0.00    -0.267 OA
HETATM    2  N1  UNK     1      -1.332  -1.737   0.548  1.00  0.00     0.095 N 
HETATM    3  N2  UNK     1       0.412   0.543   0.662  1.00  0.00    -0.344 N 
HETATM    4  C1  UNK     1      -1.795  -0.476   1.140  1.00  0.00     0.292 C 
HETATM    5  C2  UNK     1      -0.394  -1.467  -0.550  1.00  0.00     0.292 C 
HETATM    6  C3  UNK     1      -0.614   0.326   1.683  1.00  0.00     0.156 C 
HETATM    7  C4  UNK     1       0.817  -0.668  -0.063  1.00  0.00     0.156 C 
HETATM    8  C6  UNK     1       0.996   1.802   0.548  1.00  0.00     0.260 C 
ENDROOT
BRANCH   8   9
HETATM    9  C7  UNK     1       2.034   1.987  -0.487  1.00  0.00     0.108 A 
HETATM   10  C10 UNK     1       3.469   1.750  -0.211  1.00  0.00     0.304 A 
HETATM   11  O2  UNK     1       4.351   1.957  -1.268  1.00  0.00    -0.271 OA
HETATM   12  O3  UNK     1       3.866   1.389   0.892  1.00  0.00    -0.259 OA
HETATM   13  C13 UNK     1       3.905   2.371  -2.538  1.00  0.00     0.123 A 
HETATM   14  C11 UNK     1       2.552   2.589  -2.776  1.00  0.00     0.002 A 
HETATM   15  C16 UNK     1       4.864   2.553  -3.533  1.00  0.00     0.102 A 
HETATM   16  C9  UNK     1       1.605   2.380  -1.692  1.00  0.00     0.037 A 
HETATM   17  C15 UNK     1       2.149   3.001  -4.048  1.00  0.00     0.014 A 
HETATM   18  C17 UNK     1       3.099   3.187  -5.057  1.00  0.00     0.004 A 
HETATM   19  C18 UNK     1       4.453   2.963  -4.799  1.00  0.00     0.040 A 
BRANCH  15  20
HETATM   20  O4  UNK     1       6.183   2.336  -3.287  1.00  0.00    -0.353 OA
HETATM   21  C24 UNK     1       6.681   1.019  -3.520  1.00  0.00     0.210 C 
ENDBRANCH  15  20
ENDBRANCH   8   9
BRANCH   2  22
HETATM   22  C5  UNK     1      -2.466  -2.528   0.072  1.00  0.00     0.300 C 
BRANCH  22  23
HETATM   23  C8  UNK     1      -3.410  -2.864   1.188  1.00  0.00     0.004 C 
HETATM   24  C12 UNK     1      -4.700  -2.495   1.197  1.00  0.00     0.009 C 
BRANCH  24  25
HETATM   25  C14 UNK     1      -5.667  -2.814   2.261  1.00  0.00    -0.036 A 
HETATM   26  C19 UNK     1      -5.203  -3.167   3.518  1.00  0.00     0.011 A 
HETATM   27  C21 UNK     1      -6.119  -3.469   4.526  1.00  0.00     0.001 A 
HETATM   28  C23 UNK     1      -7.488  -3.414   4.264  1.00  0.00     0.000 A 
HETATM   29  C22 UNK     1      -7.940  -3.056   2.994  1.00  0.00     0.001 A 
HETATM   30  C20 UNK     1      -7.024  -2.754   1.986  1.00  0.00     0.011 A 
ENDBRANCH  24  25
ENDBRANCH  22  23
ENDBRANCH   2  22
TORSDOF 5
