REMARK  6 active torsions:
REMARK  status: ('A' for Active; 'I' for Inactive)
REMARK    1  A    between atoms: C3_7  and  S1_1 
REMARK    2  A    between atoms: C8_12  and  S1_1 
REMARK       I    between atoms: C15_19  and  N1_3 
REMARK    3  A    between atoms: C4_8  and  N1_3 
REMARK    4  A    between atoms: C16_20  and  C5_9 
REMARK    5  A    between atoms: C15_19  and  C8_12 
REMARK    6  A    between atoms: C19_23  and  C20_24 
ROOT
HETATM    1  O1  UNK     1       3.355  -0.602   0.249  1.00  0.00    -0.272 OA
HETATM    2  N1  UNK     1       2.188   1.259   1.082  1.00  0.00    -0.327 N 
HETATM    3  C15 UNK     1       3.296   0.575   0.594  1.00  0.00     0.231 C 
HETATM    4  H9  UNK     1       2.309   2.237   1.333  1.00  0.00     0.169 HD
ENDROOT
BRANCH   2   5
HETATM    5  C4  UNK     1       0.879   0.755   1.272  1.00  0.00     0.034 A 
HETATM    6  C11 UNK     1       0.609  -0.566   0.953  1.00  0.00     0.030 A 
HETATM    7  C13 UNK     1      -0.682  -1.062   1.139  1.00  0.00     0.013 A 
HETATM    8  C5  UNK     1      -1.683  -0.231   1.641  1.00  0.00    -0.036 A 
HETATM    9  C14 UNK     1      -1.394   1.097   1.957  1.00  0.00     0.013 A 
HETATM   10  C12 UNK     1      -0.104   1.593   1.772  1.00  0.00     0.030 A 
BRANCH   8  11
HETATM   11  C16 UNK     1      -3.028  -0.748   1.835  1.00  0.00     0.012 C 
HETATM   12  C20 UNK     1      -3.352  -2.059   1.940  1.00  0.00     0.012 C 
BRANCH  12  13
HETATM   13  C19 UNK     1      -4.713  -2.583   2.156  1.00  0.00    -0.036 A 
HETATM   14  C21 UNK     1      -5.803  -1.782   1.857  1.00  0.00     0.011 A 
HETATM   15  C23 UNK     1      -7.091  -2.278   2.061  1.00  0.00     0.001 A 
HETATM   16  C25 UNK     1      -7.271  -3.567   2.562  1.00  0.00     0.000 A 
HETATM   17  C24 UNK     1      -6.162  -4.361   2.858  1.00  0.00     0.001 A 
HETATM   18  C22 UNK     1      -4.875  -3.866   2.653  1.00  0.00     0.011 A 
ENDBRANCH  12  13
ENDBRANCH   8  11
ENDBRANCH   2   5
BRANCH   3  19
HETATM   19  C8  UNK     1       4.525   1.456   0.536  1.00  0.00     0.182 C 
BRANCH  19  20
HETATM   20  S1  UNK     1       5.091   1.555  -1.183  1.00  0.00    -0.118 SA
BRANCH  20  21
HETATM   21  C3  UNK     1       3.652   2.273  -1.985  1.00  0.00     0.030 A 
HETATM   22  C1  UNK     1       2.985   1.603  -3.008  1.00  0.00     0.083 A 
HETATM   23  N2  UNK     1       3.414   0.394  -3.415  1.00  0.00    -0.259 NA
HETATM   24  C2  UNK     1       1.863   2.229  -3.590  1.00  0.00    -0.006 A 
HETATM   25  C18 UNK     1       2.738  -0.223  -4.411  1.00  0.00     0.117 A 
HETATM   26  C17 UNK     1       1.631   0.309  -5.040  1.00  0.00     0.020 A 
HETATM   27  C9  UNK     1       1.191   1.555  -4.619  1.00  0.00     0.015 A 
HETATM   28  C6  UNK     1       1.442   3.492  -3.140  1.00  0.00     0.014 A 
HETATM   29  C10 UNK     1       2.127   4.139  -2.116  1.00  0.00     0.002 A 
HETATM   30  C7  UNK     1       3.233   3.528  -1.538  1.00  0.00     0.021 A 
ENDBRANCH  20  21
ENDBRANCH  19  20
ENDBRANCH   3  19
TORSDOF 6
