REMARK  4 active torsions:
REMARK  status: ('A' for Active; 'I' for Inactive)
REMARK    1  A    between atoms: C2_6  and  O1_2 
REMARK    2  A    between atoms: C5_9  and  O1_2 
REMARK    3  A    between atoms: C1_5  and  C2_6 
REMARK    4  A    between atoms: C1_5  and  C4_8 
ROOT
HETATM    1 Cl1  UNK     1      -0.399   0.640  -3.559  1.00  0.00    -0.081 Cl
HETATM    2  O2  UNK     1      -2.825  -1.684   0.242  1.00  0.00    -0.275 OA
HETATM    3  O3  UNK     1      -3.984  -2.781   1.880  1.00  0.00    -0.260 OA
HETATM    4  C3  UNK     1      -1.010  -0.175   0.871  1.00  0.00     0.007 A 
HETATM    5  C5  UNK     1       0.183   0.963  -0.921  1.00  0.00     0.091 A 
HETATM    6  C6  UNK     1      -1.799  -0.783  -0.107  1.00  0.00     0.092 A 
HETATM    7  C7  UNK     1      -0.009   0.708   0.442  1.00  0.00     0.053 A 
HETATM    8  C8  UNK     1      -1.270  -0.490   2.282  1.00  0.00    -0.043 A 
HETATM    9  C9  UNK     1      -0.620   0.340  -1.875  1.00  0.00     0.070 A 
HETATM   10  C10 UNK     1      -1.618  -0.539  -1.469  1.00  0.00     0.065 A 
HETATM   11  C12 UNK     1      -2.253  -1.350   2.584  1.00  0.00     0.090 A 
HETATM   12  C13 UNK     1      -0.441   0.149   3.357  1.00  0.00     0.049 C 
HETATM   13  C14 UNK     1      -3.093  -2.001   1.565  1.00  0.00     0.288 A 
ENDROOT
BRANCH   5  14
HETATM   14  O1  UNK     1       1.170   1.830  -1.288  1.00  0.00    -0.349 OA
BRANCH  14  15
HETATM   15  C2  UNK     1       2.502   1.493  -0.907  1.00  0.00     0.175 C 
BRANCH  15  16
HETATM   16  C1  UNK     1       3.468   2.074  -1.929  1.00  0.00     0.026 C 
BRANCH  16  17
HETATM   17  C4  UNK     1       4.917   1.736  -1.590  1.00  0.00    -0.002 C 
HETATM   18  C11 UNK     1       5.876   2.281  -2.636  1.00  0.00     0.005 C 
ENDBRANCH  16  17
ENDBRANCH  15  16
ENDBRANCH  14  15
ENDBRANCH   5  14
TORSDOF 4
