REMARK  5 active torsions:
REMARK  status: ('A' for Active; 'I' for Inactive)
REMARK    1  A    between atoms: C5_15  and  N1_6 
REMARK    2  A    between atoms: C6_16  and  N2_7 
REMARK       I    between atoms: C8_18  and  N3_8 
REMARK    3  A    between atoms: N3_8  and  N4_9 
REMARK    4  A    between atoms: C5_15  and  C7_17 
REMARK    5  A    between atoms: C6_16  and  C8_18 
ROOT
HETATM    1  N1  UNK     1       1.840   0.148  -2.308  1.00  0.00     0.096 N 
HETATM    2  N2  UNK     1      -0.887  -0.777  -2.047  1.00  0.00     0.100 N 
HETATM    3  C1  UNK     1       1.206  -0.664  -3.355  1.00  0.00     0.303 C 
HETATM    4  C2  UNK     1       1.264  -0.169  -0.995  1.00  0.00     0.303 C 
HETATM    5  C3  UNK     1      -0.313  -0.459  -3.360  1.00  0.00     0.303 C 
HETATM    6  C4  UNK     1      -0.255   0.036  -1.001  1.00  0.00     0.303 C 
ENDROOT
BRANCH   2   7
HETATM    7  C6  UNK     1      -2.336  -0.579  -2.053  1.00  0.00     0.376 C 
BRANCH   7   8
HETATM    8  C8  UNK     1      -2.915  -1.367  -0.899  1.00  0.00     0.265 C 
HETATM    9  O2  UNK     1      -2.780  -2.586  -0.804  1.00  0.00    -0.270 OA
HETATM   10  N3  UNK     1      -3.597  -0.569  -0.001  1.00  0.00    -0.257 N 
HETATM   11  H14 UNK     1      -3.695   0.437  -0.092  1.00  0.00     0.190 HD
BRANCH  10  12
HETATM   12  N4  UNK     1      -4.174  -1.150   1.094  1.00  0.00    -0.203 N 
HETATM   13  C17 UNK     1      -5.492  -1.607   1.009  1.00  0.00     0.126 A 
HETATM   14  N5  UNK     1      -6.126  -2.172   1.998  1.00  0.00    -0.226 NA
HETATM   15  C23 UNK     1      -6.208  -1.430  -0.307  1.00  0.00     0.093 C 
HETATM   16  C20 UNK     1      -5.394  -2.286   3.141  1.00  0.00     0.115 A 
HETATM   17  C19 UNK     1      -4.089  -1.873   3.341  1.00  0.00     0.071 A 
HETATM   18  S1  UNK     1      -6.050  -2.999   4.550  1.00  0.00    -0.074 SA
HETATM   19  C18 UNK     1      -3.376  -1.241   2.242  1.00  0.00     0.281 A 
HETATM   20  C22 UNK     1      -3.628  -2.146   4.661  1.00  0.00     0.034 A 
HETATM   21  O4  UNK     1      -2.218  -0.849   2.347  1.00  0.00    -0.265 OA
HETATM   22  C24 UNK     1      -4.598  -2.758   5.424  1.00  0.00    -0.018 A 
HETATM   23  C25 UNK     1      -4.515  -3.200   6.833  1.00  0.00     0.056 C 
ENDBRANCH  10  12
ENDBRANCH   7   8
ENDBRANCH   2   7
BRANCH   1  24
HETATM   24  C5  UNK     1       3.288  -0.051  -2.302  1.00  0.00     0.312 C 
BRANCH  24  25
HETATM   25  C7  UNK     1       4.005   1.061  -1.619  1.00  0.00    -0.011 A 
HETATM   26  C10 UNK     1       4.258   1.018  -0.303  1.00  0.00     0.092 A 
HETATM   27  C13 UNK     1       4.963   2.093   0.415  1.00  0.00     0.288 A 
HETATM   28  O1  UNK     1       5.369   3.183  -0.339  1.00  0.00    -0.275 OA
HETATM   29  O3  UNK     1       5.177   2.019   1.620  1.00  0.00    -0.260 OA
HETATM   30  C11 UNK     1       5.118   3.256  -1.724  1.00  0.00     0.090 A 
HETATM   31  C9  UNK     1       4.448   2.230  -2.391  1.00  0.00     0.006 A 
HETATM   32  C14 UNK     1       5.572   4.401  -2.382  1.00  0.00     0.045 A 
HETATM   33  C12 UNK     1       4.237   2.379  -3.768  1.00  0.00     0.015 A 
HETATM   34  C15 UNK     1       4.686   3.521  -4.441  1.00  0.00     0.007 A 
HETATM   35  C16 UNK     1       5.353   4.530  -3.749  1.00  0.00    -0.059 A 
HETATM   36  C21 UNK     1       5.829   5.743  -4.472  1.00  0.00     0.048 C 
ENDBRANCH  24  25
ENDBRANCH   1  24
TORSDOF 5
