REMARK  4 active torsions:
REMARK  status: ('A' for Active; 'I' for Inactive)
REMARK    1  A    between atoms: C5_13  and  N1_7 
REMARK       I    between atoms: C8_16  and  N1_7 
REMARK    2  A    between atoms: C10_18  and  N2_8 
REMARK    3  A    between atoms: C3_11  and  C8_16 
REMARK    4  A    between atoms: C5_13  and  C6_14 
ROOT
HETATM    1  O1  UNK     1       1.956   0.695   0.923  1.00  0.00    -0.274 OA
HETATM    2  O3  UNK     1       0.076  -0.076   1.968  1.00  0.00    -0.259 OA
HETATM    3  C1  UNK     1       1.868   1.263  -1.440  1.00  0.00     0.001 A 
HETATM    4  C2  UNK     1       2.583   1.158  -0.251  1.00  0.00     0.089 A 
HETATM    5  C3  UNK     1      -0.127   0.446  -0.335  1.00  0.00     0.108 A 
HETATM    6  C4  UNK     1       0.463   0.887  -1.452  1.00  0.00     0.037 A 
HETATM    7  C7  UNK     1       2.526   1.727  -2.582  1.00  0.00     0.050 A 
HETATM    8  C9  UNK     1       3.931   1.502  -0.171  1.00  0.00     0.041 A 
HETATM    9  C10 UNK     1       3.878   2.076  -2.518  1.00  0.00     0.103 A 
HETATM   10  C11 UNK     1       0.613   0.327   0.942  1.00  0.00     0.304 A 
HETATM   11  C12 UNK     1       4.578   1.963  -1.315  1.00  0.00     0.039 A 
ENDROOT
BRANCH   5  12
HETATM   12  C8  UNK     1      -1.547   0.092  -0.448  1.00  0.00     0.258 C 
HETATM   13  O2  UNK     1      -2.010  -0.328  -1.507  1.00  0.00    -0.267 OA
HETATM   14  N1  UNK     1      -2.245   0.286   0.730  1.00  0.00    -0.352 N 
HETATM   15  H5  UNK     1      -1.773   0.654   1.550  1.00  0.00     0.163 HD
BRANCH  14  16
HETATM   16  C5  UNK     1      -3.658   0.009   0.863  1.00  0.00     0.164 C 
BRANCH  16  17
HETATM   17  C6  UNK     1      -3.913  -1.387   1.350  1.00  0.00    -0.002 A 
HETATM   18  C13 UNK     1      -4.000  -1.638   2.715  1.00  0.00     0.124 A 
HETATM   19  F1  UNK     1      -3.857  -0.646   3.605  1.00  0.00    -0.205 F 
HETATM   20  C15 UNK     1      -4.237  -2.937   3.164  1.00  0.00     0.043 A 
HETATM   21  C17 UNK     1      -4.386  -3.976   2.246  1.00  0.00     0.003 A 
HETATM   22  C16 UNK     1      -4.298  -3.717   0.878  1.00  0.00     0.001 A 
HETATM   23  C14 UNK     1      -4.060  -2.418   0.429  1.00  0.00     0.012 A 
ENDBRANCH  16  17
ENDBRANCH  14  16
ENDBRANCH   5  12
BRANCH   9  24
HETATM   24  N2  UNK     1       4.542   2.546  -3.682  1.00  0.00    -0.116 N 
HETATM   25  O4  UNK     1       5.756   2.854  -3.606  1.00  0.00    -0.532 OA
HETATM   26  O5  UNK     1       3.897   2.640  -4.754  1.00  0.00    -0.532 OA
ENDBRANCH   9  24
TORSDOF 4
