REMARK  5 active torsions:
REMARK  status: ('A' for Active; 'I' for Inactive)
REMARK    1  A    between atoms: C16_23  and  O3_3 
REMARK    2  A    between atoms: C17_24  and  O4_4 
REMARK       I    between atoms: C15_22  and  N1_6 
REMARK    3  A    between atoms: N1_6  and  N2_7 
REMARK    4  A    between atoms: C11_18  and  C7_14 
REMARK    5  A    between atoms: C12_19  and  C15_22 
ROOT
HETATM    1  O5  UNK     1       0.725   1.174  -2.841  1.00  0.00    -0.266 OA
HETATM    2  N1  UNK     1       1.429   0.894  -0.675  1.00  0.00    -0.243 N 
HETATM    3  C15 UNK     1       1.608   1.303  -1.990  1.00  0.00     0.271 C 
HETATM    4  H12 UNK     1       2.153   0.931   0.034  1.00  0.00     0.192 HD
ENDROOT
BRANCH   2   5
HETATM    5  N2  UNK     1       0.244   0.336  -0.323  1.00  0.00    -0.183 NA
HETATM    6  C11 UNK     1       0.187  -0.044   0.912  1.00  0.00     0.156 C 
BRANCH   6   7
HETATM    7  C7  UNK     1      -1.004  -0.670   1.487  1.00  0.00     0.056 A 
HETATM    8  C5  UNK     1      -2.244  -0.926   0.722  1.00  0.00     0.198 A 
HETATM    9  C1  UNK     1      -3.343  -1.566   1.469  1.00  0.00     0.049 A 
HETATM   10  O2  UNK     1      -2.354  -0.627  -0.459  1.00  0.00    -0.286 OA
HETATM   11  C2  UNK     1      -3.154  -1.882   2.816  1.00  0.00     0.089 A 
HETATM   12  C4  UNK     1      -4.557  -1.854   0.842  1.00  0.00     0.025 A 
HETATM   13  O1  UNK     1      -1.982  -1.623   3.483  1.00  0.00    -0.321 OA
HETATM   14  C6  UNK     1      -4.180  -2.486   3.543  1.00  0.00     0.039 A 
HETATM   15  C9  UNK     1      -0.965  -1.027   2.775  1.00  0.00     0.159 A 
HETATM   16  C8  UNK     1      -5.394  -2.774   2.918  1.00  0.00     0.009 A 
HETATM   17  C3  UNK     1      -5.582  -2.459   1.572  1.00  0.00    -0.061 A 
HETATM   18  C10 UNK     1      -6.883  -2.769   0.911  1.00  0.00     0.048 C 
ENDBRANCH   6   7
ENDBRANCH   2   5
BRANCH   3  19
HETATM   19  C12 UNK     1       2.926   1.873  -2.306  1.00  0.00     0.039 A 
HETATM   20  C13 UNK     1       3.412   1.790  -3.602  1.00  0.00     0.053 A 
HETATM   21  C17 UNK     1       4.662   2.331  -3.901  1.00  0.00     0.069 A 
HETATM   22  C18 UNK     1       5.412   2.950  -2.901  1.00  0.00     0.073 A 
HETATM   23  C16 UNK     1       4.912   3.028  -1.601  1.00  0.00     0.069 A 
HETATM   24  C14 UNK     1       3.661   2.486  -1.302  1.00  0.00     0.053 A 
BRANCH  21  25
HETATM   25  O4  UNK     1       5.151   2.256  -5.170  1.00  0.00    -0.361 OA
HETATM   26  H14 UNK     1       6.025   2.680  -5.197  1.00  0.00     0.217 HD
ENDBRANCH  21  25
BRANCH  23  27
HETATM   27  O3  UNK     1       5.643   3.632  -0.625  1.00  0.00    -0.361 OA
HETATM   28  H13 UNK     1       5.148   3.594   0.211  1.00  0.00     0.217 HD
ENDBRANCH  23  27
ENDBRANCH   3  19
TORSDOF 5
