REMARK  5 active torsions:
REMARK  status: ('A' for Active; 'I' for Inactive)
REMARK    1  A    between atoms: C1_5  and  O1_2 
REMARK    2  A    between atoms: C2_6  and  O1_2 
REMARK    3  A    between atoms: C4_8  and  O2_3 
REMARK    4  A    between atoms: C3_7  and  C8_12 
REMARK    5  A    between atoms: C11_15  and  C12_16 
ROOT
HETATM    1  N1  UNK     1      -2.105   1.950  -1.537  1.00  0.00    -0.191 NA
HETATM    2  C8  UNK     1      -0.067  -0.671  -0.606  1.00  0.00     0.038 C 
HETATM    3  C11 UNK     1      -1.313  -0.207  -0.322  1.00  0.00     0.055 C 
HETATM    4  C19 UNK     1      -1.743   0.988  -0.999  1.00  0.00     0.100 C 
ENDROOT
BRANCH   3   5
HETATM    5  C12 UNK     1      -2.223  -0.852   0.613  1.00  0.00    -0.015 A 
HETATM    6  C14 UNK     1      -2.212  -0.489   1.960  1.00  0.00     0.014 A 
HETATM    7  C16 UNK     1      -3.085  -1.107   2.855  1.00  0.00     0.024 A 
HETATM    8  C17 UNK     1      -3.969  -2.087   2.404  1.00  0.00     0.034 A 
HETATM    9  C15 UNK     1      -3.980  -2.449   1.057  1.00  0.00     0.024 A 
HETATM   10 Cl1  UNK     1      -5.046  -2.849   3.509  1.00  0.00    -0.084 Cl
HETATM   11  C13 UNK     1      -3.107  -1.832   0.162  1.00  0.00     0.014 A 
ENDBRANCH   3   5
BRANCH   2  12
HETATM   12  C3  UNK     1       0.882  -0.056  -1.547  1.00  0.00     0.002 A 
HETATM   13  C2  UNK     1       1.780   0.911  -1.116  1.00  0.00     0.112 A 
HETATM   14  C4  UNK     1       2.669   1.478  -2.029  1.00  0.00     0.102 A 
HETATM   15  C9  UNK     1       2.651   1.073  -3.364  1.00  0.00     0.040 A 
HETATM   16  C10 UNK     1       1.745   0.101  -3.786  1.00  0.00     0.004 A 
HETATM   17  C7  UNK     1       0.856  -0.467  -2.873  1.00  0.00     0.014 A 
BRANCH  13  18
HETATM   18  O1  UNK     1       1.808   1.316   0.187  1.00  0.00    -0.343 OA
BRANCH  18  19
HETATM   19  C1  UNK     1       2.672   0.601   1.066  1.00  0.00     0.121 C 
HETATM   20  C5  UNK     1       3.715   1.555   1.628  1.00  0.00     0.040 C 
HETATM   21  C6  UNK     1       1.843  -0.044   2.167  1.00  0.00     0.040 C 
ENDBRANCH  18  19
ENDBRANCH  13  18
BRANCH  14  22
HETATM   22  O2  UNK     1       3.560   2.429  -1.631  1.00  0.00    -0.353 OA
HETATM   23  C18 UNK     1       3.134   3.788  -1.705  1.00  0.00     0.210 C 
ENDBRANCH  14  22
ENDBRANCH   2  12
TORSDOF 5
