REMARK  1 active torsions:
REMARK  status: ('A' for Active; 'I' for Inactive)
REMARK       I    between atoms: C6_12  and  N1_6 
REMARK    1  A    between atoms: C6_12  and  C9_15 
ROOT
HETATM    1 Cl1  UNK     1      -2.802  -2.485   3.969  1.00  0.00    -0.081 Cl
HETATM    2 Cl2  UNK     1      -5.926  -2.521  -0.418  1.00  0.00    -0.084 Cl
HETATM    3  O2  UNK     1      -1.088  -0.653   2.393  1.00  0.00    -0.272 OA
HETATM    4  O3  UNK     1       0.833   0.583   2.428  1.00  0.00    -0.259 OA
HETATM    5  C9  UNK     1      -0.444   0.660   0.433  1.00  0.00     0.108 A 
HETATM    6  C12 UNK     1      -1.532   0.254  -0.231  1.00  0.00     0.037 A 
HETATM    7  C13 UNK     1      -2.481  -0.651   0.399  1.00  0.00     0.002 A 
HETATM    8  C14 UNK     1      -0.163   0.213   1.816  1.00  0.00     0.304 A 
HETATM    9  C15 UNK     1      -2.236  -1.084   1.699  1.00  0.00     0.111 A 
HETATM   10  C16 UNK     1      -3.630  -1.100  -0.256  1.00  0.00     0.038 A 
HETATM   11  C17 UNK     1      -3.105  -1.949   2.360  1.00  0.00     0.070 A 
HETATM   12  C18 UNK     1      -4.511  -1.970   0.394  1.00  0.00     0.036 A 
HETATM   13  C19 UNK     1      -4.249  -2.393   1.699  1.00  0.00     0.050 A 
ENDROOT
BRANCH   5  14
HETATM   14  C6  UNK     1       0.459   1.579  -0.292  1.00  0.00     0.264 C 
HETATM   15  O1  UNK     1       0.233   2.784  -0.190  1.00  0.00    -0.267 OA
HETATM   16  N1  UNK     1       1.471   0.995  -1.039  1.00  0.00    -0.308 N 
HETATM   17  C1  UNK     1       1.782  -0.460  -1.191  1.00  0.00     0.093 C 
HETATM   18  C4  UNK     1       2.421   1.715  -1.807  1.00  0.00     0.044 A 
HETATM   19  C2  UNK     1       2.719  -0.577  -2.411  1.00  0.00     0.066 C 
HETATM   20  C5  UNK     1       2.465  -1.010   0.066  1.00  0.00     0.033 C 
HETATM   21  C3  UNK     1       3.187   0.833  -2.574  1.00  0.00    -0.029 A 
HETATM   22  C7  UNK     1       4.188   1.289  -3.418  1.00  0.00     0.009 A 
HETATM   23  C10 UNK     1       4.428   2.661  -3.482  1.00  0.00     0.001 A 
HETATM   24  C11 UNK     1       3.661   3.550  -2.717  1.00  0.00     0.002 A 
HETATM   25  C8  UNK     1       2.647   3.082  -1.875  1.00  0.00     0.030 A 
ENDBRANCH   5  14
TORSDOF 1
