REMARK  5 active torsions:
REMARK  status: ('A' for Active; 'I' for Inactive)
REMARK    1  A    between atoms: C5_11  and  N1_4 
REMARK    2  A    between atoms: C6_12  and  N2_5 
REMARK    3  A    between atoms: C15_21  and  N3_6 
REMARK       I    between atoms: C9_15  and  N3_6 
REMARK    4  A    between atoms: C5_11  and  C7_13 
REMARK    5  A    between atoms: C6_12  and  C9_15 
ROOT
HETATM    1  N1  UNK     1       1.501  -0.326  -1.565  1.00  0.00     0.096 N 
HETATM    2  N2  UNK     1      -1.063  -1.480  -0.891  1.00  0.00     0.100 N 
HETATM    3  C1  UNK     1       1.053  -0.428  -0.170  1.00  0.00     0.303 C 
HETATM    4  C2  UNK     1       0.914  -1.403  -2.372  1.00  0.00     0.303 C 
HETATM    5  C3  UNK     1      -0.477  -0.402  -0.085  1.00  0.00     0.303 C 
HETATM    6  C4  UNK     1      -0.616  -1.378  -2.286  1.00  0.00     0.303 C 
ENDROOT
BRANCH   1   7
HETATM    7  C5  UNK     1       2.960  -0.354  -1.645  1.00  0.00     0.312 C 
BRANCH   7   8
HETATM    8  C7  UNK     1       3.569   0.950  -1.260  1.00  0.00    -0.011 A 
HETATM    9  C10 UNK     1       3.906   1.209   0.012  1.00  0.00     0.092 A 
HETATM   10  C13 UNK     1       4.510   2.482   0.440  1.00  0.00     0.288 A 
HETATM   11  O1  UNK     1       4.725   3.431  -0.547  1.00  0.00    -0.275 OA
HETATM   12  O3  UNK     1       4.806   2.683   1.612  1.00  0.00    -0.260 OA
HETATM   13  C11 UNK     1       4.382   3.188  -1.892  1.00  0.00     0.090 A 
HETATM   14  C8  UNK     1       3.809   1.977  -2.282  1.00  0.00     0.006 A 
HETATM   15  C14 UNK     1       4.643   4.216  -2.799  1.00  0.00     0.045 A 
HETATM   16  C12 UNK     1       3.496   1.813  -3.638  1.00  0.00     0.015 A 
HETATM   17  C17 UNK     1       3.752   2.835  -4.560  1.00  0.00     0.007 A 
HETATM   18  C16 UNK     1       4.325   4.034  -4.141  1.00  0.00    -0.059 A 
HETATM   19  C20 UNK     1       4.595   5.118  -5.128  1.00  0.00     0.048 C 
ENDBRANCH   7   8
ENDBRANCH   1   7
BRANCH   2  20
HETATM   20  C6  UNK     1      -2.522  -1.454  -0.810  1.00  0.00     0.375 C 
BRANCH  20  21
HETATM   21  C9  UNK     1      -2.965  -2.043   0.518  1.00  0.00     0.250 C 
HETATM   22  O2  UNK     1      -2.320  -2.904   1.108  1.00  0.00    -0.271 OA
HETATM   23  N3  UNK     1      -4.162  -1.460   0.928  1.00  0.00    -0.325 N 
HETATM   24  H15 UNK     1      -4.566  -0.759   0.313  1.00  0.00     0.169 HD
BRANCH  23  25
HETATM   25  C15 UNK     1      -4.897  -1.735   2.106  1.00  0.00     0.041 A 
HETATM   26  C18 UNK     1      -6.089  -1.062   2.378  1.00  0.00    -0.035 A 
HETATM   27  C22 UNK     1      -6.800  -1.347   3.544  1.00  0.00     0.009 A 
HETATM   28  C23 UNK     1      -6.627  -0.032   1.439  1.00  0.00     0.050 C 
HETATM   29  C24 UNK     1      -6.320  -2.305   4.437  1.00  0.00     0.007 A 
HETATM   30  C21 UNK     1      -5.128  -2.977   4.165  1.00  0.00    -0.060 A 
HETATM   31  C19 UNK     1      -4.417  -2.692   2.999  1.00  0.00     0.037 A 
HETATM   32  C25 UNK     1      -4.615  -4.001   5.121  1.00  0.00     0.048 C 
ENDBRANCH  23  25
ENDBRANCH  20  21
ENDBRANCH   2  20
TORSDOF 5
