REMARK  5 active torsions:
REMARK  status: ('A' for Active; 'I' for Inactive)
REMARK    1  A    between atoms: C1_11  and  S1_1 
REMARK    2  A    between atoms: N2_8  and  S1_1 
REMARK       I    between atoms: C11_21  and  N1_7 
REMARK    3  A    between atoms: C2_12  and  N1_7 
REMARK    4  A    between atoms: C15_25  and  N2_8 
REMARK    5  A    between atoms: C11_21  and  C8_18 
ROOT
HETATM    1  C1  UNK     1      -2.662  -1.705  -0.381  1.00  0.00     0.080 A 
HETATM    2  C2  UNK     1      -0.488  -0.163  -1.131  1.00  0.00     0.035 A 
HETATM    3  C3  UNK     1      -1.486  -1.746   0.368  1.00  0.00     0.027 A 
HETATM    4  C4  UNK     1      -2.742  -0.887  -1.508  1.00  0.00     0.027 A 
HETATM    5  C6  UNK     1      -0.391  -0.969  -0.009  1.00  0.00     0.031 A 
HETATM    6  C7  UNK     1      -1.647  -0.110  -1.886  1.00  0.00     0.031 A 
ENDROOT
BRANCH   2   7
HETATM    7  N1  UNK     1       0.624   0.626  -1.514  1.00  0.00    -0.323 N 
HETATM    8  C11 UNK     1       1.861   0.706  -0.889  1.00  0.00     0.262 C 
HETATM    9  O4  UNK     1       2.242   0.113   0.119  1.00  0.00    -0.267 OA
HETATM   10  H5  UNK     1       0.474   1.170  -2.360  1.00  0.00     0.169 HD
BRANCH   8  11
HETATM   11  C8  UNK     1       2.770   1.632  -1.576  1.00  0.00     0.108 A 
HETATM   12  C10 UNK     1       4.075   1.352  -1.490  1.00  0.00     0.037 A 
HETATM   13  C5  UNK     1       5.054   2.212  -2.138  1.00  0.00    -0.001 A 
HETATM   14  C13 UNK     1       6.426   1.957  -2.075  1.00  0.00     0.014 A 
HETATM   15  C9  UNK     1       4.609   3.324  -2.844  1.00  0.00     0.089 A 
HETATM   16  C16 UNK     1       7.326   2.814  -2.714  1.00  0.00     0.001 A 
HETATM   17  C17 UNK     1       6.861   3.927  -3.419  1.00  0.00     0.003 A 
HETATM   18  C14 UNK     1       5.494   4.187  -3.487  1.00  0.00     0.038 A 
HETATM   19  O1  UNK     1       3.233   3.614  -2.932  1.00  0.00    -0.274 OA
HETATM   20  C12 UNK     1       2.274   2.810  -2.323  1.00  0.00     0.304 A 
HETATM   21  O5  UNK     1       1.078   3.071  -2.403  1.00  0.00    -0.259 OA
ENDBRANCH   8  11
ENDBRANCH   2   7
BRANCH   1  22
HETATM   22  S1  UNK     1      -4.032  -2.678   0.092  1.00  0.00     0.276 S 
HETATM   23  O2  UNK     1      -4.850  -2.917  -1.091  1.00  0.00    -0.200 OA
HETATM   24  O3  UNK     1      -3.539  -3.812   0.863  1.00  0.00    -0.200 OA
BRANCH  22  25
HETATM   25  N2  UNK     1      -4.859  -1.609   1.135  1.00  0.00    -0.109 N 
HETATM   26  H7  UNK     1      -5.663  -1.084   0.771  1.00  0.00     0.198 HD
BRANCH  25  27
HETATM   27  C15 UNK     1      -4.652  -1.509   2.531  1.00  0.00     0.736 A 
HETATM   28  N3  UNK     1      -3.725  -2.330   3.074  1.00  0.00    -0.067 NA
HETATM   29  C18 UNK     1      -3.553  -2.208   4.406  1.00  0.00     0.051 A 
HETATM   30  C19 UNK     1      -4.258  -1.319   5.192  1.00  0.00     0.047 A 
HETATM   31  C21 UNK     1      -2.537  -3.100   5.036  1.00  0.00     0.071 C 
HETATM   32  C20 UNK     1      -5.177  -0.533   4.527  1.00  0.00     0.138 A 
HETATM   33  N4  UNK     1      -5.400  -0.602   3.198  1.00  0.00    -0.074 NA
ENDBRANCH  25  27
ENDBRANCH  22  25
ENDBRANCH   1  22
TORSDOF 5
