REMARK  4 active torsions:
REMARK  status: ('A' for Active; 'I' for Inactive)
REMARK       I    between atoms: C12_18  and  N2_6 
REMARK    1  A    between atoms: C6_12  and  N2_6 
REMARK    2  A    between atoms: C1_7  and  C2_8 
REMARK    3  A    between atoms: C2_8  and  C6_12 
REMARK    4  A    between atoms: C12_18  and  C13_19 
ROOT
HETATM    1  O2  UNK     1      -1.696   1.685  -2.516  1.00  0.00    -0.267 OA
HETATM    2  N2  UNK     1      -1.620  -0.471  -1.631  1.00  0.00    -0.356 N 
HETATM    3  C12 UNK     1      -1.073   0.713  -2.093  1.00  0.00     0.257 C 
HETATM    4  H11 UNK     1      -1.018  -1.205  -1.270  1.00  0.00     0.162 HD
ENDROOT
BRANCH   2   5
HETATM    5  C6  UNK     1      -3.043  -0.717  -1.588  1.00  0.00     0.127 C 
BRANCH   5   6
HETATM    6  C2  UNK     1      -3.675  -0.284  -0.266  1.00  0.00     0.061 C 
BRANCH   6   7
HETATM    7  C1  UNK     1      -3.118  -1.011   0.924  1.00  0.00    -0.022 A 
HETATM    8  C3  UNK     1      -2.010  -0.596   1.691  1.00  0.00     0.002 A 
HETATM    9  C5  UNK     1      -1.843  -1.558   2.689  1.00  0.00     0.043 A 
HETATM   10  C7  UNK     1      -1.123   0.498   1.648  1.00  0.00     0.056 A 
HETATM   11  N1  UNK     1      -2.826  -2.505   2.508  1.00  0.00    -0.359 N 
HETATM   12  C9  UNK     1      -0.829  -1.480   3.651  1.00  0.00     0.033 A 
HETATM   13  C4  UNK     1      -3.606  -2.176   1.433  1.00  0.00     0.013 A 
HETATM   14  H3  UNK     1      -2.949  -3.323   3.089  1.00  0.00     0.166 HD
HETATM   15  C8  UNK     1      -4.738  -3.031   1.024  1.00  0.00     0.068 C 
HETATM   16  C11 UNK     1       0.039  -0.386   3.588  1.00  0.00     0.044 A 
HETATM   17  C10 UNK     1      -0.104   0.589   2.603  1.00  0.00     0.117 A 
HETATM   18  F1  UNK     1       0.742   1.627   2.570  1.00  0.00    -0.206 F 
ENDBRANCH   6   7
ENDBRANCH   5   6
ENDBRANCH   2   5
BRANCH   3  19
HETATM   19  C13 UNK     1       0.393   0.725  -2.035  1.00  0.00     0.108 A 
HETATM   20  C15 UNK     1       0.968   1.919  -1.851  1.00  0.00     0.037 A 
HETATM   21  C14 UNK     1       2.417   2.033  -1.781  1.00  0.00    -0.001 A 
HETATM   22  C16 UNK     1       3.189   0.883  -1.908  1.00  0.00     0.089 A 
HETATM   23  C18 UNK     1       3.059   3.259  -1.590  1.00  0.00     0.014 A 
HETATM   24  O1  UNK     1       2.578  -0.371  -2.102  1.00  0.00    -0.274 OA
HETATM   25  C19 UNK     1       4.581   0.924  -1.850  1.00  0.00     0.038 A 
HETATM   26  C17 UNK     1       1.195  -0.512  -2.173  1.00  0.00     0.304 A 
HETATM   27  O3  UNK     1       0.672  -1.608  -2.343  1.00  0.00    -0.259 OA
HETATM   28  C21 UNK     1       5.213   2.150  -1.660  1.00  0.00     0.003 A 
HETATM   29  C20 UNK     1       4.454   3.316  -1.529  1.00  0.00     0.001 A 
ENDBRANCH   3  19
TORSDOF 4
