REMARK  5 active torsions:
REMARK  status: ('A' for Active; 'I' for Inactive)
REMARK       I    between atoms: C6_14  and  N1_6 
REMARK    1  A    between atoms: N1_6  and  N2_7 
REMARK    2  A    between atoms: C22_30  and  N2_7 
REMARK    3  A    between atoms: C17_25  and  N3_8 
REMARK    4  A    between atoms: C22_30  and  N3_8 
REMARK    5  A    between atoms: C1_9  and  C6_14 
ROOT
HETATM    1  O2  UNK     1      -3.668   0.619   0.574  1.00  0.00    -0.271 OA
HETATM    2  N1  UNK     1      -1.537   0.314  -0.300  1.00  0.00    -0.267 N 
HETATM    3  C6  UNK     1      -2.638  -0.039   0.455  1.00  0.00     0.249 C 
HETATM    4  H10 UNK     1      -0.753  -0.307  -0.470  1.00  0.00     0.190 HD
ENDROOT
BRANCH   2   5
HETATM    5  N2  UNK     1      -1.558   1.502  -0.993  1.00  0.00    -0.274 N 
HETATM    6  H11 UNK     1      -2.465   1.827  -1.311  1.00  0.00     0.189 HD
BRANCH   5   7
HETATM    7  C22 UNK     1      -0.395   2.213  -1.267  1.00  0.00     0.191 C 
HETATM    8  S1  UNK     1      -0.564   3.649  -2.115  1.00  0.00    -0.039 SA
BRANCH   7   9
HETATM    9  N3  UNK     1       0.756   1.620  -0.756  1.00  0.00    -0.332 N 
HETATM   10  H15 UNK     1       0.581   0.996   0.028  1.00  0.00     0.168 HD
BRANCH   9  11
HETATM   11  C17 UNK     1       2.117   1.643  -1.150  1.00  0.00     0.037 A 
HETATM   12  C19 UNK     1       2.481   2.335  -2.286  1.00  0.00     0.067 A 
HETATM   13  C16 UNK     1       3.828   2.345  -2.655  1.00  0.00     0.092 A 
HETATM   14  C15 UNK     1       4.808   1.682  -1.916  1.00  0.00     0.004 A 
HETATM   15  O3  UNK     1       4.157   3.064  -3.822  1.00  0.00    -0.275 OA
HETATM   16  C18 UNK     1       6.201   1.745  -2.377  1.00  0.00    -0.043 A 
HETATM   17  C20 UNK     1       4.399   0.990  -0.768  1.00  0.00     0.017 A 
HETATM   18  C23 UNK     1       6.485   2.436  -3.490  1.00  0.00     0.090 A 
HETATM   19  C24 UNK     1       7.279   1.043  -1.604  1.00  0.00     0.049 C 
HETATM   20  C25 UNK     1       5.462   3.141  -4.281  1.00  0.00     0.288 A 
HETATM   21  O4  UNK     1       5.760   3.764  -5.295  1.00  0.00    -0.260 OA
HETATM   22  C21 UNK     1       3.053   0.971  -0.385  1.00  0.00     0.030 A 
ENDBRANCH   9  11
ENDBRANCH   7   9
ENDBRANCH   5   7
ENDBRANCH   2   5
BRANCH   3  23
HETATM   23  C1  UNK     1      -2.469  -1.372   1.123  1.00  0.00     0.151 C 
HETATM   24  C2  UNK     1      -3.495  -2.348   0.606  1.00  0.00    -0.006 A 
HETATM   25  C4  UNK     1      -4.207  -3.165   1.491  1.00  0.00     0.083 A 
HETATM   26  C7  UNK     1      -3.739  -2.462  -0.770  1.00  0.00     0.011 A 
HETATM   27  O1  UNK     1      -4.051  -3.117   2.856  1.00  0.00    -0.310 OA
HETATM   28  C9  UNK     1      -5.135  -4.091   1.009  1.00  0.00     0.038 A 
HETATM   29  C5  UNK     1      -3.303  -2.095   3.392  1.00  0.00     0.083 A 
HETATM   30  C10 UNK     1      -3.342  -1.966   4.784  1.00  0.00     0.038 A 
HETATM   31  C3  UNK     1      -2.537  -1.215   2.620  1.00  0.00    -0.006 A 
HETATM   32  C14 UNK     1      -2.625  -0.950   5.411  1.00  0.00     0.003 A 
HETATM   33  C12 UNK     1      -1.866  -0.062   4.651  1.00  0.00     0.001 A 
HETATM   34  C8  UNK     1      -1.822  -0.194   3.263  1.00  0.00     0.011 A 
HETATM   35  C13 UNK     1      -5.367  -4.199  -0.361  1.00  0.00     0.003 A 
HETATM   36  C11 UNK     1      -4.671  -3.383  -1.251  1.00  0.00     0.001 A 
ENDBRANCH   3  23
TORSDOF 5
