REMARK  5 active torsions:
REMARK  status: ('A' for Active; 'I' for Inactive)
REMARK    1  A    between atoms: C12_19  and  O3_4 
REMARK    2  A    between atoms: C20_27  and  O3_4 
REMARK    3  A    between atoms: C7_14  and  N1_7 
REMARK    4  A    between atoms: C1_8  and  C5_12 
REMARK    5  A    between atoms: C12_19  and  C3_10 
ROOT
HETATM    1  O1  UNK     1       1.996   0.174   0.798  1.00  0.00    -0.292 OA
HETATM    2  O2  UNK     1       1.047   2.266  -2.700  1.00  0.00    -0.274 OA
HETATM    3  O4  UNK     1      -1.145   2.325  -2.074  1.00  0.00    -0.259 OA
HETATM    4  C1  UNK     1      -0.770   0.790   0.333  1.00  0.00     0.104 C 
HETATM    5  C2  UNK     1       0.347   1.182  -0.617  1.00  0.00     0.066 A 
HETATM    6  C3  UNK     1      -0.227   0.257   1.649  1.00  0.00     0.081 C 
HETATM    7  C4  UNK     1       1.620   0.854  -0.347  1.00  0.00     0.104 A 
HETATM    8  C6  UNK     1       2.699   1.198  -1.269  1.00  0.00     0.033 A 
HETATM    9  C7  UNK     1       1.079  -0.032   1.831  1.00  0.00     0.155 C 
HETATM   10  C8  UNK     1       0.002   1.963  -1.834  1.00  0.00     0.298 A 
HETATM   11  C9  UNK     1       2.378   1.895  -2.430  1.00  0.00     0.092 A 
HETATM   12  C13 UNK     1       4.041   0.862  -1.050  1.00  0.00     0.017 A 
HETATM   13  C14 UNK     1       3.344   2.261  -3.367  1.00  0.00     0.038 A 
HETATM   14  C17 UNK     1       5.022   1.222  -1.981  1.00  0.00     0.001 A 
HETATM   15  C19 UNK     1       4.674   1.920  -3.137  1.00  0.00     0.003 A 
ENDROOT
BRANCH   4  16
HETATM   16  C5  UNK     1      -1.668  -0.228  -0.307  1.00  0.00    -0.044 A 
HETATM   17  C10 UNK     1      -1.132  -1.165  -1.183  1.00  0.00     0.009 A 
HETATM   18  C15 UNK     1      -1.968  -2.110  -1.778  1.00  0.00     0.019 A 
HETATM   19  C18 UNK     1      -3.333  -2.112  -1.493  1.00  0.00     0.011 A 
HETATM   20 Br1  UNK     1      -4.466  -3.392  -2.299  1.00  0.00    -0.051 Br
HETATM   21  C16 UNK     1      -3.863  -1.168  -0.613  1.00  0.00     0.019 A 
HETATM   22  C11 UNK     1      -3.027  -0.223  -0.018  1.00  0.00     0.009 A 
ENDBRANCH   4  16
BRANCH   6  23
HETATM   23  C12 UNK     1      -1.201   0.096   2.742  1.00  0.00     0.294 C 
HETATM   24  O5  UNK     1      -1.471   0.982   3.531  1.00  0.00    -0.259 OA
BRANCH  23  25
HETATM   25  O3  UNK     1      -1.699  -1.162   2.687  1.00  0.00    -0.318 OA
BRANCH  25  26
HETATM   26  C20 UNK     1      -2.668  -1.474   3.694  1.00  0.00     0.174 C 
HETATM   27  C21 UNK     1      -3.131  -2.903   3.506  1.00  0.00     0.034 C 
ENDBRANCH  25  26
ENDBRANCH  23  25
ENDBRANCH   6  23
BRANCH   9  28
HETATM   28  N1  UNK     1       1.650  -0.527   2.969  1.00  0.00    -0.379 N 
HETATM   29  H8  UNK     1       1.085  -0.719   3.786  1.00  0.00     0.158 HD
HETATM   30  H9  UNK     1       2.646  -0.703   2.982  1.00  0.00     0.158 HD
ENDBRANCH   9  28
TORSDOF 5
