REMARK  7 active torsions:
REMARK  status: ('A' for Active; 'I' for Inactive)
REMARK    1  A    between atoms: C21_29  and  O4_4 
REMARK    2  A    between atoms: C22_30  and  O5_5 
REMARK    3  A    between atoms: C5_13  and  N1_6 
REMARK    4  A    between atoms: C6_14  and  N2_7 
REMARK    5  A    between atoms: C17_25  and  N3_8 
REMARK       I    between atoms: C9_17  and  N3_8 
REMARK    6  A    between atoms: C5_13  and  C7_15 
REMARK    7  A    between atoms: C6_14  and  C9_17 
ROOT
HETATM    1  N1  UNK     1       2.472   0.128  -0.780  1.00  0.00     0.096 N 
HETATM    2  N2  UNK     1       0.567  -0.889   1.141  1.00  0.00     0.100 N 
HETATM    3  C1  UNK     1       1.106  -0.232  -1.179  1.00  0.00     0.303 C 
HETATM    4  C2  UNK     1       2.903  -0.683   0.365  1.00  0.00     0.303 C 
HETATM    5  C3  UNK     1       0.135  -0.077  -0.003  1.00  0.00     0.303 C 
HETATM    6  C4  UNK     1       1.932  -0.527   1.540  1.00  0.00     0.303 C 
ENDROOT
BRANCH   2   7
HETATM    7  C6  UNK     1      -0.359  -0.739   2.262  1.00  0.00     0.375 C 
BRANCH   7   8
HETATM    8  C9  UNK     1      -1.578  -1.616   2.032  1.00  0.00     0.250 C 
HETATM    9  O2  UNK     1      -1.526  -2.669   1.406  1.00  0.00    -0.271 OA
HETATM   10  N3  UNK     1      -2.700  -1.047   2.630  1.00  0.00    -0.326 N 
HETATM   11  H15 UNK     1      -2.577  -0.166   3.126  1.00  0.00     0.169 HD
BRANCH  10  12
HETATM   12  C17 UNK     1      -4.022  -1.552   2.642  1.00  0.00     0.040 A 
HETATM   13  C19 UNK     1      -4.314  -2.756   2.001  1.00  0.00     0.066 A 
HETATM   14  C22 UNK     1      -5.616  -3.255   2.013  1.00  0.00     0.073 A 
HETATM   15  C23 UNK     1      -6.627  -2.549   2.665  1.00  0.00     0.073 A 
HETATM   16  C21 UNK     1      -6.336  -1.345   3.306  1.00  0.00     0.073 A 
HETATM   17  C20 UNK     1      -5.033  -0.846   3.294  1.00  0.00     0.066 A 
BRANCH  14  18
HETATM   18  O5  UNK     1      -5.902  -4.430   1.388  1.00  0.00    -0.356 OA
HETATM   19  C25 UNK     1      -4.821  -5.100   0.741  1.00  0.00     0.210 C 
ENDBRANCH  14  18
BRANCH  16  20
HETATM   20  O4  UNK     1      -7.322  -0.656   3.942  1.00  0.00    -0.356 OA
HETATM   21  C24 UNK     1      -8.631  -1.224   3.915  1.00  0.00     0.210 C 
ENDBRANCH  16  20
ENDBRANCH  10  12
ENDBRANCH   7   8
ENDBRANCH   2   7
BRANCH   1  22
HETATM   22  C5  UNK     1       3.398  -0.024  -1.902  1.00  0.00     0.312 C 
BRANCH  22  23
HETATM   23  C7  UNK     1       3.340   1.133  -2.839  1.00  0.00    -0.011 A 
HETATM   24  C10 UNK     1       2.494   1.141  -3.878  1.00  0.00     0.092 A 
HETATM   25  C13 UNK     1       2.402   2.261  -4.830  1.00  0.00     0.288 A 
HETATM   26  O1  UNK     1       3.245   3.338  -4.608  1.00  0.00    -0.275 OA
HETATM   27  O3  UNK     1       1.615   2.233  -5.771  1.00  0.00    -0.260 OA
HETATM   28  C11 UNK     1       4.144   3.359  -3.523  1.00  0.00     0.090 A 
HETATM   29  C14 UNK     1       4.945   4.495  -3.397  1.00  0.00     0.045 A 
HETATM   30  C8  UNK     1       4.221   2.290  -2.629  1.00  0.00     0.006 A 
HETATM   31  C15 UNK     1       5.852   4.573  -2.346  1.00  0.00    -0.059 A 
HETATM   32  C16 UNK     1       5.951   3.520  -1.437  1.00  0.00     0.007 A 
HETATM   33  C18 UNK     1       6.718   5.777  -2.190  1.00  0.00     0.048 C 
HETATM   34  C12 UNK     1       5.142   2.387  -1.577  1.00  0.00     0.015 A 
ENDBRANCH  22  23
ENDBRANCH   1  22
TORSDOF 7
