REMARK  5 active torsions:
REMARK  status: ('A' for Active; 'I' for Inactive)
REMARK       I    between atoms: C9_17  and  N2_6 
REMARK    1  A    between atoms: N2_6  and  N4_8 
REMARK    2  A    between atoms: C14_22  and  N3_7 
REMARK    3  A    between atoms: C21_29  and  N3_7 
REMARK    4  A    between atoms: C21_29  and  N4_8 
REMARK    5  A    between atoms: C3_11  and  C9_17 
ROOT
HETATM    1  N4  UNK     1      -0.432   0.052  -2.645  1.00  0.00    -0.273 N 
HETATM    2  H18 UNK     1      -0.400  -0.090  -3.649  1.00  0.00     0.189 HD
ENDROOT
BRANCH   1   3
HETATM    3  C21 UNK     1      -1.600  -0.151  -1.917  1.00  0.00     0.191 C 
HETATM    4  S1  UNK     1      -2.962  -0.610  -2.778  1.00  0.00    -0.039 SA
BRANCH   3   5
HETATM    5  N3  UNK     1      -1.468   0.087  -0.537  1.00  0.00    -0.332 N 
HETATM    6  H17 UNK     1      -0.700   0.716  -0.313  1.00  0.00     0.168 HD
BRANCH   5   7
HETATM    7  C14 UNK     1      -2.112  -0.406   0.598  1.00  0.00     0.037 A 
HETATM    8  C15 UNK     1      -3.095  -1.382   0.474  1.00  0.00     0.067 A 
HETATM    9  C12 UNK     1      -3.727  -1.862   1.623  1.00  0.00     0.092 A 
HETATM   10  O1  UNK     1      -4.714  -2.850   1.434  1.00  0.00    -0.275 OA
HETATM   11  C8  UNK     1      -3.406  -1.398   2.899  1.00  0.00     0.004 A 
HETATM   12  C20 UNK     1      -5.405  -3.398   2.504  1.00  0.00     0.288 A 
HETATM   13  C18 UNK     1      -5.055  -2.898   3.844  1.00  0.00     0.090 A 
HETATM   14  O3  UNK     1      -6.265  -4.258   2.351  1.00  0.00    -0.260 OA
HETATM   15  C13 UNK     1      -4.121  -1.960   4.053  1.00  0.00    -0.043 A 
HETATM   16  C19 UNK     1      -3.799  -1.480   5.439  1.00  0.00     0.049 C 
HETATM   17  C16 UNK     1      -2.412  -0.415   3.003  1.00  0.00     0.017 A 
HETATM   18  C17 UNK     1      -1.770   0.076   1.860  1.00  0.00     0.030 A 
ENDBRANCH   5   7
ENDBRANCH   3   5
ENDBRANCH   1   3
BRANCH   1  19
HETATM   19  N2  UNK     1       0.743   0.435  -2.036  1.00  0.00    -0.264 N 
HETATM   20  C9  UNK     1       1.655   1.188  -2.757  1.00  0.00     0.272 C 
HETATM   21  O2  UNK     1       1.472   1.538  -3.923  1.00  0.00    -0.266 OA
HETATM   22  H12 UNK     1       0.911   0.050  -1.114  1.00  0.00     0.190 HD
BRANCH  20  23
HETATM   23  C3  UNK     1       2.889   1.534  -2.039  1.00  0.00     0.061 A 
HETATM   24  C2  UNK     1       3.970   2.281  -2.528  1.00  0.00     0.008 A 
HETATM   25  C1  UNK     1       4.898   2.341  -1.486  1.00  0.00     0.045 A 
HETATM   26  C6  UNK     1       4.275   2.921  -3.745  1.00  0.00     0.015 A 
HETATM   27  N1  UNK     1       4.362   1.645  -0.426  1.00  0.00    -0.359 N 
HETATM   28  C5  UNK     1       6.121   3.012  -1.601  1.00  0.00     0.030 A 
HETATM   29  C4  UNK     1       3.131   1.149  -0.760  1.00  0.00     0.108 A 
HETATM   30  C7  UNK     1       4.996   1.456   0.862  1.00  0.00     0.156 C 
HETATM   31  C10 UNK     1       6.401   3.639  -2.818  1.00  0.00     0.002 A 
HETATM   32  C11 UNK     1       5.494   3.596  -3.875  1.00  0.00     0.001 A 
ENDBRANCH  20  23
ENDBRANCH   1  19
TORSDOF 5
