REMARK  7 active torsions:
REMARK  status: ('A' for Active; 'I' for Inactive)
REMARK    1  A    between atoms: C11_20  and  O1_4 
REMARK    2  A    between atoms: C8_17  and  O1_4 
REMARK    3  A    between atoms: C18_27  and  O3_6 
REMARK    4  A    between atoms: C21_30  and  O3_6 
REMARK       I    between atoms: C22_31  and  N1_9 
REMARK    5  A    between atoms: C1_10  and  C2_11 
REMARK    6  A    between atoms: C15_24  and  C20_29 
REMARK    7  A    between atoms: C21_30  and  C22_31 
ROOT
HETATM    1  O2  UNK     1       0.077   0.918  -2.417  1.00  0.00    -0.302 OA
HETATM    2  O4  UNK     1       0.622  -1.531   0.792  1.00  0.00    -0.284 OA
HETATM    3  C11 UNK     1      -0.729  -0.897  -1.047  1.00  0.00     0.165 A 
HETATM    4  C12 UNK     1       1.442   0.245  -0.527  1.00  0.00     0.051 A 
HETATM    5  C13 UNK     1       1.196   1.049  -1.637  1.00  0.00     0.093 A 
HETATM    6  C14 UNK     1       0.463  -0.794  -0.172  1.00  0.00     0.221 A 
HETATM    7  C15 UNK     1      -0.852  -0.059  -2.091  1.00  0.00     0.197 A 
HETATM    8  C16 UNK     1       2.600   0.424   0.234  1.00  0.00     0.021 A 
HETATM    9  C17 UNK     1       2.109   2.041  -1.994  1.00  0.00     0.075 A 
HETATM   10  C18 UNK     1       3.267   2.224  -1.238  1.00  0.00     0.072 A 
HETATM   11  C19 UNK     1       3.512   1.417  -0.126  1.00  0.00     0.038 A 
ENDROOT
BRANCH   3  12
HETATM   12  O1  UNK     1      -1.672  -1.857  -0.751  1.00  0.00    -0.304 OA
BRANCH  12  13
HETATM   13  C8  UNK     1      -2.273  -1.777   0.473  1.00  0.00     0.076 A 
HETATM   14  C10 UNK     1      -2.725  -0.547   0.945  1.00  0.00     0.038 A 
HETATM   15  C7  UNK     1      -3.340  -0.467   2.194  1.00  0.00     0.011 A 
HETATM   16  C2  UNK     1      -3.501  -1.617   2.967  1.00  0.00    -0.050 A 
HETATM   17  C6  UNK     1      -3.047  -2.847   2.491  1.00  0.00     0.011 A 
HETATM   18  C9  UNK     1      -2.432  -2.927   1.241  1.00  0.00     0.038 A 
BRANCH  16  19
HETATM   19  C1  UNK     1      -4.157  -1.531   4.304  1.00  0.00    -0.024 C 
HETATM   20  C3  UNK     1      -3.198  -2.009   5.437  1.00  0.00     0.019 C 
HETATM   21  C4  UNK     1      -5.437  -2.421   4.364  1.00  0.00     0.019 C 
HETATM   22  C5  UNK     1      -4.626  -0.100   4.731  1.00  0.00     0.019 C 
ENDBRANCH  16  19
ENDBRANCH  12  13
ENDBRANCH   3  12
BRANCH   7  23
HETATM   23  C20 UNK     1      -2.018  -0.081  -3.035  1.00  0.00     0.442 C 
HETATM   24  F1  UNK     1      -2.898  -1.041  -2.688  1.00  0.00    -0.164 F 
HETATM   25  F2  UNK     1      -2.667   1.100  -3.027  1.00  0.00    -0.164 F 
HETATM   26  F3  UNK     1      -1.614  -0.325  -4.297  1.00  0.00    -0.164 F 
ENDBRANCH   7  23
BRANCH  10  27
HETATM   27  O3  UNK     1       4.160   3.192  -1.585  1.00  0.00    -0.342 OA
BRANCH  27  28
HETATM   28  C21 UNK     1       5.531   2.953  -1.270  1.00  0.00     0.278 C 
BRANCH  28  29
HETATM   29  C22 UNK     1       6.410   3.648  -2.283  1.00  0.00     0.239 C 
HETATM   30  O5  UNK     1       5.975   4.306  -3.224  1.00  0.00    -0.271 OA
HETATM   31  N1  UNK     1       7.751   3.461  -2.030  1.00  0.00    -0.368 N 
HETATM   32  H19 UNK     1       8.458   3.871  -2.631  1.00  0.00     0.159 HD
HETATM   33  H20 UNK     1       8.084   2.912  -1.243  1.00  0.00     0.159 HD
ENDBRANCH  28  29
ENDBRANCH  27  28
ENDBRANCH  10  27
TORSDOF 7
