REMARK  4 active torsions:
REMARK  status: ('A' for Active; 'I' for Inactive)
REMARK    1  A    between atoms: C18_25  and  O3_3 
REMARK    2  A    between atoms: C21_28  and  O5_5 
REMARK    3  A    between atoms: C1_8  and  C8_15 
REMARK    4  A    between atoms: C6_13  and  C9_16 
ROOT
HETATM    1  O1  UNK     1      -2.053   2.656  -0.522  1.00  0.00    -0.293 OA
HETATM    2  N1  UNK     1       1.095  -0.561   1.205  1.00  0.00    -0.357 N 
HETATM    3  N2  UNK     1       1.693   2.368   0.897  1.00  0.00    -0.375 N 
HETATM    4  C1  UNK     1      -2.599  -0.219   1.571  1.00  0.00     0.031 C 
HETATM    5  C2  UNK     1      -1.281  -0.954   1.313  1.00  0.00     0.067 C 
HETATM    6  C3  UNK     1      -0.387   1.177   0.343  1.00  0.00     0.037 C 
HETATM    7  C4  UNK     1      -2.938   0.638   0.360  1.00  0.00     0.093 C 
HETATM    8  C5  UNK     1      -0.145  -0.019   0.922  1.00  0.00     0.022 C 
HETATM    9  C6  UNK     1       0.684   2.132  -0.121  1.00  0.00     0.160 C 
HETATM   10  C7  UNK     1      -1.808   1.587   0.039  1.00  0.00     0.160 C 
HETATM   11  C10 UNK     1       2.348   0.044   1.429  1.00  0.00     0.059 A 
HETATM   12  C11 UNK     1       2.603   1.424   1.349  1.00  0.00     0.055 A 
HETATM   13  C16 UNK     1       3.400  -0.817   1.819  1.00  0.00     0.032 A 
HETATM   14  C17 UNK     1       3.887   1.893   1.709  1.00  0.00     0.031 A 
HETATM   15  C23 UNK     1       4.664  -0.334   2.151  1.00  0.00     0.002 A 
HETATM   16  C24 UNK     1       4.906   1.028   2.105  1.00  0.00     0.002 A 
HETATM   17  H7  UNK     1       1.078  -1.560   1.392  1.00  0.00     0.166 HD
HETATM   18  H8  UNK     1       1.941   3.340   1.058  1.00  0.00     0.160 HD
ENDROOT
BRANCH   9  19
HETATM   19  C9  UNK     1       1.317   1.719  -1.418  1.00  0.00     0.042 A 
HETATM   20  C14 UNK     1       2.382   2.578  -1.993  1.00  0.00     0.195 A 
HETATM   21  O4  UNK     1       2.756   3.607  -1.444  1.00  0.00    -0.287 OA
HETATM   22  C19 UNK     1       2.969   2.127  -3.268  1.00  0.00     0.049 A 
HETATM   23  C22 UNK     1       2.503   0.947  -3.849  1.00  0.00     0.089 A 
HETATM   24  C25 UNK     1       3.977   2.866  -3.890  1.00  0.00     0.025 A 
HETATM   25  O2  UNK     1       1.515   0.181  -3.282  1.00  0.00    -0.321 OA
HETATM   26  C26 UNK     1       3.043   0.500  -5.055  1.00  0.00     0.039 A 
HETATM   27  C15 UNK     1       0.978   0.615  -2.095  1.00  0.00     0.156 A 
HETATM   28  C28 UNK     1       4.051   1.237  -5.678  1.00  0.00     0.009 A 
HETATM   29  C27 UNK     1       4.517   2.417  -5.097  1.00  0.00    -0.061 A 
HETATM   30  C29 UNK     1       5.595   3.201  -5.767  1.00  0.00     0.048 C 
ENDBRANCH   9  19
BRANCH   4  31
HETATM   31  C8  UNK     1      -3.723  -1.170   1.935  1.00  0.00    -0.050 A 
HETATM   32  C12 UNK     1      -4.135  -2.139   1.023  1.00  0.00     0.047 A 
HETATM   33  C18 UNK     1      -5.169  -3.013   1.358  1.00  0.00     0.102 A 
HETATM   34  C21 UNK     1      -5.789  -2.916   2.604  1.00  0.00     0.101 A 
HETATM   35  C20 UNK     1      -5.375  -1.944   3.515  1.00  0.00     0.040 A 
HETATM   36  C13 UNK     1      -4.341  -1.070   3.180  1.00  0.00     0.010 A 
BRANCH  33  37
HETATM   37  O3  UNK     1      -5.564  -3.959   0.460  1.00  0.00    -0.353 OA
HETATM   38  C30 UNK     1      -4.879  -3.991  -0.791  1.00  0.00     0.210 C 
ENDBRANCH  33  37
BRANCH  34  39
HETATM   39  O5  UNK     1      -6.799  -3.765   2.942  1.00  0.00    -0.353 OA
HETATM   40  C31 UNK     1      -6.433  -4.983   3.588  1.00  0.00     0.210 C 
ENDBRANCH  34  39
ENDBRANCH   4  31
TORSDOF 4
