REMARK  5 active torsions:
REMARK  status: ('A' for Active; 'I' for Inactive)
REMARK    1  A    between atoms: C5_11  and  O2_2 
REMARK    2  A    between atoms: C11_17  and  O4_4 
REMARK    3  A    between atoms: C13_19  and  O5_5 
REMARK    4  A    between atoms: C15_21  and  O6_6 
REMARK    5  A    between atoms: C1_7  and  C4_10 
ROOT
HETATM    1  O1  UNK     1      -0.767  -0.392  -0.413  1.00  0.00    -0.306 OA
HETATM    2  O3  UNK     1      -1.235   1.183   3.316  1.00  0.00    -0.284 OA
HETATM    3  C1  UNK     1       0.096   0.576   0.077  1.00  0.00     0.123 A 
HETATM    4  C2  UNK     1      -1.999  -0.332   1.678  1.00  0.00     0.051 A 
HETATM    5  C3  UNK     1      -1.786  -0.828   0.394  1.00  0.00     0.093 A 
HETATM    6  C5  UNK     1      -0.005   1.142   1.293  1.00  0.00     0.152 A 
HETATM    7  C6  UNK     1      -1.095   0.705   2.199  1.00  0.00     0.220 A 
HETATM    8  C7  UNK     1      -3.055  -0.814   2.455  1.00  0.00     0.021 A 
HETATM    9  C8  UNK     1      -2.631  -1.811  -0.123  1.00  0.00     0.074 A 
HETATM   10  C11 UNK     1      -3.687  -2.294   0.649  1.00  0.00     0.068 A 
HETATM   11  C12 UNK     1      -3.899  -1.797   1.936  1.00  0.00     0.037 A 
ENDROOT
BRANCH   3  12
HETATM   12  C4  UNK     1       1.142   0.954  -0.889  1.00  0.00     0.004 A 
HETATM   13  C10 UNK     1       2.366   0.284  -0.891  1.00  0.00     0.017 A 
HETATM   14  C14 UNK     1       3.356   0.642  -1.805  1.00  0.00     0.040 A 
HETATM   15  C15 UNK     1       3.124   1.671  -2.717  1.00  0.00     0.098 A 
HETATM   16  C13 UNK     1       1.901   2.342  -2.716  1.00  0.00     0.099 A 
HETATM   17  C9  UNK     1       0.910   1.983  -1.802  1.00  0.00     0.053 A 
BRANCH  15  18
HETATM   18  O6  UNK     1       4.101   2.013  -3.604  1.00  0.00    -0.358 OA
HETATM   19  H10 UNK     1       3.957   2.922  -3.915  1.00  0.00     0.217 HD
ENDBRANCH  15  18
BRANCH  16  20
HETATM   20  O5  UNK     1       1.663   3.348  -3.603  1.00  0.00    -0.358 OA
HETATM   21  H9  UNK     1       2.254   3.256  -4.368  1.00  0.00     0.217 HD
ENDBRANCH  16  20
ENDBRANCH   3  12
BRANCH   6  22
HETATM   22  O2  UNK     1       0.851   2.127   1.738  1.00  0.00    -0.355 OA
HETATM   23  H7  UNK     1       1.512   2.323   1.054  1.00  0.00     0.218 HD
ENDBRANCH   6  22
BRANCH  10  24
HETATM   24  O4  UNK     1      -4.513  -3.253   0.147  1.00  0.00    -0.361 OA
HETATM   25  H8  UNK     1      -5.187  -3.470   0.815  1.00  0.00     0.217 HD
ENDBRANCH  10  24
TORSDOF 5
