REMARK  4 active torsions:
REMARK  status: ('A' for Active; 'I' for Inactive)
REMARK    1  A    between atoms: N2_5  and  N3_6 
REMARK    2  A    between atoms: C6_13  and  N3_6 
REMARK    3  A    between atoms: C6_13  and  N4_7 
REMARK    4  A    between atoms: C7_14  and  N4_7 
ROOT
HETATM    1  N4  UNK     1       0.299   0.623  -0.909  1.00  0.00    -0.332 N 
HETATM    2  H13 UNK     1       1.189   0.967  -0.553  1.00  0.00     0.168 HD
ENDROOT
BRANCH   1   3
HETATM    3  C6  UNK     1       0.067   1.009  -2.225  1.00  0.00     0.187 C 
HETATM    4  S1  UNK     1      -1.356   0.960  -3.112  1.00  0.00    -0.040 SA
BRANCH   3   5
HETATM    5  N3  UNK     1       1.190   1.530  -2.862  1.00  0.00    -0.295 N 
HETATM    6  H12 UNK     1       1.125   1.850  -3.824  1.00  0.00     0.183 HD
BRANCH   5   7
HETATM    7  N2  UNK     1       2.411   1.636  -2.224  1.00  0.00    -0.226 NA
HETATM    8  C3  UNK     1       3.427   0.856  -2.936  1.00  0.00     0.144 C 
HETATM    9  C1  UNK     1       4.791   0.983  -2.249  1.00  0.00     0.288 C 
HETATM   10  N1  UNK     1       5.197   2.391  -2.150  1.00  0.00     0.086 N 
HETATM   11  C2  UNK     1       4.177   3.171  -1.438  1.00  0.00     0.288 C 
HETATM   12  C5  UNK     1       6.497   2.511  -1.492  1.00  0.00     0.310 C 
HETATM   13  C4  UNK     1       2.814   3.043  -2.125  1.00  0.00     0.144 C 
ENDBRANCH   5   7
ENDBRANCH   3   5
ENDBRANCH   1   3
BRANCH   1  14
HETATM   14  C7  UNK     1      -0.533   0.095   0.111  1.00  0.00     0.037 A 
HETATM   15  C10 UNK     1      -1.588  -0.724  -0.235  1.00  0.00     0.067 A 
HETATM   16  C9  UNK     1      -2.394  -1.235   0.785  1.00  0.00     0.092 A 
HETATM   17  C8  UNK     1      -2.166  -0.945   2.131  1.00  0.00     0.004 A 
HETATM   18  O1  UNK     1      -3.460  -2.067   0.389  1.00  0.00    -0.275 OA
HETATM   19  C12 UNK     1      -3.064  -1.526   3.137  1.00  0.00    -0.043 A 
HETATM   20  C13 UNK     1      -1.084  -0.110   2.442  1.00  0.00     0.017 A 
HETATM   21  C14 UNK     1      -4.070  -2.314   2.732  1.00  0.00     0.090 A 
HETATM   22  C15 UNK     1      -2.846  -1.233   4.593  1.00  0.00     0.049 C 
HETATM   23  C16 UNK     1      -4.323  -2.629   1.316  1.00  0.00     0.288 A 
HETATM   24  O2  UNK     1      -5.254  -3.354   0.983  1.00  0.00    -0.260 OA
HETATM   25  C11 UNK     1      -0.268   0.410   1.431  1.00  0.00     0.030 A 
ENDBRANCH   1  14
TORSDOF 4
