REMARK  1 active torsions:
REMARK  status: ('A' for Active; 'I' for Inactive)
REMARK    1  A    between atoms: C6_9  and  O2_2 
ROOT
HETATM    1  O1  UNK     1      -0.757  -0.377   1.461  1.00  0.00    -0.275 OA
HETATM    2  O3  UNK     1      -2.757  -1.367   1.979  1.00  0.00    -0.260 OA
HETATM    3  C1  UNK     1      -0.254   0.127  -0.866  1.00  0.00     0.001 A 
HETATM    4  C2  UNK     1       0.110   0.141   0.478  1.00  0.00     0.089 A 
HETATM    5  C3  UNK     1       0.632   0.649  -1.811  1.00  0.00     0.050 A 
HETATM    6  C4  UNK     1       1.330   0.663   0.901  1.00  0.00     0.041 A 
HETATM    7  C5  UNK     1      -1.542  -0.433  -1.238  1.00  0.00     0.020 A 
HETATM    8  C6  UNK     1       1.860   1.176  -1.401  1.00  0.00     0.066 A 
HETATM    9  C7  UNK     1       2.208   1.182  -0.048  1.00  0.00     0.039 A 
HETATM   10  C8  UNK     1      -2.358  -0.922  -0.300  1.00  0.00     0.083 A 
HETATM   11  C9  UNK     1      -1.996  -0.917   1.130  1.00  0.00     0.288 A 
ENDROOT
BRANCH   8  12
HETATM   12  O2  UNK     1       2.722   1.684  -2.324  1.00  0.00    -0.361 OA
HETATM   13  H6  UNK     1       2.324   1.600  -3.207  1.00  0.00     0.217 HD
ENDBRANCH   8  12
TORSDOF 1
