REMARK  3 active torsions:
REMARK  status: ('A' for Active; 'I' for Inactive)
REMARK    1  A    between atoms: C1_4  and  C3_6 
REMARK    2  A    between atoms: C2_5  and  C4_7 
REMARK    3  A    between atoms: C3_6  and  C5_8 
ROOT
HETATM    1  O1  UNK     1       0.110  -0.140   2.628  1.00  0.00    -0.288 OA
HETATM    2  C3  UNK     1      -0.468  -0.198   1.543  1.00  0.00     0.182 C 
ENDROOT
BRANCH   2   3
HETATM    3  C1  UNK     1      -1.789  -0.823   1.391  1.00  0.00     0.014 A 
HETATM    4  C6  UNK     1      -2.140  -1.390   0.174  1.00  0.00     0.017 A 
HETATM    5  C10 UNK     1      -3.394  -1.983   0.030  1.00  0.00     0.025 A 
HETATM    6  C14 UNK     1      -4.284  -2.002   1.104  1.00  0.00     0.034 A 
HETATM    7  C11 UNK     1      -3.920  -1.429   2.322  1.00  0.00     0.025 A 
HETATM    8 Cl1  UNK     1      -5.831  -2.734   0.927  1.00  0.00    -0.084 Cl
HETATM    9  C7  UNK     1      -2.665  -0.836   2.466  1.00  0.00     0.017 A 
ENDBRANCH   2   3
BRANCH   2  10
HETATM   10  C5  UNK     1       0.169   0.421   0.334  1.00  0.00     0.056 C 
HETATM   11  C4  UNK     1       1.496   0.478   0.251  1.00  0.00     0.015 C 
BRANCH  11  12
HETATM   12  C2  UNK     1       2.187   1.085  -0.875  1.00  0.00    -0.036 A 
HETATM   13  C8  UNK     1       1.524   1.258  -2.090  1.00  0.00     0.012 A 
HETATM   14  C12 UNK     1       2.187   1.840  -3.170  1.00  0.00     0.020 A 
HETATM   15  C15 UNK     1       3.514   2.250  -3.035  1.00  0.00     0.011 A 
HETATM   16 Br1  UNK     1       4.412   3.040  -4.499  1.00  0.00    -0.051 Br
HETATM   17  C13 UNK     1       4.177   2.078  -1.820  1.00  0.00     0.020 A 
HETATM   18  C9  UNK     1       3.514   1.495  -0.740  1.00  0.00     0.012 A 
ENDBRANCH  11  12
ENDBRANCH   2  10
TORSDOF 3
