REMARK  2 active torsions:
REMARK  status: ('A' for Active; 'I' for Inactive)
REMARK    1  A    between atoms: C11_15  and  O3_3 
REMARK    2  A    between atoms: C11_15  and  C8_12 
ROOT
HETATM    1  O1  UNK     1      -0.168  -0.055   1.067  1.00  0.00    -0.303 OA
HETATM    2  O2  UNK     1      -1.625  -0.299  -2.734  1.00  0.00    -0.287 OA
HETATM    3  C1  UNK     1       0.142   0.362  -1.307  1.00  0.00     0.048 A 
HETATM    4  C2  UNK     1       0.581   0.415   0.017  1.00  0.00     0.091 A 
HETATM    5  C3  UNK     1       2.633   1.457  -0.710  1.00  0.00    -0.059 A 
HETATM    6  C4  UNK     1       1.828   0.962   0.317  1.00  0.00     0.045 A 
HETATM    7  C5  UNK     1       0.946   0.856  -2.337  1.00  0.00     0.019 A 
HETATM    8  C6  UNK     1      -1.179  -0.221  -1.597  1.00  0.00     0.187 A 
HETATM    9  C7  UNK     1       2.193   1.403  -2.033  1.00  0.00     0.008 A 
HETATM   10  C8  UNK     1      -1.403  -0.600   0.785  1.00  0.00     0.153 A 
HETATM   11  C9  UNK     1      -1.946  -0.713  -0.434  1.00  0.00     0.100 A 
HETATM   12  C10 UNK     1       3.967   2.043  -0.393  1.00  0.00     0.048 C 
ENDROOT
BRANCH  10  13
HETATM   13  C11 UNK     1      -2.185  -1.095   1.919  1.00  0.00     0.201 C 
HETATM   14  O4  UNK     1      -3.290  -1.601   1.828  1.00  0.00    -0.645 OA
BRANCH  13  15
HETATM   15  O3  UNK     1      -1.495  -0.904   3.063  1.00  0.00    -0.771 OA
HETATM   16  H8  UNK     1      -1.988  -1.225   3.848  1.00  0.00     0.167 HD
ENDBRANCH  13  15
ENDBRANCH  10  13
TORSDOF 2
