REMARK  8 active torsions:
REMARK  status: ('A' for Active; 'I' for Inactive)
REMARK    1  A    between atoms: C12_23  and  O2_4 
REMARK    2  A    between atoms: C19_30  and  O2_4 
REMARK    3  A    between atoms: C13_24  and  O3_5 
REMARK    4  A    between atoms: C3_14  and  N1_10 
REMARK       I    between atoms: C9_20  and  N1_10 
REMARK       I    between atoms: C11_22  and  N2_11 
REMARK    5  A    between atoms: C18_29  and  N2_11 
REMARK    6  A    between atoms: C12_23  and  C2_13 
REMARK    7  A    between atoms: C11_22  and  C4_15 
REMARK    8  A    between atoms: C7_18  and  C9_20 
ROOT
HETATM    1  S1  UNK     1      -1.584  -0.341   0.565  1.00  0.00    -0.065 SA
HETATM    2  C1  UNK     1      -1.071  -0.220   3.080  1.00  0.00    -0.020 A 
HETATM    3  C2  UNK     1       0.082   0.290   2.416  1.00  0.00     0.080 A 
HETATM    4  C3  UNK     1      -0.063   0.281   1.046  1.00  0.00     0.094 A 
HETATM    5  C4  UNK     1      -2.053  -0.600   2.192  1.00  0.00     0.082 A 
HETATM    6  C5  UNK     1      -1.199  -0.330   4.555  1.00  0.00     0.051 C 
ENDROOT
BRANCH   4   7
HETATM    7  N1  UNK     1       0.800   0.683   0.023  1.00  0.00    -0.316 N 
HETATM    8  C9  UNK     1       0.538   0.624  -1.339  1.00  0.00     0.262 C 
HETATM    9  O4  UNK     1      -0.474   0.220  -1.909  1.00  0.00    -0.267 OA
HETATM   10  H1  UNK     1       1.695   1.052   0.335  1.00  0.00     0.169 HD
BRANCH   8  11
HETATM   11  C7  UNK     1       1.665   1.127  -2.135  1.00  0.00     0.108 A 
HETATM   12  C10 UNK     1       1.409   2.178  -2.923  1.00  0.00     0.037 A 
HETATM   13  C6  UNK     1       2.462   2.748  -3.749  1.00  0.00     0.002 A 
HETATM   14  C15 UNK     1       2.241   3.845  -4.586  1.00  0.00     0.014 A 
HETATM   15  C8  UNK     1       3.732   2.182  -3.706  1.00  0.00     0.123 A 
HETATM   16  C17 UNK     1       3.286   4.355  -5.361  1.00  0.00     0.004 A 
HETATM   17  C16 UNK     1       4.554   3.774  -5.305  1.00  0.00     0.040 A 
HETATM   18  C13 UNK     1       4.784   2.680  -4.473  1.00  0.00     0.102 A 
HETATM   19  O1  UNK     1       3.995   1.076  -2.875  1.00  0.00    -0.271 OA
HETATM   20  C14 UNK     1       3.008   0.510  -2.072  1.00  0.00     0.304 A 
HETATM   21  O7  UNK     1       3.246  -0.453  -1.351  1.00  0.00    -0.259 OA
BRANCH  18  22
HETATM   22  O3  UNK     1       6.020   2.117  -4.421  1.00  0.00    -0.353 OA
HETATM   23  C26 UNK     1       7.034   2.696  -5.243  1.00  0.00     0.210 C 
ENDBRANCH  18  22
ENDBRANCH   8  11
ENDBRANCH   4   7
BRANCH   3  24
HETATM   24  C12 UNK     1       1.277   0.769   3.064  1.00  0.00     0.296 C 
HETATM   25  O6  UNK     1       1.292   1.291   4.188  1.00  0.00    -0.259 OA
BRANCH  24  26
HETATM   26  O2  UNK     1       2.424   0.596   2.320  1.00  0.00    -0.318 OA
BRANCH  26  27
HETATM   27  C19 UNK     1       3.650   1.050   2.905  1.00  0.00     0.174 C 
HETATM   28  C24 UNK     1       4.787   0.776   1.944  1.00  0.00     0.034 C 
ENDBRANCH  26  27
ENDBRANCH  24  26
ENDBRANCH   3  24
BRANCH   5  29
HETATM   29  C11 UNK     1      -3.344  -1.153   2.453  1.00  0.00     0.263 C 
HETATM   30  O5  UNK     1      -4.008  -0.869   3.477  1.00  0.00    -0.267 OA
HETATM   31  N2  UNK     1      -3.859  -2.023   1.463  1.00  0.00    -0.323 N 
HETATM   32  H7  UNK     1      -3.257  -2.198   0.661  1.00  0.00     0.169 HD
BRANCH  31  33
HETATM   33  C18 UNK     1      -5.108  -2.692   1.416  1.00  0.00     0.035 A 
HETATM   34  C20 UNK     1      -6.027  -2.530   2.453  1.00  0.00     0.031 A 
HETATM   35  C22 UNK     1      -7.255  -3.188   2.405  1.00  0.00     0.026 A 
HETATM   36  C25 UNK     1      -7.566  -4.009   1.321  1.00  0.00     0.034 A 
HETATM   37  C23 UNK     1      -6.647  -4.171   0.284  1.00  0.00     0.026 A 
HETATM   38 Cl1  UNK     1      -9.082  -4.820   1.262  1.00  0.00    -0.084 Cl
HETATM   39  C21 UNK     1      -5.418  -3.513   0.331  1.00  0.00     0.031 A 
ENDBRANCH  31  33
ENDBRANCH   5  29
TORSDOF 8
