REMARK  4 active torsions:
REMARK  status: ('A' for Active; 'I' for Inactive)
REMARK    1  A    between atoms: C4_9  and  O2_2 
REMARK    2  A    between atoms: C9_14  and  O3_3 
REMARK    3  A    between atoms: C10_15  and  O4_4 
REMARK    4  A    between atoms: C3_8  and  C7_12 
ROOT
HETATM    1  O1  UNK     1       0.274   1.045   0.265  1.00  0.00    -0.309 OA
HETATM    2  O5  UNK     1      -1.565  -1.838  -1.950  1.00  0.00    -0.287 OA
HETATM    3  C1  UNK     1      -1.451  -0.655   0.093  1.00  0.00     0.084 A 
HETATM    4  C2  UNK     1      -0.779   0.344   0.795  1.00  0.00     0.096 A 
HETATM    5  C3  UNK     1       0.691   0.740  -1.022  1.00  0.00     0.090 A 
HETATM    6  C4  UNK     1      -2.518  -1.337   0.683  1.00  0.00     0.118 A 
HETATM    7  C5  UNK     1      -1.018  -0.976  -1.275  1.00  0.00     0.190 A 
HETATM    8  C6  UNK     1       0.120  -0.194  -1.799  1.00  0.00     0.094 A 
HETATM    9  C8  UNK     1      -1.171   0.668   2.094  1.00  0.00     0.077 A 
HETATM   10  C9  UNK     1      -2.908  -1.011   1.983  1.00  0.00     0.133 A 
HETATM   11  C10 UNK     1      -2.236  -0.011   2.687  1.00  0.00     0.104 A 
ENDROOT
BRANCH   5  12
HETATM   12  C7  UNK     1       1.825   1.558  -1.495  1.00  0.00    -0.002 A 
HETATM   13  C11 UNK     1       1.954   1.862  -2.853  1.00  0.00     0.014 A 
HETATM   14  C13 UNK     1       3.026   2.634  -3.300  1.00  0.00     0.001 A 
HETATM   15  C15 UNK     1       3.973   3.105  -2.390  1.00  0.00     0.000 A 
HETATM   16  C14 UNK     1       3.848   2.804  -1.034  1.00  0.00     0.001 A 
HETATM   17  C12 UNK     1       2.776   2.032  -0.587  1.00  0.00     0.014 A 
ENDBRANCH   5  12
BRANCH   6  18
HETATM   18  O2  UNK     1      -3.199  -2.320   0.028  1.00  0.00    -0.357 OA
HETATM   19  H8  UNK     1      -2.835  -2.457  -0.860  1.00  0.00     0.217 HD
ENDBRANCH   6  18
BRANCH  11  20
HETATM   20  O4  UNK     1      -2.610   0.313   3.956  1.00  0.00    -0.358 OA
HETATM   21  H10 UNK     1      -3.360  -0.253   4.208  1.00  0.00     0.217 HD
ENDBRANCH  11  20
BRANCH  10  22
HETATM   22  O3  UNK     1      -3.948  -1.669   2.570  1.00  0.00    -0.356 OA
HETATM   23  H9  UNK     1      -4.292  -2.325   1.939  1.00  0.00     0.218 HD
ENDBRANCH  10  22
TORSDOF 4
