REMARK  5 active torsions:
REMARK  status: ('A' for Active; 'I' for Inactive)
REMARK    1  A    between atoms: C11_16  and  O2_2 
REMARK    2  A    between atoms: C6_11  and  O2_2 
REMARK    3  A    between atoms: C12_17  and  O3_3 
REMARK    4  A    between atoms: C13_18  and  O3_3 
REMARK    5  A    between atoms: C11_16  and  C12_17 
ROOT
HETATM    1  O1  UNK     1      -2.148  -1.451   2.904  1.00  0.00    -0.275 OA
HETATM    2  O4  UNK     1      -3.226  -1.819   4.887  1.00  0.00    -0.260 OA
HETATM    3  C1  UNK     1      -3.438  -1.414   0.831  1.00  0.00     0.004 A 
HETATM    4  C2  UNK     1      -2.220  -1.311   1.504  1.00  0.00     0.092 A 
HETATM    5  C3  UNK     1      -4.655  -1.673   1.613  1.00  0.00    -0.043 A 
HETATM    6  C4  UNK     1      -3.426  -1.262  -0.562  1.00  0.00     0.017 A 
HETATM    7  C5  UNK     1      -1.018  -1.067   0.837  1.00  0.00     0.075 A 
HETATM    8  C6  UNK     1      -1.027  -0.919  -0.546  1.00  0.00     0.072 A 
HETATM    9  C7  UNK     1      -2.229  -1.017  -1.245  1.00  0.00     0.038 A 
HETATM   10  C8  UNK     1      -4.556  -1.801   2.943  1.00  0.00     0.090 A 
HETATM   11  C9  UNK     1      -5.980  -1.789   0.918  1.00  0.00     0.049 C 
HETATM   12  C10 UNK     1      -3.278  -1.695   3.668  1.00  0.00     0.288 A 
ENDROOT
BRANCH   8  13
HETATM   13  O2  UNK     1       0.133  -0.681  -1.215  1.00  0.00    -0.341 OA
BRANCH  13  14
HETATM   14  C11 UNK     1       1.151   0.036  -0.516  1.00  0.00     0.287 C 
BRANCH  14  15
HETATM   15  C12 UNK     1       1.973   0.808  -1.515  1.00  0.00     0.288 C 
HETATM   16  O5  UNK     1       1.779   0.827  -2.723  1.00  0.00    -0.262 OA
BRANCH  15  17
HETATM   17  O3  UNK     1       2.975   1.483  -0.822  1.00  0.00    -0.277 OA
BRANCH  17  18
HETATM   18  C13 UNK     1       3.802   2.236  -1.659  1.00  0.00     0.079 A 
HETATM   19  C14 UNK     1       3.461   3.544  -1.924  1.00  0.00     0.037 A 
HETATM   20  C16 UNK     1       4.286   4.295  -2.761  1.00  0.00     0.003 A 
HETATM   21  C18 UNK     1       5.431   3.719  -3.311  1.00  0.00     0.000 A 
HETATM   22  C17 UNK     1       5.751   2.392  -3.025  1.00  0.00     0.003 A 
HETATM   23  C15 UNK     1       4.926   1.640  -2.188  1.00  0.00     0.037 A 
ENDBRANCH  17  18
ENDBRANCH  15  17
ENDBRANCH  14  15
ENDBRANCH  13  14
ENDBRANCH   8  13
TORSDOF 5
