REMARK  3 active torsions:
REMARK  status: ('A' for Active; 'I' for Inactive)
REMARK    1  A    between atoms: C11_14  and  O2_2 
REMARK    2  A    between atoms: C5_8  and  O2_2 
REMARK    3  A    between atoms: C11_14  and  C12_15 
ROOT
HETATM    1  O1  UNK     1      -1.504  -0.611   2.157  1.00  0.00    -0.275 OA
HETATM    2  O3  UNK     1      -3.603  -1.302   2.744  1.00  0.00    -0.260 OA
HETATM    3  C1  UNK     1      -0.925  -0.427  -0.209  1.00  0.00     0.007 A 
HETATM    4  C2  UNK     1      -2.281  -0.878  -0.550  1.00  0.00    -0.043 A 
HETATM    5  C3  UNK     1      -0.579  -0.308   1.138  1.00  0.00     0.090 A 
HETATM    6  C4  UNK     1       0.051  -0.107  -1.161  1.00  0.00     0.051 A 
HETATM    7  C5  UNK     1       1.325   0.317  -0.765  1.00  0.00     0.070 A 
HETATM    8  C6  UNK     1       0.687   0.113   1.548  1.00  0.00     0.041 A 
HETATM    9  C7  UNK     1       1.642   0.427   0.588  1.00  0.00     0.039 A 
HETATM   10  C8  UNK     1      -3.140  -1.158   0.440  1.00  0.00     0.090 A 
HETATM   11  C9  UNK     1      -2.685  -1.017  -1.989  1.00  0.00     0.049 C 
HETATM   12  C10 UNK     1      -2.791  -1.037   1.866  1.00  0.00     0.288 A 
ENDROOT
BRANCH   7  13
HETATM   13  O2  UNK     1       2.260   0.625  -1.707  1.00  0.00    -0.347 OA
BRANCH  13  14
HETATM   14  C11 UNK     1       3.226   1.616  -1.362  1.00  0.00     0.202 C 
BRANCH  14  15
HETATM   15  C12 UNK     1       3.689   2.289  -2.611  1.00  0.00    -0.011 C 
HETATM   16  C13 UNK     1       3.561   3.600  -2.845  1.00  0.00     0.009 C 
ENDBRANCH  14  15
ENDBRANCH  13  14
ENDBRANCH   7  13
TORSDOF 3
