REMARK  3 active torsions:
REMARK  status: ('A' for Active; 'I' for Inactive)
REMARK    1  A    between atoms: C7_15  and  N1_7 
REMARK    2  A    between atoms: C1_9  and  C3_11 
REMARK    3  A    between atoms: C12_20  and  C19_27 
ROOT
HETATM    1  O1  UNK     1      -0.160   1.711  -1.987  1.00  0.00    -0.291 OA
HETATM    2  O2  UNK     1       3.151  -0.355  -0.481  1.00  0.00    -0.274 OA
HETATM    3  O3  UNK     1       1.914  -2.267  -0.373  1.00  0.00    -0.259 OA
HETATM    4  N2  UNK     1      -3.760  -1.394  -2.766  1.00  0.00    -0.191 NA
HETATM    5  C1  UNK     1      -0.534  -1.044  -1.269  1.00  0.00     0.109 C 
HETATM    6  C2  UNK     1       0.789  -0.314  -1.130  1.00  0.00     0.066 A 
HETATM    7  C4  UNK     1       0.895   0.979  -1.473  1.00  0.00     0.104 A 
HETATM    8  C5  UNK     1      -1.568  -0.223  -2.033  1.00  0.00     0.086 C 
HETATM    9  C6  UNK     1       2.155   1.701  -1.316  1.00  0.00     0.033 A 
HETATM   10  C7  UNK     1      -1.350   1.076  -2.341  1.00  0.00     0.159 C 
HETATM   11  C8  UNK     1       1.969  -1.070  -0.635  1.00  0.00     0.298 A 
HETATM   12  C10 UNK     1       3.253   1.008  -0.815  1.00  0.00     0.092 A 
HETATM   13  C13 UNK     1       2.318   3.054  -1.638  1.00  0.00     0.017 A 
HETATM   14  C16 UNK     1       4.493   1.619  -0.627  1.00  0.00     0.038 A 
HETATM   15  C17 UNK     1      -2.779  -0.870  -2.438  1.00  0.00     0.100 C 
HETATM   16  C18 UNK     1       3.555   3.681  -1.456  1.00  0.00     0.001 A 
HETATM   17  C20 UNK     1       4.641   2.965  -0.951  1.00  0.00     0.003 A 
ENDROOT
BRANCH   5  18
HETATM   18  C3  UNK     1      -1.070  -1.422   0.081  1.00  0.00    -0.043 A 
HETATM   19  C11 UNK     1      -1.248  -2.763   0.399  1.00  0.00     0.008 A 
HETATM   20  C14 UNK     1      -1.747  -3.115   1.653  1.00  0.00     0.001 A 
HETATM   21  C15 UNK     1      -2.063  -2.122   2.581  1.00  0.00     0.016 A 
HETATM   22  C12 UNK     1      -1.881  -0.778   2.255  1.00  0.00     0.048 A 
HETATM   23  C9  UNK     1      -1.382  -0.427   1.000  1.00  0.00     0.024 A 
BRANCH  22  24
HETATM   24  C19 UNK     1      -2.219   0.282   3.247  1.00  0.00     0.417 C 
HETATM   25  F1  UNK     1      -2.690  -0.227   4.416  1.00  0.00    -0.166 F 
HETATM   26  F2  UNK     1      -1.149   1.054   3.574  1.00  0.00    -0.166 F 
HETATM   27  F3  UNK     1      -3.175   1.122   2.773  1.00  0.00    -0.166 F 
ENDBRANCH  22  24
ENDBRANCH   5  18
BRANCH  10  28
HETATM   28  N1  UNK     1      -2.228   1.886  -3.007  1.00  0.00    -0.379 N 
HETATM   29  H10 UNK     1      -1.965   2.847  -3.188  1.00  0.00     0.158 HD
HETATM   30  H9  UNK     1      -3.127   1.539  -3.315  1.00  0.00     0.158 HD
ENDBRANCH  10  28
TORSDOF 3
