REMARK  10 active torsions:
REMARK  status: ('A' for Active; 'I' for Inactive)
REMARK    1  A    between atoms: C16_27  and  O2_2 
REMARK    2  A    between atoms: C2_13  and  O2_2 
REMARK    3  A    between atoms: C8_19  and  O4_4 
REMARK    4  A    between atoms: C11_22  and  O5_5 
REMARK    5  A    between atoms: C19_30  and  O5_5 
REMARK    6  A    between atoms: C12_23  and  O6_6 
REMARK    7  A    between atoms: C18_29  and  O6_6 
REMARK    8  A    between atoms: C15_26  and  O7_7 
REMARK    9  A    between atoms: C20_31  and  O7_7 
REMARK   10  A    between atoms: C1_12  and  C3_14 
ROOT
HETATM    1  O1  UNK     1       0.416   0.460  -1.013  1.00  0.00    -0.337 OA
HETATM    2  O3  UNK     1       2.125   3.365   1.327  1.00  0.00    -0.289 OA
HETATM    3  C1  UNK     1       0.476   0.326   0.416  1.00  0.00     0.199 C 
HETATM    4  C2  UNK     1       0.402   1.690   1.104  1.00  0.00     0.240 C 
HETATM    5  C4  UNK     1       1.557   2.540   0.621  1.00  0.00     0.197 C 
HETATM    6  C5  UNK     1       1.947   2.345  -0.789  1.00  0.00     0.079 A 
HETATM    7  C6  UNK     1       1.342   1.327  -1.529  1.00  0.00     0.089 A 
HETATM    8  C8  UNK     1       2.889   3.187  -1.385  1.00  0.00     0.085 A 
HETATM    9  C10 UNK     1       1.656   1.173  -2.880  1.00  0.00     0.075 A 
HETATM   10  C11 UNK     1       2.593   2.014  -3.479  1.00  0.00     0.084 A 
HETATM   11  C13 UNK     1       3.212   3.017  -2.732  1.00  0.00     0.075 A 
ENDROOT
BRANCH   3  12
HETATM   12  C3  UNK     1      -0.671  -0.576   0.831  1.00  0.00    -0.023 A 
HETATM   13  C7  UNK     1      -1.876  -0.541   0.129  1.00  0.00     0.050 A 
HETATM   14  C12 UNK     1      -2.930  -1.371   0.511  1.00  0.00     0.113 A 
HETATM   15  C15 UNK     1      -2.780  -2.236   1.595  1.00  0.00     0.113 A 
HETATM   16  C14 UNK     1      -1.575  -2.271   2.297  1.00  0.00     0.041 A 
HETATM   17  C9  UNK     1      -0.521  -1.441   1.915  1.00  0.00     0.013 A 
BRANCH  14  18
HETATM   18  O6  UNK     1      -4.102  -1.328  -0.183  1.00  0.00    -0.276 OA
BRANCH  18  19
HETATM   19  C18 UNK     1      -4.162  -2.223  -1.263  1.00  0.00     0.260 C 
HETATM   20  O9  UNK     1      -3.275  -2.995  -1.603  1.00  0.00    -0.265 OA
HETATM   21  C21 UNK     1      -5.485  -2.099  -1.959  1.00  0.00     0.126 C 
ENDBRANCH  18  19
ENDBRANCH  14  18
BRANCH  15  22
HETATM   22  O7  UNK     1      -3.802  -3.051   1.977  1.00  0.00    -0.276 OA
BRANCH  22  23
HETATM   23  C20 UNK     1      -4.665  -2.481   2.927  1.00  0.00     0.260 C 
HETATM   24  O11 UNK     1      -4.561  -1.360   3.407  1.00  0.00    -0.265 OA
HETATM   25  C23 UNK     1      -5.751  -3.452   3.281  1.00  0.00     0.126 C 
ENDBRANCH  22  23
ENDBRANCH  15  22
ENDBRANCH   3  12
BRANCH   4  26
HETATM   26  O2  UNK     1       0.522   1.537   2.507  1.00  0.00    -0.305 OA
BRANCH  26  27
HETATM   27  C16 UNK     1      -0.058   2.516   3.269  1.00  0.00     0.255 C 
HETATM   28  O8  UNK     1      -0.660   3.493   2.845  1.00  0.00    -0.266 OA
HETATM   29  C17 UNK     1       0.147   2.223   4.725  1.00  0.00     0.126 C 
ENDBRANCH  26  27
ENDBRANCH   4  26
BRANCH  10  30
HETATM   30  O5  UNK     1       2.905   1.857  -4.795  1.00  0.00    -0.279 OA
BRANCH  30  31
HETATM   31  C19 UNK     1       3.973   0.975  -5.029  1.00  0.00     0.260 C 
HETATM   32  O10 UNK     1       4.607   0.375  -4.171  1.00  0.00    -0.265 OA
HETATM   33  C22 UNK     1       4.239   0.870  -6.502  1.00  0.00     0.126 C 
ENDBRANCH  30  31
ENDBRANCH  10  30
BRANCH   8  34
HETATM   34  O4  UNK     1       3.510   4.194  -0.709  1.00  0.00    -0.360 OA
HETATM   35  H8  UNK     1       3.215   4.218   0.214  1.00  0.00     0.217 HD
ENDBRANCH   8  34
TORSDOF 10
