REMARK  3 active torsions:
REMARK  status: ('A' for Active; 'I' for Inactive)
REMARK    1  A    between atoms: C5_10  and  O2_3 
REMARK    2  A    between atoms: C8_13  and  O3_4 
REMARK    3  A    between atoms: C3_8  and  C6_11 
ROOT
HETATM    1  O1  UNK     1      -0.342   0.971   2.042  1.00  0.00    -0.321 OA
HETATM    2  O4  UNK     1      -0.486  -0.136  -1.882  1.00  0.00    -0.286 OA
HETATM    3  C1  UNK     1      -1.405  -0.311   0.278  1.00  0.00     0.082 A 
HETATM    4  C2  UNK     1      -1.314   0.109   1.604  1.00  0.00     0.094 A 
HETATM    5  C3  UNK     1       0.627   1.104  -0.181  1.00  0.00     0.048 A 
HETATM    6  C4  UNK     1      -0.423   0.186  -0.703  1.00  0.00     0.200 A 
HETATM    7  C5  UNK     1      -2.419  -1.191  -0.113  1.00  0.00     0.087 A 
HETATM    8  C7  UNK     1      -2.235  -0.347   2.547  1.00  0.00     0.075 A 
HETATM    9  C8  UNK     1      -3.247  -1.225   2.160  1.00  0.00     0.073 A 
HETATM   10  C9  UNK     1      -3.339  -1.646   0.833  1.00  0.00     0.074 A 
HETATM   11  C10 UNK     1       0.580   1.412   1.124  1.00  0.00     0.159 A 
ENDROOT
BRANCH   5  12
HETATM   12  C6  UNK     1       1.691   1.642  -1.045  1.00  0.00    -0.020 A 
HETATM   13  C11 UNK     1       2.886   0.939  -1.204  1.00  0.00     0.014 A 
HETATM   14  C13 UNK     1       3.894   1.449  -2.022  1.00  0.00     0.024 A 
HETATM   15  C15 UNK     1       3.709   2.664  -2.682  1.00  0.00     0.034 A 
HETATM   16  C14 UNK     1       2.516   3.369  -2.524  1.00  0.00     0.024 A 
HETATM   17 Cl1  UNK     1       4.953   3.294  -3.691  1.00  0.00    -0.084 Cl
HETATM   18  C12 UNK     1       1.507   2.858  -1.706  1.00  0.00     0.014 A 
ENDBRANCH   5  12
BRANCH   7  19
HETATM   19  O2  UNK     1      -2.556  -1.632  -1.394  1.00  0.00    -0.355 OA
HETATM   20  C16 UNK     1      -1.864  -2.830  -1.744  1.00  0.00     0.210 C 
ENDBRANCH   7  19
BRANCH   9  21
HETATM   21  O3  UNK     1      -4.146  -1.673   3.079  1.00  0.00    -0.356 OA
HETATM   22  C17 UNK     1      -3.994  -1.205   4.418  1.00  0.00     0.210 C 
ENDBRANCH   9  21
TORSDOF 3
