REMARK  1 active torsions:
REMARK  status: ('A' for Active; 'I' for Inactive)
REMARK    1  A    between atoms: C2_6  and  O2_2 
ROOT
HETATM    1  O1  UNK     1      -2.439  -0.918  -0.027  1.00  0.00    -0.338 OA
HETATM    2  O3  UNK     1       2.045   0.956   0.004  1.00  0.00    -0.274 OA
HETATM    3  O4  UNK     1       4.159   1.838  -0.047  1.00  0.00    -0.260 OA
HETATM    4  C1  UNK     1      -2.265  -1.429   1.309  1.00  0.00     0.086 C 
HETATM    5  C2  UNK     1      -1.413  -0.483   2.179  1.00  0.00     0.157 C 
HETATM    6  C3  UNK     1      -0.056  -0.200   1.541  1.00  0.00     0.079 C 
HETATM    7  C4  UNK     1      -0.190   0.036   0.062  1.00  0.00     0.013 A 
HETATM    8  C5  UNK     1      -1.353  -0.334  -0.622  1.00  0.00     0.079 A 
HETATM    9  C6  UNK     1      -3.685  -1.567   1.882  1.00  0.00     0.049 C 
HETATM   10  C7  UNK     1      -1.649  -2.837   1.221  1.00  0.00     0.049 C 
HETATM   11  C8  UNK     1       0.856   0.607  -0.678  1.00  0.00     0.098 A 
HETATM   12  C9  UNK     1      -1.472  -0.097  -1.996  1.00  0.00     0.038 A 
HETATM   13  C10 UNK     1       0.755   0.838  -2.049  1.00  0.00    -0.001 A 
HETATM   14  C11 UNK     1      -0.423   0.486  -2.708  1.00  0.00     0.017 A 
HETATM   15  C12 UNK     1       1.877   1.439  -2.751  1.00  0.00     0.020 A 
HETATM   16  C13 UNK     1       3.132   1.533  -0.644  1.00  0.00     0.288 A 
HETATM   17  C14 UNK     1       2.991   1.764  -2.092  1.00  0.00     0.083 A 
ENDROOT
BRANCH   5  18
HETATM   18  O2  UNK     1      -2.071   0.775   2.358  1.00  0.00    -0.392 OA
HETATM   19  H11 UNK     1      -1.534   1.304   2.972  1.00  0.00     0.210 HD
ENDBRANCH   5  18
TORSDOF 1
