REMARK  5 active torsions:
REMARK  status: ('A' for Active; 'I' for Inactive)
REMARK    1  A    between atoms: C4_10  and  N1_5 
REMARK    2  A    between atoms: C5_11  and  N1_5 
REMARK    3  A    between atoms: C14_20  and  N2_6 
REMARK    4  A    between atoms: C1_7  and  C2_8 
REMARK    5  A    between atoms: C3_9  and  C4_10 
ROOT
HETATM    1  O1  UNK     1       3.383   1.403  -2.526  1.00  0.00    -0.273 OA
HETATM    2  O2  UNK     1       2.238   1.088  -4.473  1.00  0.00    -0.257 OA
HETATM    3  C5  UNK     1       0.913   1.064  -1.109  1.00  0.00     0.081 A 
HETATM    4  C8  UNK     1       2.182   1.338  -0.387  1.00  0.00     0.027 A 
HETATM    5  C13 UNK     1       3.365   1.495  -1.119  1.00  0.00     0.092 A 
HETATM    6  C14 UNK     1       1.007   0.995  -2.448  1.00  0.00     0.205 A 
HETATM    7  C15 UNK     1       2.285   1.454   1.009  1.00  0.00     0.017 A 
HETATM    8  C16 UNK     1       2.228   1.160  -3.250  1.00  0.00     0.324 A 
HETATM    9  C17 UNK     1       4.599   1.752  -0.515  1.00  0.00     0.038 A 
HETATM   10  C18 UNK     1       3.515   1.713   1.629  1.00  0.00     0.001 A 
HETATM   11  C19 UNK     1       4.671   1.862   0.868  1.00  0.00     0.003 A 
ENDROOT
BRANCH   3  12
HETATM   12  N1  UNK     1      -0.230   0.907  -0.368  1.00  0.00    -0.383 N 
HETATM   13  H6  UNK     1      -1.123   0.904  -0.845  1.00  0.00     0.160 HD
BRANCH  12  14
HETATM   14  C4  UNK     1      -0.221   0.580   1.030  1.00  0.00     0.158 C 
BRANCH  14  15
HETATM   15  C3  UNK     1      -1.428  -0.242   1.387  1.00  0.00    -0.041 A 
HETATM   16  C10 UNK     1      -2.595   0.394   1.791  1.00  0.00     0.009 A 
HETATM   17  C7  UNK     1      -3.715  -0.368   2.122  1.00  0.00     0.008 A 
HETATM   18  C2  UNK     1      -3.659  -1.760   2.047  1.00  0.00    -0.055 A 
HETATM   19  C6  UNK     1      -2.483  -2.389   1.640  1.00  0.00     0.008 A 
HETATM   20  C9  UNK     1      -1.362  -1.627   1.309  1.00  0.00     0.009 A 
BRANCH  18  21
HETATM   21  C1  UNK     1      -4.857  -2.575   2.401  1.00  0.00     0.010 C 
HETATM   22  C12 UNK     1      -5.380  -3.401   1.211  1.00  0.00     0.015 C 
HETATM   23  C11 UNK     1      -4.604  -3.499   3.608  1.00  0.00     0.015 C 
ENDBRANCH  18  21
ENDBRANCH  14  15
ENDBRANCH  12  14
ENDBRANCH   3  12
BRANCH   6  24
HETATM   24  N2  UNK     1      -0.193   0.735  -3.178  1.00  0.00    -0.107 N 
HETATM   25  O3  UNK     1      -1.230   0.593  -2.520  1.00  0.00    -0.531 OA
HETATM   26  O4  UNK     1      -0.099   0.672  -4.408  1.00  0.00    -0.531 OA
ENDBRANCH   6  24
TORSDOF 5
