REMARK  2 active torsions:
REMARK  status: ('A' for Active; 'I' for Inactive)
REMARK       I    between atoms: C12_16  and  N1_4 
REMARK    1  A    between atoms: C8_12  and  N1_4 
REMARK    2  A    between atoms: C12_16  and  C5_9 
ROOT
HETATM    1  O1  UNK     1       0.679   0.486  -0.213  1.00  0.00    -0.304 OA
HETATM    2  O2  UNK     1       1.341   1.252  -4.163  1.00  0.00    -0.287 OA
HETATM    3  C1  UNK     1       2.143   1.368  -1.941  1.00  0.00     0.048 A 
HETATM    4  C2  UNK     1       1.852   1.079  -0.606  1.00  0.00     0.090 A 
HETATM    5  C3  UNK     1       3.353   1.974  -2.284  1.00  0.00     0.025 A 
HETATM    6  C4  UNK     1       4.273   2.289  -1.282  1.00  0.00    -0.061 A 
HETATM    7  C5  UNK     1      -0.241   0.168  -1.190  1.00  0.00     0.147 A 
HETATM    8  C6  UNK     1       1.153   1.025  -2.976  1.00  0.00     0.187 A 
HETATM    9  C7  UNK     1       2.773   1.395   0.392  1.00  0.00     0.039 A 
HETATM   10  C9  UNK     1      -0.093   0.388  -2.502  1.00  0.00     0.098 A 
HETATM   11  C10 UNK     1       3.984   2.000   0.052  1.00  0.00     0.009 A 
HETATM   12  C13 UNK     1       5.568   2.937  -1.639  1.00  0.00     0.048 C 
ENDROOT
BRANCH   7  13
HETATM   13  C12 UNK     1      -1.486  -0.464  -0.749  1.00  0.00     0.280 C 
HETATM   14  O3  UNK     1      -2.346  -0.768  -1.577  1.00  0.00    -0.265 OA
HETATM   15  N1  UNK     1      -1.528  -0.642   0.628  1.00  0.00    -0.321 N 
HETATM   16  H5  UNK     1      -0.718  -0.325   1.154  1.00  0.00     0.169 HD
BRANCH  15  17
HETATM   17  C8  UNK     1      -2.571  -1.215   1.396  1.00  0.00     0.041 A 
HETATM   18  C11 UNK     1      -2.461  -1.324   2.783  1.00  0.00    -0.035 A 
HETATM   19  C15 UNK     1      -3.499  -1.892   3.521  1.00  0.00     0.009 A 
HETATM   20  C16 UNK     1      -1.244  -0.841   3.503  1.00  0.00     0.050 C 
HETATM   21  C18 UNK     1      -4.646  -2.352   2.874  1.00  0.00     0.001 A 
HETATM   22  C17 UNK     1      -4.755  -2.243   1.488  1.00  0.00     0.002 A 
HETATM   23  C14 UNK     1      -3.718  -1.675   0.749  1.00  0.00     0.030 A 
ENDBRANCH  15  17
ENDBRANCH   7  13
TORSDOF 2
