REMARK  2 active torsions:
REMARK  status: ('A' for Active; 'I' for Inactive)
REMARK       I    between atoms: C10_15  and  N1_4 
REMARK    1  A    between atoms: N1_4  and  N2_5 
REMARK    2  A    between atoms: C10_15  and  C4_9 
ROOT
HETATM    1  O1  UNK     1      -0.371   0.310  -1.888  1.00  0.00    -0.274 OA
HETATM    2  O2  UNK     1      -2.395  -0.575  -1.306  1.00  0.00    -0.259 OA
HETATM    3  C1  UNK     1       1.294   0.734  -0.167  1.00  0.00    -0.001 A 
HETATM    4  C2  UNK     1       0.906   0.764  -1.503  1.00  0.00     0.089 A 
HETATM    5  C3  UNK     1       0.360   0.225   0.825  1.00  0.00     0.037 A 
HETATM    6  C4  UNK     1      -0.852  -0.205   0.454  1.00  0.00     0.109 A 
HETATM    7  C5  UNK     1       2.568   1.193   0.176  1.00  0.00     0.014 A 
HETATM    8  C6  UNK     1       1.752   1.240  -2.502  1.00  0.00     0.038 A 
HETATM    9  C7  UNK     1      -1.286  -0.182  -0.961  1.00  0.00     0.304 A 
HETATM   10  C8  UNK     1       3.428   1.673  -0.816  1.00  0.00     0.001 A 
HETATM   11  C9  UNK     1       3.021   1.696  -2.152  1.00  0.00     0.003 A 
ENDROOT
BRANCH   6  12
HETATM   12  C10 UNK     1      -1.722  -0.699   1.527  1.00  0.00     0.271 C 
HETATM   13  O3  UNK     1      -1.634  -0.249   2.669  1.00  0.00    -0.266 OA
HETATM   14  N1  UNK     1      -2.595  -1.678   1.096  1.00  0.00    -0.289 N 
HETATM   15  H6  UNK     1      -2.611  -2.035   0.146  1.00  0.00     0.183 HD
BRANCH  14  16
HETATM   16  N2  UNK     1      -3.477  -2.237   2.000  1.00  0.00    -0.247 NA
HETATM   17  H7  UNK     1      -3.303  -3.242   1.998  1.00  0.00     0.143 HD
HETATM   18  H8  UNK     1      -4.412  -2.113   1.615  1.00  0.00     0.143 HD
ENDBRANCH  14  16
ENDBRANCH   6  12
TORSDOF 2
