REMARK  4 active torsions:
REMARK  status: ('A' for Active; 'I' for Inactive)
REMARK    1  A    between atoms: C5_9  and  N1_3 
REMARK    2  A    between atoms: C6_10  and  N2_4 
REMARK    3  A    between atoms: C5_9  and  C7_11 
REMARK    4  A    between atoms: C6_10  and  C8_12 
ROOT
HETATM    1  N1  UNK     1       0.067  -0.478   0.211  1.00  0.00     0.096 N 
HETATM    2  N2  UNK     1       1.873   1.626  -0.610  1.00  0.00     0.096 N 
HETATM    3  C1  UNK     1       0.798   0.328   1.198  1.00  0.00     0.303 C 
HETATM    4  C2  UNK     1       0.832  -0.574  -1.038  1.00  0.00     0.303 C 
HETATM    5  C3  UNK     1       1.110   1.721   0.640  1.00  0.00     0.303 C 
HETATM    6  C4  UNK     1       1.143   0.819  -1.596  1.00  0.00     0.303 C 
ENDROOT
BRANCH   1   7
HETATM    7  C5  UNK     1      -0.228  -1.806   0.743  1.00  0.00     0.312 C 
BRANCH   7   8
HETATM    8  C7  UNK     1      -1.418  -1.650   1.620  1.00  0.00    -0.011 A 
HETATM    9  C10 UNK     1      -1.285  -1.372   2.925  1.00  0.00     0.092 A 
HETATM   10  C15 UNK     1      -2.434  -1.208   3.832  1.00  0.00     0.288 A 
HETATM   11  O1  UNK     1      -3.694  -1.356   3.275  1.00  0.00    -0.275 OA
HETATM   12  O2  UNK     1      -2.273  -0.953   5.021  1.00  0.00    -0.260 OA
HETATM   13  C11 UNK     1      -3.865  -1.648   1.907  1.00  0.00     0.090 A 
HETATM   14  C9  UNK     1      -2.768  -1.801   1.059  1.00  0.00     0.006 A 
HETATM   15  C16 UNK     1      -5.180  -1.775   1.455  1.00  0.00     0.045 A 
HETATM   16  C14 UNK     1      -3.022  -2.092  -0.288  1.00  0.00     0.015 A 
HETATM   17  C21 UNK     1      -4.335  -2.222  -0.756  1.00  0.00     0.007 A 
HETATM   18  C20 UNK     1      -5.412  -2.064   0.114  1.00  0.00    -0.059 A 
HETATM   19  C23 UNK     1      -6.808  -2.206  -0.391  1.00  0.00     0.048 C 
ENDBRANCH   7   8
ENDBRANCH   1   7
BRANCH   2  20
HETATM   20  C6  UNK     1       2.167   2.955  -1.142  1.00  0.00     0.311 C 
BRANCH  20  21
HETATM   21  C8  UNK     1       3.317   2.869  -2.099  1.00  0.00    -0.030 A 
HETATM   22  C12 UNK     1       4.448   2.125  -1.765  1.00  0.00     0.009 A 
HETATM   23  C17 UNK     1       5.519   2.046  -2.655  1.00  0.00     0.007 A 
HETATM   24  C19 UNK     1       5.459   2.712  -3.879  1.00  0.00    -0.062 A 
HETATM   25  C18 UNK     1       4.327   3.457  -4.213  1.00  0.00     0.007 A 
HETATM   26  C22 UNK     1       6.603   2.628  -4.831  1.00  0.00     0.048 C 
HETATM   27  C13 UNK     1       3.257   3.535  -3.323  1.00  0.00     0.009 A 
ENDBRANCH  20  21
ENDBRANCH   2  20
TORSDOF 4
