REMARK  11 active torsions:
REMARK  status: ('A' for Active; 'I' for Inactive)
REMARK    1  A    between atoms: C5_16  and  O2_2 
REMARK    2  A    between atoms: C7_18  and  O2_2 
REMARK    3  A    between atoms: C1_12  and  O3_3 
REMARK    4  A    between atoms: C2_13  and  O4_4 
REMARK    5  A    between atoms: C3_14  and  O5_5 
REMARK    6  A    between atoms: C6_17  and  O6_6 
REMARK    7  A    between atoms: C12_23  and  O8_8 
REMARK    8  A    between atoms: C19_30  and  O10_10 
REMARK    9  A    between atoms: C21_32  and  O11_11 
REMARK   10  A    between atoms: C4_15  and  C6_17 
REMARK   11  A    between atoms: C14_25  and  C16_27 
ROOT
HETATM    1  O7  UNK     1      -1.131   0.009   1.156  1.00  0.00    -0.309 OA
HETATM    2  O9  UNK     1      -1.096   2.057   4.677  1.00  0.00    -0.287 OA
HETATM    3  C7  UNK     1       1.805   2.086   0.570  1.00  0.00     0.077 A 
HETATM    4  C8  UNK     1       0.789   1.147   0.388  1.00  0.00     0.075 A 
HETATM    5  C9  UNK     1       1.875   2.821   1.755  1.00  0.00     0.074 A 
HETATM    6  C10 UNK     1      -0.156   0.944   1.393  1.00  0.00     0.095 A 
HETATM    7  C11 UNK     1      -0.085   1.679   2.575  1.00  0.00     0.081 A 
HETATM    8  C12 UNK     1       0.930   2.620   2.762  1.00  0.00     0.085 A 
HETATM    9  C13 UNK     1      -1.096   1.446   3.618  1.00  0.00     0.190 A 
HETATM   10  C14 UNK     1      -2.081  -0.220   2.140  1.00  0.00     0.090 A 
HETATM   11  C15 UNK     1      -2.122   0.428   3.315  1.00  0.00     0.094 A 
ENDROOT
BRANCH   3  12
HETATM   12  O2  UNK     1       2.731   2.286  -0.411  1.00  0.00    -0.318 OA
BRANCH  12  13
HETATM   13  C5  UNK     1       2.302   2.066  -1.751  1.00  0.00     0.298 C 
HETATM   14  C3  UNK     1       3.099   2.983  -2.678  1.00  0.00     0.205 C 
HETATM   15  C1  UNK     1       2.673   2.752  -4.127  1.00  0.00     0.183 C 
HETATM   16  C2  UNK     1       2.758   1.267  -4.490  1.00  0.00     0.180 C 
HETATM   17  C4  UNK     1       2.022   0.417  -3.445  1.00  0.00     0.179 C 
HETATM   18  O1  UNK     1       2.502   0.701  -2.126  1.00  0.00    -0.348 OA
BRANCH  14  19
HETATM   19  O5  UNK     1       4.488   2.672  -2.530  1.00  0.00    -0.388 OA
HETATM   20  H10 UNK     1       4.592   1.707  -2.584  1.00  0.00     0.210 HD
ENDBRANCH  14  19
BRANCH  15  21
HETATM   21  O3  UNK     1       3.508   3.498  -5.008  1.00  0.00    -0.390 OA
HETATM   22  H8  UNK     1       3.218   3.307  -5.916  1.00  0.00     0.210 HD
ENDBRANCH  15  21
BRANCH  16  23
HETATM   23  O4  UNK     1       2.161   1.057  -5.767  1.00  0.00    -0.390 OA
HETATM   24  H9  UNK     1       1.227   1.321  -5.710  1.00  0.00     0.210 HD
ENDBRANCH  16  23
BRANCH  17  25
HETATM   25  C6  UNK     1       2.222  -1.075  -3.694  1.00  0.00     0.198 C 
BRANCH  25  26
HETATM   26  O6  UNK     1       1.529  -1.796  -2.692  1.00  0.00    -0.398 OA
HETATM   27  H11 UNK     1       1.880  -1.515  -1.830  1.00  0.00     0.209 HD
ENDBRANCH  25  26
ENDBRANCH  17  25
ENDBRANCH  12  13
ENDBRANCH   3  12
BRANCH   8  28
HETATM   28  O8  UNK     1       1.041   3.365   3.897  1.00  0.00    -0.360 OA
HETATM   29  H15 UNK     1       0.334   3.140   4.522  1.00  0.00     0.217 HD
ENDBRANCH   8  28
BRANCH  10  30
HETATM   30  C16 UNK     1      -3.085  -1.241   1.779  1.00  0.00     0.001 A 
HETATM   31  C17 UNK     1      -3.431  -1.443   0.441  1.00  0.00     0.054 A 
HETATM   32  C19 UNK     1      -4.380  -2.407   0.101  1.00  0.00     0.102 A 
HETATM   33  C21 UNK     1      -4.986  -3.172   1.098  1.00  0.00     0.099 A 
HETATM   34  C20 UNK     1      -4.642  -2.973   2.435  1.00  0.00     0.040 A 
HETATM   35  C18 UNK     1      -3.693  -2.009   2.775  1.00  0.00     0.017 A 
BRANCH  32  36
HETATM   36  O10 UNK     1      -4.707  -2.593  -1.208  1.00  0.00    -0.353 OA
HETATM   37  C22 UNK     1      -3.941  -3.550  -1.938  1.00  0.00     0.210 C 
ENDBRANCH  32  36
BRANCH  33  38
HETATM   38  O11 UNK     1      -5.913  -4.118   0.779  1.00  0.00    -0.358 OA
HETATM   39  H19 UNK     1      -6.222  -4.547   1.595  1.00  0.00     0.217 HD
ENDBRANCH  33  38
ENDBRANCH  10  30
TORSDOF 11
