REMARK  5 active torsions:
REMARK  status: ('A' for Active; 'I' for Inactive)
REMARK    1  A    between atoms: C16_19  and  O1_1 
REMARK    2  A    between atoms: C18_21  and  O2_2 
REMARK    3  A    between atoms: C10_13  and  C3_6 
REMARK    4  A    between atoms: C14_17  and  C9_12 
REMARK    5  A    between atoms: C10_13  and  C15_18 
ROOT
HETATM    1  O3  UNK     1      -0.145   0.463   2.536  1.00  0.00    -0.288 OA
HETATM    2  C10 UNK     1      -0.595   0.111   1.434  1.00  0.00     0.182 C 
ENDROOT
BRANCH   2   3
HETATM    3  C3  UNK     1      -1.882  -0.558   1.333  1.00  0.00     0.015 A 
HETATM    4  C4  UNK     1      -2.326  -1.377   2.370  1.00  0.00     0.027 A 
HETATM    5  C1  UNK     1      -3.567  -2.030   2.288  1.00  0.00    -0.025 A 
HETATM    6  C2  UNK     1      -4.369  -1.847   1.136  1.00  0.00    -0.026 A 
HETATM    7  C7  UNK     1      -4.030  -2.859   3.322  1.00  0.00     0.012 A 
HETATM    8  C5  UNK     1      -3.907  -1.018   0.101  1.00  0.00     0.013 A 
HETATM    9  C8  UNK     1      -5.610  -2.499   1.053  1.00  0.00     0.012 A 
HETATM   10  C6  UNK     1      -2.671  -0.378   0.200  1.00  0.00     0.016 A 
HETATM   11  C12 UNK     1      -6.054  -3.319   2.090  1.00  0.00     0.001 A 
HETATM   12  C11 UNK     1      -5.265  -3.499   3.223  1.00  0.00     0.001 A 
ENDBRANCH   2   3
BRANCH   2  13
HETATM   13  C15 UNK     1       0.170   0.397   0.172  1.00  0.00     0.056 C 
HETATM   14  C14 UNK     1       1.348   1.036   0.217  1.00  0.00     0.015 C 
BRANCH  14  15
HETATM   15  C9  UNK     1       2.161   1.373  -0.965  1.00  0.00    -0.033 A 
HETATM   16  C13 UNK     1       3.511   1.643  -0.805  1.00  0.00     0.051 A 
HETATM   17  C16 UNK     1       4.281   1.961  -1.924  1.00  0.00     0.102 A 
HETATM   18  C18 UNK     1       3.691   2.005  -3.187  1.00  0.00     0.101 A 
HETATM   19  C19 UNK     1       2.331   1.731  -3.331  1.00  0.00     0.040 A 
HETATM   20  C17 UNK     1       1.561   1.412  -2.212  1.00  0.00     0.014 A 
BRANCH  17  21
HETATM   21  O1  UNK     1       5.608   2.228  -1.771  1.00  0.00    -0.353 OA
HETATM   22  C20 UNK     1       5.972   3.586  -1.530  1.00  0.00     0.210 C 
ENDBRANCH  17  21
BRANCH  18  23
HETATM   23  O2  UNK     1       4.432   2.313  -4.287  1.00  0.00    -0.353 OA
HETATM   24  C21 UNK     1       3.753   2.337  -5.541  1.00  0.00     0.210 C 
ENDBRANCH  18  23
ENDBRANCH  14  15
ENDBRANCH   2  13
TORSDOF 5
