REMARK  3 active torsions:
REMARK  status: ('A' for Active; 'I' for Inactive)
REMARK    1  A    between atoms: C13_16  and  O2_2 
REMARK    2  A    between atoms: C1_4  and  C2_5 
REMARK    3  A    between atoms: C3_6  and  C4_7 
ROOT
HETATM    1  O1  UNK     1      -0.694   0.517   0.980  1.00  0.00    -0.306 OA
HETATM    2  O3  UNK     1      -2.830  -2.373  -0.940  1.00  0.00    -0.284 OA
HETATM    3  C4  UNK     1      -0.434   0.181  -0.339  1.00  0.00     0.123 A 
HETATM    4  C9  UNK     1      -2.474  -1.132   1.033  1.00  0.00     0.051 A 
HETATM    5  C12 UNK     1      -1.706  -0.137   1.634  1.00  0.00     0.090 A 
HETATM    6  C13 UNK     1      -1.094  -0.765  -1.030  1.00  0.00     0.152 A 
HETATM    7  C14 UNK     1      -2.193  -1.503  -0.362  1.00  0.00     0.220 A 
HETATM    8  C15 UNK     1      -3.493  -1.765   1.749  1.00  0.00     0.025 A 
HETATM    9  C16 UNK     1      -3.738  -1.394   3.072  1.00  0.00    -0.061 A 
HETATM   10  C17 UNK     1      -1.952   0.232   2.957  1.00  0.00     0.039 A 
HETATM   11  C18 UNK     1      -2.969  -0.398   3.675  1.00  0.00     0.009 A 
HETATM   12  C19 UNK     1      -4.824  -2.065   3.843  1.00  0.00     0.048 C 
ENDROOT
BRANCH   3  13
HETATM   13  C3  UNK     1       0.675   0.958  -0.922  1.00  0.00     0.001 A 
HETATM   14  C10 UNK     1       0.414   2.157  -1.585  1.00  0.00     0.015 A 
HETATM   15  C5  UNK     1       1.463   2.891  -2.138  1.00  0.00     0.008 A 
HETATM   16  C2  UNK     1       2.774   2.427  -2.027  1.00  0.00    -0.055 A 
HETATM   17  C6  UNK     1       3.035   1.228  -1.364  1.00  0.00     0.008 A 
HETATM   18  C11 UNK     1       1.986   0.494  -0.811  1.00  0.00     0.015 A 
BRANCH  16  19
HETATM   19  C1  UNK     1       3.895   3.213  -2.618  1.00  0.00     0.010 C 
HETATM   20  C7  UNK     1       4.638   2.438  -3.724  1.00  0.00     0.015 C 
HETATM   21  C8  UNK     1       4.900   3.697  -1.556  1.00  0.00     0.015 C 
ENDBRANCH  16  19
ENDBRANCH   3  13
BRANCH   6  22
HETATM   22  O2  UNK     1      -0.788  -1.097  -2.332  1.00  0.00    -0.355 OA
HETATM   23  H18 UNK     1      -0.053  -0.547  -2.649  1.00  0.00     0.218 HD
ENDBRANCH   6  22
TORSDOF 3
