REMARK  5 active torsions:
REMARK  status: ('A' for Active; 'I' for Inactive)
REMARK    1  A    between atoms: C10_14  and  O2_2 
REMARK    2  A    between atoms: C13_17  and  O2_2 
REMARK    3  A    between atoms: C3_7  and  C5_9 
REMARK    4  A    between atoms: C13_17  and  C14_18 
REMARK    5  A    between atoms: C14_18  and  C15_19 
ROOT
HETATM    1  O1  UNK     1      -2.429  -1.391  -0.411  1.00  0.00    -0.274 OA
HETATM    2  O3  UNK     1      -4.512  -2.125  -0.933  1.00  0.00    -0.259 OA
HETATM    3  C1  UNK     1      -3.257  -1.134   2.284  1.00  0.00    -0.037 A 
HETATM    4  C2  UNK     1      -1.880  -0.780   1.879  1.00  0.00     0.005 A 
HETATM    5  C3  UNK     1      -4.137  -1.551   1.349  1.00  0.00     0.024 A 
HETATM    6  C4  UNK     1      -1.514  -0.923   0.545  1.00  0.00     0.092 A 
HETATM    7  C6  UNK     1      -0.904  -0.292   2.762  1.00  0.00     0.017 A 
HETATM    8  C7  UNK     1      -3.733  -1.714  -0.078  1.00  0.00     0.295 A 
HETATM    9  C8  UNK     1      -3.588  -1.018   3.752  1.00  0.00     0.050 C 
HETATM   10  C9  UNK     1      -0.234  -0.611   0.078  1.00  0.00     0.075 A 
HETATM   11  C10 UNK     1       0.719  -0.135   0.972  1.00  0.00     0.072 A 
HETATM   12  C11 UNK     1       0.383   0.026   2.313  1.00  0.00     0.038 A 
ENDROOT
BRANCH  11  13
HETATM   13  O2  UNK     1       1.970   0.175   0.538  1.00  0.00    -0.344 OA
BRANCH  13  14
HETATM   14  C13 UNK     1       2.098   0.625  -0.811  1.00  0.00     0.259 C 
BRANCH  14  15
HETATM   15  C14 UNK     1       3.278   1.569  -0.934  1.00  0.00     0.183 C 
HETATM   16  O4  UNK     1       3.958   1.882   0.041  1.00  0.00    -0.290 OA
BRANCH  15  17
HETATM   17  C15 UNK     1       3.614   2.127  -2.275  1.00  0.00     0.012 A 
HETATM   18  C16 UNK     1       2.839   1.765  -3.354  1.00  0.00     0.015 A 
HETATM   19  C18 UNK     1       3.152   2.289  -4.609  1.00  0.00     0.001 A 
HETATM   20  C20 UNK     1       4.232   3.161  -4.750  1.00  0.00     0.000 A 
HETATM   21  C19 UNK     1       4.999   3.508  -3.638  1.00  0.00     0.001 A 
HETATM   22  C17 UNK     1       4.685   2.984  -2.384  1.00  0.00     0.015 A 
ENDBRANCH  15  17
ENDBRANCH  14  15
ENDBRANCH  13  14
ENDBRANCH  11  13
BRANCH   5  23
HETATM   23  C5  UNK     1      -5.583  -1.882   1.613  1.00  0.00     0.041 C 
HETATM   24  C12 UNK     1      -5.759  -3.341   1.973  1.00  0.00     0.010 C 
ENDBRANCH   5  23
TORSDOF 5
