REMARK  6 active torsions:
REMARK  status: ('A' for Active; 'I' for Inactive)
REMARK    1  A    between atoms: C13_20  and  O2_3 
REMARK       I    between atoms: C10_17  and  N1_7 
REMARK    2  A    between atoms: C4_11  and  N1_7 
REMARK    3  A    between atoms: C1_8  and  C2_9 
REMARK    4  A    between atoms: C1_8  and  C3_10 
REMARK    5  A    between atoms: C13_20  and  C5_12 
REMARK    6  A    between atoms: C10_17  and  C8_15 
ROOT
HETATM    1  O3  UNK     1       1.040   0.435   1.666  1.00  0.00    -0.267 OA
HETATM    2  N1  UNK     1      -0.468  -0.142  -0.054  1.00  0.00    -0.316 N 
HETATM    3  C10 UNK     1       0.676   0.423   0.491  1.00  0.00     0.262 C 
HETATM    4  H6  UNK     1      -0.625  -0.088  -1.057  1.00  0.00     0.169 HD
ENDROOT
BRANCH   2   5
HETATM    5  C4  UNK     1      -1.463  -0.830   0.647  1.00  0.00     0.093 A 
HETATM    6  S1  UNK     1      -1.220  -0.971   2.323  1.00  0.00    -0.076 SA
HETATM    7  C2  UNK     1      -2.686  -1.840   2.490  1.00  0.00    -0.014 A 
HETATM    8  C6  UNK     1      -3.328  -2.007   1.283  1.00  0.00     0.035 A 
HETATM    9  C5  UNK     1      -2.608  -1.413   0.207  1.00  0.00     0.074 A 
BRANCH   7  10
HETATM   10  C1  UNK     1      -3.106  -2.307   3.829  1.00  0.00     0.046 C 
BRANCH  10  11
HETATM   11  C3  UNK     1      -3.976  -1.273   4.568  1.00  0.00     0.001 C 
HETATM   12  C7  UNK     1      -4.438  -1.769   5.929  1.00  0.00     0.005 C 
ENDBRANCH  10  11
ENDBRANCH   7  10
BRANCH   9  13
HETATM   13  C13 UNK     1      -3.026  -1.423  -1.172  1.00  0.00     0.295 C 
HETATM   14  O4  UNK     1      -2.384  -0.899  -2.094  1.00  0.00    -0.259 OA
BRANCH  13  15
HETATM   15  O2  UNK     1      -4.223  -2.072  -1.389  1.00  0.00    -0.322 OA
HETATM   16  C19 UNK     1      -4.699  -2.119  -2.739  1.00  0.00     0.213 C 
ENDBRANCH  13  15
ENDBRANCH   9  13
ENDBRANCH   2   5
BRANCH   3  17
HETATM   17  C8  UNK     1       1.507   1.072  -0.530  1.00  0.00     0.108 A 
HETATM   18  C11 UNK     1       2.824   1.090  -0.297  1.00  0.00     0.037 A 
HETATM   19  C9  UNK     1       3.729   1.711  -1.252  1.00  0.00    -0.001 A 
HETATM   20  C12 UNK     1       3.202   2.283  -2.405  1.00  0.00     0.089 A 
HETATM   21  C15 UNK     1       5.111   1.752  -1.050  1.00  0.00     0.014 A 
HETATM   22  O1  UNK     1       1.814   2.261  -2.645  1.00  0.00    -0.274 OA
HETATM   23  C16 UNK     1       4.015   2.893  -3.359  1.00  0.00     0.038 A 
HETATM   24  C14 UNK     1       0.924   1.674  -1.750  1.00  0.00     0.304 A 
HETATM   25  O5  UNK     1      -0.283   1.661  -1.967  1.00  0.00    -0.259 OA
HETATM   26  C18 UNK     1       5.391   2.930  -3.149  1.00  0.00     0.003 A 
HETATM   27  C17 UNK     1       5.939   2.361  -1.998  1.00  0.00     0.001 A 
ENDBRANCH   3  17
TORSDOF 6
