REMARK  5 active torsions:
REMARK  status: ('A' for Active; 'I' for Inactive)
REMARK    1  A    between atoms: C1_10  and  O1_3 
REMARK    2  A    between atoms: C12_21  and  O1_3 
REMARK       I    between atoms: C6_15  and  N1_8 
REMARK    3  A    between atoms: N1_8  and  N2_9 
REMARK       I    between atoms: C9_18  and  N2_9 
REMARK    4  A    between atoms: C1_10  and  C6_15 
REMARK    5  A    between atoms: C4_13  and  C9_18 
ROOT
HETATM    1  O4  UNK     1       2.026  -0.797   0.331  1.00  0.00    -0.266 OA
HETATM    2  N2  UNK     1       0.181   0.622   0.265  1.00  0.00    -0.263 N 
HETATM    3  C9  UNK     1       1.431   0.181  -0.116  1.00  0.00     0.276 C 
HETATM    4  H9  UNK     1      -0.267   1.457  -0.098  1.00  0.00     0.190 HD
ENDROOT
BRANCH   2   5
HETATM    5  N1  UNK     1      -0.503  -0.068   1.235  1.00  0.00    -0.265 N 
HETATM    6  C6  UNK     1      -1.885  -0.067   1.210  1.00  0.00     0.265 C 
HETATM    7  O3  UNK     1      -2.578   0.511   0.375  1.00  0.00    -0.269 OA
HETATM    8  H8  UNK     1       0.050  -0.567   1.923  1.00  0.00     0.190 HD
BRANCH   6   9
HETATM    9  C1  UNK     1      -2.484  -0.896   2.337  1.00  0.00     0.218 C 
HETATM   10  C7  UNK     1      -2.120  -0.318   3.696  1.00  0.00     0.050 C 
BRANCH   9  11
HETATM   11  O1  UNK     1      -3.896  -0.896   2.218  1.00  0.00    -0.335 OA
BRANCH  11  12
HETATM   12  C12 UNK     1      -4.505  -2.113   2.040  1.00  0.00     0.087 A 
HETATM   13  C15 UNK     1      -5.442  -2.588   2.951  1.00  0.00     0.044 A 
HETATM   14 Br2  UNK     1      -5.928  -1.585   4.484  1.00  0.00    -0.048 Br
HETATM   15  C17 UNK     1      -6.043  -3.829   2.741  1.00  0.00     0.022 A 
HETATM   16  C19 UNK     1      -5.703  -4.587   1.621  1.00  0.00     0.002 A 
HETATM   17  C18 UNK     1      -4.762  -4.105   0.711  1.00  0.00     0.003 A 
HETATM   18  C16 UNK     1      -4.161  -2.864   0.921  1.00  0.00     0.038 A 
ENDBRANCH  11  12
ENDBRANCH   9  11
ENDBRANCH   6   9
ENDBRANCH   2   5
BRANCH   3  19
HETATM   19  C4  UNK     1       2.032   1.020  -1.159  1.00  0.00     0.110 A 
HETATM   20  C10 UNK     1       1.211   1.743  -2.156  1.00  0.00     0.304 A 
HETATM   21  O2  UNK     1       1.897   2.506  -3.097  1.00  0.00    -0.274 OA
HETATM   22  O5  UNK     1      -0.014   1.675  -2.158  1.00  0.00    -0.259 OA
HETATM   23  C3  UNK     1       3.303   2.590  -3.103  1.00  0.00     0.089 A 
HETATM   24  C11 UNK     1       3.900   3.381  -4.083  1.00  0.00     0.039 A 
HETATM   25  C2  UNK     1       4.056   1.903  -2.157  1.00  0.00     0.000 A 
HETATM   26  C14 UNK     1       5.289   3.483  -4.114  1.00  0.00     0.022 A 
HETATM   27  C13 UNK     1       6.062   2.800  -3.173  1.00  0.00     0.011 A 
HETATM   28 Br1  UNK     1       7.947   2.943  -3.221  1.00  0.00    -0.051 Br
HETATM   29  C8  UNK     1       5.449   2.011  -2.195  1.00  0.00     0.033 A 
HETATM   30  C5  UNK     1       3.369   1.096  -1.161  1.00  0.00     0.037 A 
ENDBRANCH   3  19
TORSDOF 5
