REMARK  6 active torsions:
REMARK  status: ('A' for Active; 'I' for Inactive)
REMARK    1  A    between atoms: C2_7  and  O1_3 
REMARK    2  A    between atoms: C5_10  and  O1_3 
REMARK    3  A    between atoms: C3_8  and  O2_4 
REMARK    4  A    between atoms: C1_6  and  C9_14 
REMARK    5  A    between atoms: C5_10  and  C8_13 
REMARK    6  A    between atoms: C10_15  and  C11_16 
ROOT
HETATM    1  N1  UNK     1      -2.909   1.581   0.671  1.00  0.00    -0.191 NA
HETATM    2  C9  UNK     1      -1.444  -1.531   0.918  1.00  0.00     0.036 C 
HETATM    3  C10 UNK     1      -2.628  -0.942   1.234  1.00  0.00     0.055 C 
HETATM    4  C23 UNK     1      -2.774   0.455   0.918  1.00  0.00     0.100 C 
ENDROOT
BRANCH   3   5
HETATM    5  C11 UNK     1      -3.740  -1.642   1.857  1.00  0.00    -0.015 A 
HETATM    6  C14 UNK     1      -4.702  -2.269   1.065  1.00  0.00     0.014 A 
HETATM    7  C19 UNK     1      -5.768  -2.941   1.663  1.00  0.00     0.020 A 
HETATM    8  C21 UNK     1      -5.872  -2.986   3.053  1.00  0.00     0.011 A 
HETATM    9 Br2  UNK     1      -7.317  -3.896   3.864  1.00  0.00    -0.051 Br
HETATM   10  C20 UNK     1      -4.911  -2.359   3.845  1.00  0.00     0.020 A 
HETATM   11  C15 UNK     1      -3.844  -1.687   3.247  1.00  0.00     0.014 A 
ENDBRANCH   3   5
BRANCH   2  12
HETATM   12  C1  UNK     1      -0.298  -0.864   0.282  1.00  0.00    -0.015 A 
HETATM   13  C4  UNK     1      -0.244  -0.884  -1.106  1.00  0.00     0.052 A 
HETATM   14  C3  UNK     1       0.821  -0.267  -1.762  1.00  0.00     0.102 A 
HETATM   15  C2  UNK     1       1.823   0.364  -1.025  1.00  0.00     0.103 A 
HETATM   16  C7  UNK     1       1.760   0.379   0.368  1.00  0.00     0.059 A 
HETATM   17  C6  UNK     1       0.694  -0.238   1.024  1.00  0.00     0.024 A 
HETATM   18 Br1  UNK     1       0.669  -0.181   2.924  1.00  0.00    -0.050 Br
BRANCH  14  19
HETATM   19  O2  UNK     1       0.872  -0.288  -3.123  1.00  0.00    -0.353 OA
HETATM   20  C22 UNK     1       0.240   0.790  -3.812  1.00  0.00     0.210 C 
ENDBRANCH  14  19
BRANCH  15  21
HETATM   21  O1  UNK     1       2.868   0.970  -1.655  1.00  0.00    -0.344 OA
BRANCH  21  22
HETATM   22  C5  UNK     1       3.039   2.368  -1.427  1.00  0.00     0.214 C 
BRANCH  22  23
HETATM   23  C8  UNK     1       4.213   2.854  -2.225  1.00  0.00    -0.034 A 
HETATM   24  C12 UNK     1       5.484   2.835  -1.661  1.00  0.00     0.009 A 
HETATM   25  C16 UNK     1       6.576   3.287  -2.403  1.00  0.00     0.001 A 
HETATM   26  C18 UNK     1       6.389   3.754  -3.704  1.00  0.00     0.000 A 
HETATM   27  C17 UNK     1       5.112   3.770  -4.263  1.00  0.00     0.001 A 
HETATM   28  C13 UNK     1       4.020   3.318  -3.522  1.00  0.00     0.009 A 
ENDBRANCH  22  23
ENDBRANCH  21  22
ENDBRANCH  15  21
ENDBRANCH   2  12
TORSDOF 6
