REMARK  6 active torsions:
REMARK  status: ('A' for Active; 'I' for Inactive)
REMARK    1  A    between atoms: C13_18  and  O2_2 
REMARK       I    between atoms: C11_16  and  N1_5 
REMARK    2  A    between atoms: C12_17  and  N1_5 
REMARK    3  A    between atoms: C3_8  and  C6_11 
REMARK    4  A    between atoms: C11_16  and  C5_10 
REMARK    5  A    between atoms: C14_19  and  C6_11 
REMARK    6  A    between atoms: C12_17  and  C13_18 
ROOT
HETATM    1  O1  UNK     1      -0.354  -0.466   1.017  1.00  0.00    -0.273 OA
HETATM    2  O3  UNK     1       1.604   0.637   0.605  1.00  0.00    -0.259 OA
HETATM    3  C1  UNK     1      -1.594  -0.942   0.550  1.00  0.00     0.096 A 
HETATM    4  C2  UNK     1      -1.979  -0.734  -0.770  1.00  0.00    -0.000 A 
HETATM    5  C3  UNK     1      -2.408  -1.623   1.453  1.00  0.00    -0.020 A 
HETATM    6  C4  UNK     1      -1.081  -0.015  -1.661  1.00  0.00     0.037 A 
HETATM    7  C5  UNK     1       0.096   0.436  -1.211  1.00  0.00     0.108 A 
HETATM    8  C7  UNK     1      -3.217  -1.222  -1.197  1.00  0.00     0.014 A 
HETATM    9  C8  UNK     1      -3.641  -2.106   1.020  1.00  0.00     0.010 A 
HETATM   10  C9  UNK     1      -4.045  -1.907  -0.302  1.00  0.00     0.002 A 
HETATM   11  C10 UNK     1       0.527   0.225   0.189  1.00  0.00     0.304 A 
ENDROOT
BRANCH   7  12
HETATM   12  C11 UNK     1       0.933   1.149  -2.184  1.00  0.00     0.257 C 
HETATM   13  O4  UNK     1       0.882   0.874  -3.382  1.00  0.00    -0.267 OA
HETATM   14  N1  UNK     1       1.737   2.110  -1.600  1.00  0.00    -0.355 N 
HETATM   15  H9  UNK     1       1.692   2.276  -0.599  1.00  0.00     0.162 HD
BRANCH  14  16
HETATM   16  C12 UNK     1       2.649   2.939  -2.355  1.00  0.00     0.149 C 
BRANCH  16  17
HETATM   17  C13 UNK     1       4.020   2.298  -2.469  1.00  0.00     0.186 C 
BRANCH  17  18
HETATM   18  O2  UNK     1       4.575   2.136  -1.170  1.00  0.00    -0.394 OA
HETATM   19  C16 UNK     1       5.865   1.543  -1.225  1.00  0.00     0.201 C 
ENDBRANCH  17  18
ENDBRANCH  16  17
ENDBRANCH  14  16
ENDBRANCH   7  12
BRANCH   5  20
HETATM   20  C6  UNK     1      -1.986  -1.842   2.867  1.00  0.00     0.067 C 
BRANCH  20  21
HETATM   21  C14 UNK     1      -2.416  -0.731   3.790  1.00  0.00    -0.032 C 
HETATM   22  C15 UNK     1      -1.570   0.054   4.467  1.00  0.00     0.007 C 
ENDBRANCH  20  21
ENDBRANCH   5  20
TORSDOF 6
