REMARK  2 active torsions:
REMARK  status: ('A' for Active; 'I' for Inactive)
REMARK    1  A    between atoms: C13_18  and  O4_4 
REMARK       I    between atoms: C6_11  and  N1_5 
REMARK    2  A    between atoms: C6_11  and  C7_12 
ROOT
HETATM    1  O2  UNK     1       1.882   0.085   0.025  1.00  0.00    -0.271 OA
HETATM    2  O3  UNK     1       0.907  -1.452   1.406  1.00  0.00    -0.259 OA
HETATM    3  C7  UNK     1      -0.371  -0.736  -0.456  1.00  0.00     0.108 A 
HETATM    4  C8  UNK     1      -0.448   0.035  -1.547  1.00  0.00     0.037 A 
HETATM    5  C9  UNK     1       0.665   0.895  -1.917  1.00  0.00     0.002 A 
HETATM    6  C10 UNK     1       0.833  -0.747   0.406  1.00  0.00     0.304 A 
HETATM    7  C11 UNK     1       1.806   0.899  -1.122  1.00  0.00     0.123 A 
HETATM    8  C12 UNK     1       0.627   1.717  -3.046  1.00  0.00     0.014 A 
HETATM    9  C13 UNK     1       2.907   1.699  -1.422  1.00  0.00     0.102 A 
HETATM   10  C14 UNK     1       1.724   2.525  -3.360  1.00  0.00     0.004 A 
HETATM   11  C15 UNK     1       2.861   2.516  -2.549  1.00  0.00     0.040 A 
ENDROOT
BRANCH   3  12
HETATM   12  C6  UNK     1      -1.552  -1.573  -0.164  1.00  0.00     0.259 C 
HETATM   13  O1  UNK     1      -1.585  -2.702  -0.656  1.00  0.00    -0.267 OA
HETATM   14  N1  UNK     1      -2.549  -1.030   0.643  1.00  0.00    -0.348 N 
HETATM   15  C4  UNK     1      -3.736  -1.836   0.947  1.00  0.00     0.126 C 
HETATM   16  C5  UNK     1      -2.566   0.327   1.210  1.00  0.00     0.126 C 
HETATM   17  C2  UNK     1      -3.989  -1.912   2.449  1.00  0.00     0.020 C 
HETATM   18  C1  UNK     1      -4.068  -0.516   3.061  1.00  0.00     0.003 C 
HETATM   19  C3  UNK     1      -2.821   0.294   2.717  1.00  0.00     0.020 C 
ENDBRANCH   3  12
BRANCH   9  20
HETATM   20  O4  UNK     1       4.016   1.694  -0.635  1.00  0.00    -0.353 OA
HETATM   21  C16 UNK     1       4.055   2.630   0.442  1.00  0.00     0.210 C 
ENDBRANCH   9  20
TORSDOF 2
