REMARK  3 active torsions:
REMARK  status: ('A' for Active; 'I' for Inactive)
REMARK    1  A    between atoms: C10_14  and  N1_4 
REMARK       I    between atoms: C12_16  and  N1_4 
REMARK    2  A    between atoms: C1_5  and  C2_6 
REMARK    3  A    between atoms: C12_16  and  C7_11 
ROOT
HETATM    1  O2  UNK     1       1.594   0.826   1.396  1.00  0.00    -0.267 OA
HETATM    2  N1  UNK     1       0.004   0.169  -0.206  1.00  0.00    -0.323 N 
HETATM    3  C12 UNK     1       1.210   0.727   0.236  1.00  0.00     0.256 C 
HETATM    4  H13 UNK     1      -0.163   0.113  -1.206  1.00  0.00     0.169 HD
ENDROOT
BRANCH   2   5
HETATM    5  C10 UNK     1      -1.016  -0.392   0.565  1.00  0.00     0.035 A 
HETATM    6  C13 UNK     1      -2.158  -0.905  -0.059  1.00  0.00     0.043 A 
HETATM    7  C11 UNK     1      -3.180  -1.467   0.710  1.00  0.00     0.000 A 
HETATM    8  C14 UNK     1      -3.038  -1.504   2.094  1.00  0.00     0.089 A 
HETATM    9  C17 UNK     1      -4.386  -2.015   0.114  1.00  0.00     0.020 A 
HETATM   10  O1  UNK     1      -4.048  -2.062   2.904  1.00  0.00    -0.275 OA
HETATM   11  C16 UNK     1      -1.906  -0.996   2.729  1.00  0.00     0.040 A 
HETATM   12  C19 UNK     1      -5.211  -2.592   2.357  1.00  0.00     0.288 A 
HETATM   13  C18 UNK     1      -5.338  -2.542   0.888  1.00  0.00     0.083 A 
HETATM   14  O3  UNK     1      -6.094  -3.080   3.054  1.00  0.00    -0.260 OA
HETATM   15  C15 UNK     1      -0.891  -0.438   1.955  1.00  0.00     0.032 A 
ENDBRANCH   2   5
BRANCH   3  16
HETATM   16  C7  UNK     1       2.087   1.273  -0.832  1.00  0.00     0.032 A 
HETATM   17  C8  UNK     1       3.449   1.315  -0.618  1.00  0.00     0.017 A 
HETATM   18  C5  UNK     1       4.273   1.827  -1.620  1.00  0.00     0.008 A 
HETATM   19  C2  UNK     1       3.716   2.284  -2.815  1.00  0.00    -0.055 A 
HETATM   20  C6  UNK     1       2.336   2.230  -3.007  1.00  0.00     0.008 A 
HETATM   21  C9  UNK     1       1.512   1.719  -2.004  1.00  0.00     0.017 A 
BRANCH  19  22
HETATM   22  C1  UNK     1       4.597   2.831  -3.887  1.00  0.00     0.010 C 
HETATM   23  C3  UNK     1       5.589   1.783  -4.426  1.00  0.00     0.015 C 
HETATM   24  C4  UNK     1       5.361   4.090  -3.436  1.00  0.00     0.015 C 
ENDBRANCH  19  22
ENDBRANCH   3  16
TORSDOF 3
