REMARK  2 active torsions:
REMARK  status: ('A' for Active; 'I' for Inactive)
REMARK    1  A    between atoms: N1_5  and  O3_4 
REMARK    2  A    between atoms: C3_8  and  C8_13 
ROOT
HETATM    1 Br1  UNK     1       4.650   2.391  -0.613  1.00  0.00    -0.051 Br
HETATM    2  O1  UNK     1      -0.794   0.060  -1.931  1.00  0.00    -0.274 OA
HETATM    3  O2  UNK     1      -2.723  -0.972  -1.272  1.00  0.00    -0.259 OA
HETATM    4  C1  UNK     1       0.919   0.568  -0.282  1.00  0.00     0.000 A 
HETATM    5  C2  UNK     1       0.466   0.594  -1.597  1.00  0.00     0.089 A 
HETATM    6  C3  UNK     1      -1.126  -0.525   0.420  1.00  0.00     0.067 A 
HETATM    7  C4  UNK     1       0.070  -0.019   0.743  1.00  0.00     0.034 A 
HETATM    8  C5  UNK     1       2.174   1.108   0.009  1.00  0.00     0.033 A 
HETATM    9  C6  UNK     1      -1.628  -0.509  -0.972  1.00  0.00     0.300 A 
HETATM   10  C7  UNK     1       1.229   1.143  -2.626  1.00  0.00     0.039 A 
HETATM   11  C9  UNK     1       2.951   1.662  -1.012  1.00  0.00     0.011 A 
HETATM   12  C10 UNK     1       2.480   1.679  -2.326  1.00  0.00     0.022 A 
ENDROOT
BRANCH   6  13
HETATM   13  C8  UNK     1      -1.908  -1.096   1.523  1.00  0.00     0.074 C 
HETATM   14  C11 UNK     1      -1.714  -2.567   1.829  1.00  0.00     0.074 C 
HETATM   15  N1  UNK     1      -2.729  -0.332   2.190  1.00  0.00    -0.140 NA
BRANCH  15  16
HETATM   16  O3  UNK     1      -3.385  -1.043   3.198  1.00  0.00    -0.266 OA
HETATM   17  H8  UNK     1      -3.944  -0.352   3.592  1.00  0.00     0.247 HD
ENDBRANCH  15  16
ENDBRANCH   6  13
TORSDOF 2
