REMARK  7 active torsions:
REMARK  status: ('A' for Active; 'I' for Inactive)
REMARK    1  A    between atoms: C19_27  and  O4_4 
REMARK    2  A    between atoms: C21_29  and  O5_5 
REMARK    3  A    between atoms: C5_13  and  N1_6 
REMARK    4  A    between atoms: C6_14  and  N2_7 
REMARK    5  A    between atoms: C17_25  and  N3_8 
REMARK       I    between atoms: C9_17  and  N3_8 
REMARK    6  A    between atoms: C5_13  and  C7_15 
REMARK    7  A    between atoms: C6_14  and  C9_17 
ROOT
HETATM    1  N1  UNK     1       2.063  -0.197  -1.273  1.00  0.00     0.096 N 
HETATM    2  N2  UNK     1       0.245  -1.486   0.568  1.00  0.00     0.100 N 
HETATM    3  C1  UNK     1       2.422  -1.450  -0.599  1.00  0.00     0.303 C 
HETATM    4  C2  UNK     1       0.609  -0.108  -1.451  1.00  0.00     0.303 C 
HETATM    5  C3  UNK     1       1.699  -1.573   0.747  1.00  0.00     0.303 C 
HETATM    6  C4  UNK     1      -0.114  -0.231  -0.105  1.00  0.00     0.303 C 
ENDROOT
BRANCH   2   7
HETATM    7  C6  UNK     1      -0.444  -1.601   1.852  1.00  0.00     0.375 C 
BRANCH   7   8
HETATM    8  C9  UNK     1      -1.870  -2.072   1.620  1.00  0.00     0.250 C 
HETATM    9  O2  UNK     1      -2.183  -2.794   0.679  1.00  0.00    -0.271 OA
HETATM   10  N3  UNK     1      -2.710  -1.571   2.612  1.00  0.00    -0.323 N 
HETATM   11  H15 UNK     1      -2.294  -0.992   3.339  1.00  0.00     0.169 HD
BRANCH  10  12
HETATM   12  C17 UNK     1      -4.103  -1.779   2.751  1.00  0.00     0.071 A 
HETATM   13  C19 UNK     1      -4.807  -1.204   3.809  1.00  0.00     0.095 A 
HETATM   14  C22 UNK     1      -6.179  -1.419   3.932  1.00  0.00     0.042 A 
HETATM   15  C23 UNK     1      -6.848  -2.209   2.997  1.00  0.00     0.039 A 
HETATM   16  C21 UNK     1      -6.144  -2.784   1.939  1.00  0.00     0.070 A 
HETATM   17  C20 UNK     1      -4.771  -2.569   1.816  1.00  0.00     0.069 A 
BRANCH  13  18
HETATM   18  O4  UNK     1      -4.173  -0.429   4.734  1.00  0.00    -0.354 OA
HETATM   19  C24 UNK     1      -4.096   0.969   4.464  1.00  0.00     0.210 C 
ENDBRANCH  13  18
BRANCH  16  20
HETATM   20  O5  UNK     1      -6.797  -3.555   1.026  1.00  0.00    -0.356 OA
HETATM   21  C25 UNK     1      -6.016  -4.112  -0.030  1.00  0.00     0.210 C 
ENDBRANCH  16  20
ENDBRANCH  10  12
ENDBRANCH   7   8
ENDBRANCH   2   7
BRANCH   1  22
HETATM   22  C5  UNK     1       2.751  -0.083  -2.558  1.00  0.00     0.312 C 
BRANCH  22  23
HETATM   23  C7  UNK     1       2.868   1.332  -3.009  1.00  0.00    -0.011 A 
HETATM   24  C10 UNK     1       1.918   1.899  -3.765  1.00  0.00     0.092 A 
HETATM   25  C13 UNK     1       1.990   3.293  -4.234  1.00  0.00     0.288 A 
HETATM   26  O1  UNK     1       3.108   4.020  -3.856  1.00  0.00    -0.275 OA
HETATM   27  O3  UNK     1       1.101   3.779  -4.925  1.00  0.00    -0.260 OA
HETATM   28  C11 UNK     1       4.123   3.451  -3.062  1.00  0.00     0.090 A 
HETATM   29  C8  UNK     1       4.041   2.129  -2.625  1.00  0.00     0.006 A 
HETATM   30  C14 UNK     1       5.203   4.277  -2.742  1.00  0.00     0.045 A 
HETATM   31  C12 UNK     1       5.093   1.637  -1.839  1.00  0.00     0.015 A 
HETATM   32  C16 UNK     1       6.181   2.453  -1.510  1.00  0.00     0.007 A 
HETATM   33  C15 UNK     1       6.236   3.771  -1.961  1.00  0.00    -0.059 A 
HETATM   34  C18 UNK     1       7.399   4.634  -1.607  1.00  0.00     0.048 C 
ENDBRANCH  22  23
ENDBRANCH   1  22
TORSDOF 7
