REMARK  3 active torsions:
REMARK  status: ('A' for Active; 'I' for Inactive)
REMARK    1  A    between atoms: C1_6  and  N1_4 
REMARK       I    between atoms: C11_16  and  N2_5 
REMARK    2  A    between atoms: C3_8  and  N2_5 
REMARK    3  A    between atoms: C11_16  and  C4_9 
ROOT
HETATM    1  O2  UNK     1       0.429   0.940   1.512  1.00  0.00    -0.267 OA
HETATM    2  N2  UNK     1      -0.766  -0.235  -0.143  1.00  0.00    -0.323 N 
HETATM    3  C11 UNK     1       0.243   0.582   0.350  1.00  0.00     0.262 C 
HETATM    4  H6  UNK     1      -0.767  -0.456  -1.136  1.00  0.00     0.169 HD
ENDROOT
BRANCH   3   5
HETATM    5  C4  UNK     1       1.159   1.029  -0.706  1.00  0.00     0.108 A 
HETATM    6  C13 UNK     1       0.712   1.218  -2.105  1.00  0.00     0.304 A 
HETATM    7  O1  UNK     1       1.674   1.648  -3.015  1.00  0.00    -0.274 OA
HETATM    8  O3  UNK     1      -0.446   1.010  -2.449  1.00  0.00    -0.259 OA
HETATM    9  C5  UNK     1       3.007   1.890  -2.630  1.00  0.00     0.089 A 
HETATM   10  C14 UNK     1       3.898   2.317  -3.612  1.00  0.00     0.038 A 
HETATM   11  C2  UNK     1       3.406   1.705  -1.310  1.00  0.00    -0.001 A 
HETATM   12  C18 UNK     1       5.223   2.564  -3.261  1.00  0.00     0.003 A 
HETATM   13  C17 UNK     1       5.642   2.383  -1.941  1.00  0.00     0.001 A 
HETATM   14  C12 UNK     1       4.737   1.955  -0.966  1.00  0.00     0.014 A 
HETATM   15  C6  UNK     1       2.424   1.258  -0.334  1.00  0.00     0.037 A 
ENDBRANCH   3   5
BRANCH   2  16
HETATM   16  C3  UNK     1      -1.816  -0.845   0.585  1.00  0.00     0.035 A 
HETATM   17  C10 UNK     1      -2.736  -1.632  -0.087  1.00  0.00     0.032 A 
HETATM   18  C8  UNK     1      -3.771  -2.233   0.630  1.00  0.00     0.031 A 
HETATM   19  C1  UNK     1      -3.871  -2.037   2.007  1.00  0.00     0.029 A 
HETATM   20  C7  UNK     1      -2.935  -1.241   2.668  1.00  0.00     0.031 A 
HETATM   21  C9  UNK     1      -1.900  -0.640   1.951  1.00  0.00     0.032 A 
BRANCH  19  22
HETATM   22  N1  UNK     1      -4.917  -2.645   2.732  1.00  0.00    -0.390 N 
HETATM   23  C15 UNK     1      -5.029  -2.448   4.164  1.00  0.00     0.149 C 
HETATM   24  C16 UNK     1      -5.902  -3.463   2.053  1.00  0.00     0.149 C 
ENDBRANCH  19  22
ENDBRANCH   2  16
TORSDOF 3
