REMARK  3 active torsions:
REMARK  status: ('A' for Active; 'I' for Inactive)
REMARK       I    between atoms: C12_16  and  N1_4 
REMARK    1  A    between atoms: C6_10  and  N1_4 
REMARK    2  A    between atoms: C12_16  and  C4_8 
REMARK    3  A    between atoms: C11_15  and  C6_10 
ROOT
HETATM    1  O1  UNK     1       0.401   1.011  -0.761  1.00  0.00    -0.304 OA
HETATM    2  O2  UNK     1       4.128   0.970   0.894  1.00  0.00    -0.287 OA
HETATM    3  C1  UNK     1       2.805   1.219  -1.051  1.00  0.00     0.048 A 
HETATM    4  C2  UNK     1       1.503   1.219  -1.553  1.00  0.00     0.091 A 
HETATM    5  C3  UNK     1       2.362   1.655  -3.767  1.00  0.00    -0.059 A 
HETATM    6  C4  UNK     1       0.608   0.794   0.585  1.00  0.00     0.147 A 
HETATM    7  C5  UNK     1       1.280   1.438  -2.913  1.00  0.00     0.045 A 
HETATM    8  C7  UNK     1       3.014   0.985   0.388  1.00  0.00     0.187 A 
HETATM    9  C8  UNK     1       3.890   1.436  -1.903  1.00  0.00     0.019 A 
HETATM   10  C9  UNK     1       3.663   1.654  -3.263  1.00  0.00     0.008 A 
HETATM   11  C10 UNK     1       1.798   0.766   1.197  1.00  0.00     0.098 A 
HETATM   12  C13 UNK     1       2.127   1.889  -5.221  1.00  0.00     0.048 C 
ENDROOT
BRANCH   6  13
HETATM   13  C12 UNK     1      -0.581   0.573   1.411  1.00  0.00     0.275 C 
HETATM   14  O3  UNK     1      -0.483   0.369   2.621  1.00  0.00    -0.265 OA
HETATM   15  N1  UNK     1      -1.760   0.620   0.687  1.00  0.00    -0.351 N 
HETATM   16  H7  UNK     1      -1.723   0.782  -0.316  1.00  0.00     0.163 HD
BRANCH  15  17
HETATM   17  C6  UNK     1      -3.062   0.429   1.284  1.00  0.00     0.161 C 
BRANCH  17  18
HETATM   18  C11 UNK     1      -3.477  -1.014   1.277  1.00  0.00    -0.041 A 
HETATM   19  C14 UNK     1      -4.185  -1.521   0.194  1.00  0.00     0.009 A 
HETATM   20  C16 UNK     1      -4.570  -2.861   0.188  1.00  0.00     0.001 A 
HETATM   21  C18 UNK     1      -4.245  -3.686   1.265  1.00  0.00     0.000 A 
HETATM   22  C17 UNK     1      -3.535  -3.169   2.349  1.00  0.00     0.001 A 
HETATM   23  C15 UNK     1      -3.149  -1.829   2.355  1.00  0.00     0.009 A 
ENDBRANCH  17  18
ENDBRANCH  15  17
ENDBRANCH   6  13
TORSDOF 3
