REMARK  5 active torsions:
REMARK  status: ('A' for Active; 'I' for Inactive)
REMARK    1  A    between atoms: C13_19  and  N1_4 
REMARK    2  A    between atoms: C4_10  and  N1_4 
REMARK    3  A    between atoms: C10_16  and  N2_5 
REMARK    4  A    between atoms: C13_19  and  N2_5 
REMARK    5  A    between atoms: C10_16  and  C12_18 
ROOT
HETATM    1  N1  UNK     1       0.433   0.389  -0.158  1.00  0.00    -0.333 N 
HETATM    2  H5  UNK     1       1.320   0.467   0.332  1.00  0.00     0.168 HD
ENDROOT
BRANCH   1   3
HETATM    3  C13 UNK     1       0.387   1.117  -1.361  1.00  0.00     0.172 C 
HETATM    4  S1  UNK     1      -0.973   1.577  -2.233  1.00  0.00    -0.041 SA
BRANCH   3   5
HETATM    5  N2  UNK     1       1.618   1.530  -1.854  1.00  0.00    -0.363 N 
HETATM    6  H11 UNK     1       1.586   2.062  -2.719  1.00  0.00     0.162 HD
BRANCH   5   7
HETATM    7  C10 UNK     1       2.922   1.289  -1.265  1.00  0.00     0.162 C 
BRANCH   7   8
HETATM    8  C12 UNK     1       3.974   1.940  -2.096  1.00  0.00    -0.023 A 
HETATM    9  C14 UNK     1       4.586   1.255  -3.138  1.00  0.00     0.012 A 
HETATM   10  C16 UNK     1       5.564   1.888  -3.897  1.00  0.00     0.020 A 
HETATM   11  C17 UNK     1       5.890   3.195  -3.574  1.00  0.00     0.116 A 
HETATM   12  N3  UNK     1       5.316   3.892  -2.567  1.00  0.00    -0.273 NA
HETATM   13  C15 UNK     1       4.370   3.244  -1.852  1.00  0.00     0.124 A 
ENDBRANCH   7   8
ENDBRANCH   5   7
ENDBRANCH   3   5
ENDBRANCH   1   3
BRANCH   1  14
HETATM   14  C4  UNK     1      -0.559  -0.185   0.636  1.00  0.00     0.036 A 
HETATM   15  C5  UNK     1      -1.692  -0.736   0.049  1.00  0.00     0.067 A 
HETATM   16  C2  UNK     1      -2.672  -1.307   0.863  1.00  0.00     0.092 A 
HETATM   17  C1  UNK     1      -2.557  -1.345   2.253  1.00  0.00     0.004 A 
HETATM   18  O1  UNK     1      -3.797  -1.850   0.210  1.00  0.00    -0.275 OA
HETATM   19  C3  UNK     1      -3.637  -1.966   3.032  1.00  0.00    -0.043 A 
HETATM   20  C6  UNK     1      -1.407  -0.785   2.826  1.00  0.00     0.017 A 
HETATM   21  C8  UNK     1      -4.695  -2.474   2.385  1.00  0.00     0.090 A 
HETATM   22  C9  UNK     1      -3.543  -2.023   4.529  1.00  0.00     0.049 C 
HETATM   23  C11 UNK     1      -4.831  -2.441   0.919  1.00  0.00     0.288 A 
HETATM   24  O2  UNK     1      -5.814  -2.916   0.361  1.00  0.00    -0.260 OA
HETATM   25  C7  UNK     1      -0.416  -0.209   2.023  1.00  0.00     0.030 A 
ENDBRANCH   1  14
TORSDOF 5
