REMARK  2 active torsions:
REMARK  status: ('A' for Active; 'I' for Inactive)
REMARK    1  A    between atoms: C16_21  and  O4_4 
REMARK       I    between atoms: C8_13  and  N1_5 
REMARK    2  A    between atoms: C8_13  and  C9_14 
ROOT
HETATM    1  O2  UNK     1      -2.600  -0.087  -1.307  1.00  0.00    -0.274 OA
HETATM    2  O3  UNK     1      -1.421   0.626  -3.130  1.00  0.00    -0.259 OA
HETATM    3  C9  UNK     1      -0.158  -0.226  -1.315  1.00  0.00     0.108 A 
HETATM    4  C10 UNK     1      -0.157  -0.753  -0.085  1.00  0.00     0.037 A 
HETATM    5  C11 UNK     1      -1.416   0.143  -2.003  1.00  0.00     0.304 A 
HETATM    6  C12 UNK     1      -1.411  -0.981   0.616  1.00  0.00     0.002 A 
HETATM    7  C13 UNK     1      -2.605  -0.642  -0.012  1.00  0.00     0.089 A 
HETATM    8  C14 UNK     1      -1.458  -1.530   1.900  1.00  0.00     0.051 A 
HETATM    9  C15 UNK     1      -3.840  -0.835   0.604  1.00  0.00     0.041 A 
HETATM   10  C16 UNK     1      -2.689  -1.729   2.532  1.00  0.00     0.069 A 
HETATM   11  C17 UNK     1      -3.877  -1.382   1.885  1.00  0.00     0.039 A 
ENDROOT
BRANCH   3  12
HETATM   12  C8  UNK     1       1.164  -0.033  -1.943  1.00  0.00     0.260 C 
HETATM   13  O1  UNK     1       1.617  -0.964  -2.611  1.00  0.00    -0.267 OA
HETATM   14  N1  UNK     1       1.811   1.181  -1.735  1.00  0.00    -0.347 N 
HETATM   15  C4  UNK     1       3.127   1.407  -2.337  1.00  0.00     0.130 C 
HETATM   16  C5  UNK     1       1.291   2.331  -0.981  1.00  0.00     0.130 C 
HETATM   17  C1  UNK     1       4.161   1.766  -1.262  1.00  0.00    -0.000 C 
HETATM   18  C3  UNK     1       3.671   2.953  -0.413  1.00  0.00     0.011 C 
HETATM   19  C6  UNK     1       5.514   2.080  -1.897  1.00  0.00     0.011 C 
HETATM   20  C2  UNK     1       2.252   2.739   0.144  1.00  0.00    -0.000 C 
HETATM   21  C7  UNK     1       2.236   1.721   1.287  1.00  0.00     0.011 C 
ENDBRANCH   3  12
BRANCH  10  22
HETATM   22  O4  UNK     1      -2.730  -2.264   3.783  1.00  0.00    -0.356 OA
HETATM   23  C18 UNK     1      -4.018  -2.441   4.371  1.00  0.00     0.210 C 
ENDBRANCH  10  22
TORSDOF 2
