REMARK  2 active torsions:
REMARK  status: ('A' for Active; 'I' for Inactive)
REMARK       I    between atoms: C6_12  and  N1_6 
REMARK    1  A    between atoms: C9_15  and  N1_6 
REMARK    2  A    between atoms: C3_9  and  C6_12 
ROOT
HETATM    1 Br1  UNK     1       5.755   3.899  -1.616  1.00  0.00    -0.051 Br
HETATM    2  O1  UNK     1       0.909   0.428  -2.746  1.00  0.00    -0.274 OA
HETATM    3  O3  UNK     1      -0.831  -0.852  -2.002  1.00  0.00    -0.259 OA
HETATM    4  C1  UNK     1       2.409   1.465  -1.137  1.00  0.00     0.000 A 
HETATM    5  C2  UNK     1       2.030   1.230  -2.455  1.00  0.00     0.089 A 
HETATM    6  C3  UNK     1       0.564   0.108  -0.346  1.00  0.00     0.108 A 
HETATM    7  C4  UNK     1       1.628   0.869  -0.064  1.00  0.00     0.037 A 
HETATM    8  C5  UNK     1       3.526   2.266  -0.890  1.00  0.00     0.033 A 
HETATM    9  C7  UNK     1       0.143  -0.155  -1.740  1.00  0.00     0.304 A 
HETATM   10  C8  UNK     1       2.734   1.772  -3.529  1.00  0.00     0.039 A 
HETATM   11  C10 UNK     1       4.243   2.816  -1.957  1.00  0.00     0.011 A 
HETATM   12  C11 UNK     1       3.847   2.569  -3.273  1.00  0.00     0.022 A 
ENDROOT
BRANCH   6  13
HETATM   13  C6  UNK     1      -0.159  -0.449   0.804  1.00  0.00     0.262 C 
HETATM   14  O2  UNK     1       0.450  -0.700   1.843  1.00  0.00    -0.267 OA
HETATM   15  N1  UNK     1      -1.510  -0.624   0.539  1.00  0.00    -0.323 N 
HETATM   16  H4  UNK     1      -1.864  -0.344  -0.373  1.00  0.00     0.169 HD
BRANCH  15  17
HETATM   17  C9  UNK     1      -2.502  -1.136   1.410  1.00  0.00     0.036 A 
HETATM   18  C12 UNK     1      -3.808  -1.239   0.963  1.00  0.00     0.053 A 
HETATM   19  C14 UNK     1      -4.784  -1.745   1.821  1.00  0.00     0.036 A 
HETATM   20 Cl1  UNK     1      -6.414  -1.881   1.287  1.00  0.00    -0.084 Cl
HETATM   21  C16 UNK     1      -4.439  -2.141   3.114  1.00  0.00     0.024 A 
HETATM   22  C15 UNK     1      -3.118  -2.030   3.548  1.00  0.00     0.004 A 
HETATM   23  C13 UNK     1      -2.142  -1.524   2.689  1.00  0.00     0.029 A 
ENDBRANCH  15  17
ENDBRANCH   6  13
TORSDOF 2
