REMARK  5 active torsions:
REMARK  status: ('A' for Active; 'I' for Inactive)
REMARK    1  A    between atoms: C5_11  and  O2_2 
REMARK    2  A    between atoms: C11_17  and  O3_3 
REMARK    3  A    between atoms: C12_18  and  O4_4 
REMARK    4  A    between atoms: C14_20  and  O6_6 
REMARK    5  A    between atoms: C1_7  and  C4_10 
ROOT
HETATM    1  O1  UNK     1      -1.038  -0.391  -0.522  1.00  0.00    -0.306 OA
HETATM    2  O5  UNK     1      -1.697   1.183   3.178  1.00  0.00    -0.284 OA
HETATM    3  C1  UNK     1      -0.334   0.714  -0.071  1.00  0.00     0.123 A 
HETATM    4  C2  UNK     1      -2.234  -0.474   1.588  1.00  0.00     0.053 A 
HETATM    5  C3  UNK     1      -1.964  -0.962   0.311  1.00  0.00     0.090 A 
HETATM    6  C5  UNK     1      -0.506   1.288   1.134  1.00  0.00     0.154 A 
HETATM    7  C6  UNK     1      -1.499   0.706   2.068  1.00  0.00     0.221 A 
HETATM    8  C7  UNK     1      -3.191  -1.097   2.394  1.00  0.00     0.055 A 
HETATM    9  C9  UNK     1      -2.651  -2.078  -0.169  1.00  0.00     0.041 A 
HETATM   10  C11 UNK     1      -3.875  -2.213   1.912  1.00  0.00     0.069 A 
HETATM   11  C13 UNK     1      -3.606  -2.703   0.633  1.00  0.00     0.039 A 
ENDROOT
BRANCH   3  12
HETATM   12  C4  UNK     1       0.627   1.228  -1.064  1.00  0.00     0.004 A 
HETATM   13  C10 UNK     1       0.223   2.184  -1.996  1.00  0.00     0.017 A 
HETATM   14  C15 UNK     1       1.132   2.671  -2.935  1.00  0.00     0.040 A 
HETATM   15  C14 UNK     1       2.445   2.202  -2.943  1.00  0.00     0.101 A 
HETATM   16  C12 UNK     1       2.850   1.246  -2.011  1.00  0.00     0.102 A 
HETATM   17  C8  UNK     1       1.941   0.759  -1.071  1.00  0.00     0.054 A 
BRANCH  15  18
HETATM   18  O6  UNK     1       3.323   2.685  -3.865  1.00  0.00    -0.353 OA
HETATM   19  C19 UNK     1       3.406   1.989  -5.108  1.00  0.00     0.210 C 
ENDBRANCH  15  18
BRANCH  16  20
HETATM   20  O4  UNK     1       4.130   0.781  -2.008  1.00  0.00    -0.353 OA
HETATM   21  C17 UNK     1       5.074   1.484  -1.203  1.00  0.00     0.210 C 
ENDBRANCH  16  20
ENDBRANCH   3  12
BRANCH   6  22
HETATM   22  O2  UNK     1       0.188   2.407   1.541  1.00  0.00    -0.350 OA
HETATM   23  C16 UNK     1       1.391   2.045   2.192  1.00  0.00     0.210 C 
ENDBRANCH   6  22
BRANCH  10  24
HETATM   24  O3  UNK     1      -4.809  -2.826   2.690  1.00  0.00    -0.356 OA
HETATM   25  C18 UNK     1      -5.472  -3.962   2.136  1.00  0.00     0.210 C 
ENDBRANCH  10  24
TORSDOF 5
