REMARK  4 active torsions:
REMARK  status: ('A' for Active; 'I' for Inactive)
REMARK    1  A    between atoms: C10_16  and  O2_3 
REMARK    2  A    between atoms: C5_11  and  O2_3 
REMARK    3  A    between atoms: C16_22  and  O3_4 
REMARK    4  A    between atoms: C7_13  and  O3_4 
ROOT
HETATM    1  N1  UNK     1       6.997   2.926  -1.891  1.00  0.00    -0.195 NA
HETATM    2  C16 UNK     1       4.448   2.783  -1.287  1.00  0.00     0.299 C 
HETATM    3  C17 UNK     1       5.869   2.862  -1.625  1.00  0.00     0.085 C 
ENDROOT
BRANCH   2   4
HETATM    4  O3  UNK     1       3.688   2.369  -2.422  1.00  0.00    -0.337 OA
BRANCH   4   5
HETATM    5  C7  UNK     1       2.539   1.681  -2.180  1.00  0.00     0.072 A 
HETATM    6  C6  UNK     1       1.817   1.920  -1.010  1.00  0.00     0.075 A 
HETATM    7  C2  UNK     1       0.639   1.214  -0.766  1.00  0.00     0.092 A 
HETATM    8  C1  UNK     1       0.186   0.270  -1.691  1.00  0.00     0.051 A 
HETATM    9  O1  UNK     1      -0.028   1.491   0.402  1.00  0.00    -0.319 OA
HETATM   10  C3  UNK     1      -1.062  -0.465  -1.412  1.00  0.00     0.220 A 
HETATM   11  C4  UNK     1       0.907   0.029  -2.863  1.00  0.00     0.021 A 
HETATM   12  O4  UNK     1      -1.509  -1.303  -2.182  1.00  0.00    -0.284 OA
HETATM   13  C5  UNK     1      -1.740  -0.129  -0.140  1.00  0.00     0.149 A 
HETATM   14  C9  UNK     1      -1.188   0.798   0.650  1.00  0.00     0.184 A 
HETATM   15  C8  UNK     1       2.085   0.738  -3.104  1.00  0.00     0.038 A 
BRANCH  13  16
HETATM   16  O2  UNK     1      -2.909  -0.770   0.195  1.00  0.00    -0.303 OA
BRANCH  16  17
HETATM   17  C10 UNK     1      -2.912  -1.491   1.358  1.00  0.00     0.098 A 
HETATM   18  C12 UNK     1      -2.012  -2.546   1.490  1.00  0.00     0.039 A 
HETATM   19  C14 UNK     1      -1.994  -3.299   2.664  1.00  0.00     0.003 A 
HETATM   20  C15 UNK     1      -2.875  -2.995   3.702  1.00  0.00     0.002 A 
HETATM   21  C13 UNK     1      -3.775  -1.938   3.565  1.00  0.00     0.026 A 
HETATM   22  C11 UNK     1      -3.793  -1.184   2.391  1.00  0.00     0.067 A 
HETATM   23 Cl1  UNK     1      -4.915   0.118   2.250  1.00  0.00    -0.081 Cl
ENDBRANCH  16  17
ENDBRANCH  13  16
ENDBRANCH   4   5
ENDBRANCH   2   4
TORSDOF 4
