REMARK  10 active torsions:
REMARK  status: ('A' for Active; 'I' for Inactive)
REMARK    1  A    between atoms: C5_15  and  O2_2 
REMARK    2  A    between atoms: C7_17  and  O2_2 
REMARK    3  A    between atoms: C1_11  and  O3_3 
REMARK    4  A    between atoms: C2_12  and  O4_4 
REMARK    5  A    between atoms: C3_13  and  O5_5 
REMARK    6  A    between atoms: C6_16  and  O6_6 
REMARK    7  A    between atoms: C18_28  and  O9_9 
REMARK    8  A    between atoms: C21_31  and  O10_10 
REMARK    9  A    between atoms: C4_14  and  C6_16 
REMARK   10  A    between atoms: C10_20  and  C13_23 
ROOT
HETATM    1  C7  UNK     1       1.689   1.790   0.284  1.00  0.00     0.072 A 
HETATM    2  C8  UNK     1       1.826   0.575   0.947  1.00  0.00     0.038 A 
HETATM    3  C9  UNK     1       0.436   2.376   0.136  1.00  0.00     0.038 A 
HETATM    4  C10 UNK     1      -0.560   0.523   1.324  1.00  0.00    -0.020 A 
HETATM    5  C11 UNK     1       0.699  -0.060   1.469  1.00  0.00     0.015 A 
HETATM    6  C12 UNK     1      -0.691   1.741   0.658  1.00  0.00     0.015 A 
ENDROOT
BRANCH   1   7
HETATM    7  O2  UNK     1       2.794   2.412  -0.229  1.00  0.00    -0.318 OA
BRANCH   7   8
HETATM    8  C5  UNK     1       2.803   2.641  -1.638  1.00  0.00     0.298 C 
HETATM    9  C3  UNK     1       4.119   3.333  -1.994  1.00  0.00     0.205 C 
HETATM   10  C1  UNK     1       4.277   3.481  -3.507  1.00  0.00     0.183 C 
HETATM   11  C2  UNK     1       3.989   2.163  -4.225  1.00  0.00     0.180 C 
HETATM   12  C4  UNK     1       2.665   1.562  -3.747  1.00  0.00     0.179 C 
HETATM   13  O1  UNK     1       2.688   1.399  -2.328  1.00  0.00    -0.348 OA
BRANCH   9  14
HETATM   14  O5  UNK     1       4.123   4.625  -1.388  1.00  0.00    -0.388 OA
HETATM   15  H10 UNK     1       3.374   5.130  -1.749  1.00  0.00     0.210 HD
ENDBRANCH   9  14
BRANCH  10  16
HETATM   16  O3  UNK     1       5.619   3.865  -3.810  1.00  0.00    -0.390 OA
HETATM   17  H8  UNK     1       5.690   3.937  -4.777  1.00  0.00     0.210 HD
ENDBRANCH  10  16
BRANCH  11  18
HETATM   18  O4  UNK     1       3.920   2.396  -5.630  1.00  0.00    -0.390 OA
HETATM   19  H9  UNK     1       3.185   3.010  -5.797  1.00  0.00     0.210 HD
ENDBRANCH  11  18
BRANCH  12  20
HETATM   20  C6  UNK     1       2.413   0.189  -4.363  1.00  0.00     0.198 C 
BRANCH  20  21
HETATM   21  O6  UNK     1       1.182  -0.308  -3.869  1.00  0.00    -0.398 OA
HETATM   22  H11 UNK     1       1.246  -0.340  -2.899  1.00  0.00     0.209 HD
ENDBRANCH  20  21
ENDBRANCH  12  20
ENDBRANCH   7   8
ENDBRANCH   1   7
BRANCH   4  23
HETATM   23  C13 UNK     1      -1.749  -0.147   1.874  1.00  0.00     0.048 A 
HETATM   24  C14 UNK     1      -2.533  -1.136   1.084  1.00  0.00     0.200 A 
HETATM   25  O8  UNK     1      -2.260  -1.413  -0.076  1.00  0.00    -0.286 OA
HETATM   26  C15 UNK     1      -3.679  -1.763   1.769  1.00  0.00     0.082 A 
HETATM   27  C16 UNK     1      -3.972  -1.390   3.081  1.00  0.00     0.094 A 
HETATM   28  C18 UNK     1      -4.465  -2.716   1.116  1.00  0.00     0.085 A 
HETATM   29  O7  UNK     1      -3.236  -0.461   3.769  1.00  0.00    -0.321 OA
HETATM   30  C19 UNK     1      -5.054  -1.968   3.747  1.00  0.00     0.074 A 
HETATM   31  C17 UNK     1      -2.159   0.101   3.128  1.00  0.00     0.159 A 
HETATM   32  C21 UNK     1      -5.839  -2.920   3.097  1.00  0.00     0.071 A 
HETATM   33  C20 UNK     1      -5.546  -3.293   1.785  1.00  0.00     0.074 A 
BRANCH  32  34
HETATM   34  O10 UNK     1      -6.894  -3.488   3.745  1.00  0.00    -0.361 OA
HETATM   35  H20 UNK     1      -7.326  -4.123   3.149  1.00  0.00     0.217 HD
ENDBRANCH  32  34
BRANCH  28  36
HETATM   36  O9  UNK     1      -4.224  -3.115  -0.164  1.00  0.00    -0.360 OA
HETATM   37  H19 UNK     1      -4.883  -3.780  -0.426  1.00  0.00     0.217 HD
ENDBRANCH  28  36
ENDBRANCH   4  23
TORSDOF 10
