REMARK  5 active torsions:
REMARK  status: ('A' for Active; 'I' for Inactive)
REMARK    1  A    between atoms: C9_15  and  O2_3 
REMARK    2  A    between atoms: C2_8  and  N1_6 
REMARK       I    between atoms: C8_14  and  N1_6 
REMARK    3  A    between atoms: C1_7  and  C2_8 
REMARK    4  A    between atoms: C1_7  and  C3_9 
REMARK    5  A    between atoms: C5_11  and  C8_14 
ROOT
HETATM    1  O1  UNK     1       2.118  -0.110  -1.586  1.00  0.00    -0.271 OA
HETATM    2  O4  UNK     1       1.312  -1.772  -0.242  1.00  0.00    -0.259 OA
HETATM    3  C4  UNK     1       2.155   2.180  -0.773  1.00  0.00     0.002 A 
HETATM    4  C5  UNK     1       1.298   0.421   0.655  1.00  0.00     0.108 A 
HETATM    5  C6  UNK     1       2.413   1.254  -1.778  1.00  0.00     0.123 A 
HETATM    6  C7  UNK     1       1.575   1.718   0.479  1.00  0.00     0.037 A 
HETATM    7  C9  UNK     1       2.967   1.631  -2.999  1.00  0.00     0.102 A 
HETATM    8  C10 UNK     1       2.462   3.524  -1.000  1.00  0.00     0.014 A 
HETATM    9  C11 UNK     1       1.564  -0.583  -0.399  1.00  0.00     0.304 A 
HETATM   10  C14 UNK     1       3.269   2.973  -3.218  1.00  0.00     0.040 A 
HETATM   11  C15 UNK     1       3.018   3.918  -2.220  1.00  0.00     0.004 A 
ENDROOT
BRANCH   4  12
HETATM   12  C8  UNK     1       0.715   0.052   1.951  1.00  0.00     0.257 C 
HETATM   13  O3  UNK     1       0.983   0.690   2.968  1.00  0.00    -0.267 OA
HETATM   14  N1  UNK     1      -0.122  -1.046   1.872  1.00  0.00    -0.356 N 
HETATM   15  H5  UNK     1      -0.302  -1.487   0.976  1.00  0.00     0.162 HD
BRANCH  14  16
HETATM   16  C2  UNK     1      -0.809  -1.597   3.018  1.00  0.00     0.127 C 
BRANCH  16  17
HETATM   17  C1  UNK     1      -2.183  -0.967   3.235  1.00  0.00     0.058 C 
BRANCH  17  18
HETATM   18  C3  UNK     1      -3.120  -1.184   2.073  1.00  0.00    -0.057 A 
HETATM   19  C12 UNK     1      -3.153  -0.256   1.044  1.00  0.00     0.009 A 
HETATM   20  C16 UNK     1      -4.020  -0.455  -0.030  1.00  0.00     0.024 A 
HETATM   21  C18 UNK     1      -4.844  -1.581  -0.062  1.00  0.00     0.034 A 
HETATM   22  C17 UNK     1      -4.800  -2.507   0.980  1.00  0.00     0.024 A 
HETATM   23 Cl1  UNK     1      -5.913  -1.827  -1.388  1.00  0.00    -0.084 Cl
HETATM   24  C13 UNK     1      -3.933  -2.307   2.054  1.00  0.00     0.009 A 
ENDBRANCH  17  18
ENDBRANCH  16  17
ENDBRANCH  14  16
ENDBRANCH   4  12
BRANCH   7  25
HETATM   25  O2  UNK     1       3.213   0.715  -3.973  1.00  0.00    -0.353 OA
HETATM   26  C19 UNK     1       2.166   0.463  -4.910  1.00  0.00     0.210 C 
ENDBRANCH   7  25
TORSDOF 5
