REMARK  3 active torsions:
REMARK  status: ('A' for Active; 'I' for Inactive)
REMARK    1  A    between atoms: C10_13  and  O2_2 
REMARK    2  A    between atoms: C3_6  and  O2_2 
REMARK    3  A    between atoms: C10_13  and  C11_14 
ROOT
HETATM    1  O1  UNK     1      -0.832  -0.683   1.760  1.00  0.00    -0.275 OA
HETATM    2  O3  UNK     1      -2.249  -1.300   3.450  1.00  0.00    -0.260 OA
HETATM    3  C1  UNK     1      -1.715  -0.441  -0.495  1.00  0.00    -0.002 A 
HETATM    4  C2  UNK     1      -0.646  -0.385   0.394  1.00  0.00     0.092 A 
HETATM    5  C3  UNK     1       0.852   0.264  -1.366  1.00  0.00     0.071 A 
HETATM    6  C4  UNK     1       0.637  -0.036  -0.023  1.00  0.00     0.075 A 
HETATM    7  C5  UNK     1      -1.491  -0.139  -1.840  1.00  0.00     0.017 A 
HETATM    8  C6  UNK     1      -0.209   0.213  -2.273  1.00  0.00     0.038 A 
HETATM    9  C7  UNK     1      -3.027  -0.813   0.008  1.00  0.00     0.020 A 
HETATM   10  C8  UNK     1      -3.195  -1.093   1.303  1.00  0.00     0.083 A 
HETATM   11  C9  UNK     1      -2.078  -1.040   2.264  1.00  0.00     0.288 A 
ENDROOT
BRANCH   5  12
HETATM   12  O2  UNK     1       2.097   0.607  -1.796  1.00  0.00    -0.347 OA
BRANCH  12  13
HETATM   13  C10 UNK     1       2.947   1.269  -0.861  1.00  0.00     0.202 C 
BRANCH  13  14
HETATM   14  C11 UNK     1       3.908   2.130  -1.612  1.00  0.00    -0.011 C 
HETATM   15  C12 UNK     1       3.998   3.456  -1.461  1.00  0.00     0.009 C 
ENDBRANCH  13  14
ENDBRANCH  12  13
ENDBRANCH   5  12
TORSDOF 3
