REMARK  11 active torsions:
REMARK  status: ('A' for Active; 'I' for Inactive)
REMARK    1  A    between atoms: C18_28  and  O2_3 
REMARK    2  A    between atoms: C4_14  and  O2_3 
REMARK    3  A    between atoms: C19_29  and  O3_4 
REMARK    4  A    between atoms: C5_15  and  O3_4 
REMARK    5  A    between atoms: C20_30  and  O4_5 
REMARK    6  A    between atoms: C6_16  and  O4_5 
REMARK    7  A    between atoms: C21_31  and  N1_8 
REMARK    8  A    between atoms: C8_18  and  N1_8 
REMARK       I    between atoms: C16_26  and  N2_9 
REMARK    9  A    between atoms: N2_9  and  N3_10 
REMARK   10  A    between atoms: C21_31  and  N3_10 
REMARK   11  A    between atoms: C16_26  and  C7_17 
ROOT
HETATM    1  O5  UNK     1      -0.003  -1.043   3.952  1.00  0.00    -0.266 OA
HETATM    2  N2  UNK     1       0.381   0.062   1.953  1.00  0.00    -0.264 N 
HETATM    3  C16 UNK     1      -0.341  -0.747   2.809  1.00  0.00     0.270 C 
HETATM    4  H17 UNK     1       0.032   0.407   1.065  1.00  0.00     0.190 HD
ENDROOT
BRANCH   2   5
HETATM    5  N3  UNK     1       1.574   0.592   2.389  1.00  0.00    -0.273 N 
HETATM    6  H18 UNK     1       1.654   0.778   3.383  1.00  0.00     0.189 HD
BRANCH   5   7
HETATM    7  C21 UNK     1       2.621   0.857   1.512  1.00  0.00     0.191 C 
HETATM    8  S1  UNK     1       4.032   1.470   2.178  1.00  0.00    -0.039 SA
BRANCH   7   9
HETATM    9  N1  UNK     1       2.340   0.550   0.168  1.00  0.00    -0.332 N 
HETATM   10  H10 UNK     1       1.605  -0.147   0.068  1.00  0.00     0.168 HD
BRANCH   9  11
HETATM   11  C8  UNK     1       2.781   1.049  -1.058  1.00  0.00     0.037 A 
HETATM   12  C10 UNK     1       3.686   2.104  -1.097  1.00  0.00     0.067 A 
HETATM   13  C2  UNK     1       4.115   2.587  -2.335  1.00  0.00     0.092 A 
HETATM   14  C1  UNK     1       3.668   2.047  -3.542  1.00  0.00     0.004 A 
HETATM   15  O1  UNK     1       5.032   3.657  -2.311  1.00  0.00    -0.275 OA
HETATM   16  C3  UNK     1       4.173   2.618  -4.798  1.00  0.00    -0.043 A 
HETATM   17  C9  UNK     1       2.757   0.984  -3.480  1.00  0.00     0.017 A 
HETATM   18  C14 UNK     1       5.044   3.635  -4.745  1.00  0.00     0.090 A 
HETATM   19  C15 UNK     1       3.711   2.059  -6.112  1.00  0.00     0.049 C 
HETATM   20  C17 UNK     1       5.525   4.216  -3.480  1.00  0.00     0.288 A 
HETATM   21  O6  UNK     1       6.323   5.147  -3.470  1.00  0.00    -0.260 OA
HETATM   22  C13 UNK     1       2.317   0.489  -2.247  1.00  0.00     0.030 A 
ENDBRANCH   9  11
ENDBRANCH   7   9
ENDBRANCH   5   7
ENDBRANCH   2   5
BRANCH   3  23
HETATM   23  C7  UNK     1      -1.609  -1.291   2.260  1.00  0.00     0.039 A 
HETATM   24  C11 UNK     1      -1.725  -1.463   0.895  1.00  0.00     0.057 A 
HETATM   25  C5  UNK     1      -2.916  -1.974   0.379  1.00  0.00     0.105 A 
HETATM   26  C4  UNK     1      -3.965  -2.301   1.238  1.00  0.00     0.135 A 
HETATM   27  C6  UNK     1      -3.823  -2.117   2.614  1.00  0.00     0.105 A 
HETATM   28  C12 UNK     1      -2.632  -1.606   3.130  1.00  0.00     0.057 A 
BRANCH  25  29
HETATM   29  O3  UNK     1      -3.042  -2.150  -0.966  1.00  0.00    -0.349 OA
BRANCH  29  30
HETATM   30  C19 UNK     1      -2.909  -0.991  -1.786  1.00  0.00     0.171 C 
HETATM   31  C23 UNK     1      -3.742  -1.173  -3.037  1.00  0.00     0.034 C 
ENDBRANCH  29  30
ENDBRANCH  25  29
BRANCH  26  32
HETATM   32  O2  UNK     1      -5.129  -2.801   0.734  1.00  0.00    -0.346 OA
BRANCH  32  33
HETATM   33  C18 UNK     1      -6.139  -1.858   0.384  1.00  0.00     0.171 C 
HETATM   34  C22 UNK     1      -7.338  -2.602  -0.166  1.00  0.00     0.034 C 
ENDBRANCH  32  33
ENDBRANCH  26  32
BRANCH  27  35
HETATM   35  O4  UNK     1      -4.840  -2.433   3.463  1.00  0.00    -0.349 OA
BRANCH  35  36
HETATM   36  C20 UNK     1      -5.366  -1.378   4.265  1.00  0.00     0.171 C 
HETATM   37  C24 UNK     1      -6.833  -1.642   4.529  1.00  0.00     0.034 C 
ENDBRANCH  35  36
ENDBRANCH  27  35
ENDBRANCH   3  23
TORSDOF 11
