REMARK  3 active torsions:
REMARK  status: ('A' for Active; 'I' for Inactive)
REMARK    1  A    between atoms: C7_11  and  O2_2 
REMARK    2  A    between atoms: C11_15  and  O4_4 
REMARK    3  A    between atoms: C1_5  and  C6_10 
ROOT
HETATM    1  O1  UNK     1      -0.490   0.447   0.951  1.00  0.00    -0.340 OA
HETATM    2  O3  UNK     1       0.023  -1.289  -2.731  1.00  0.00    -0.292 OA
HETATM    3  C1  UNK     1      -1.583  -0.211   0.291  1.00  0.00     0.169 C 
HETATM    4  C2  UNK     1      -1.081  -1.345  -0.602  1.00  0.00     0.121 C 
HETATM    5  C3  UNK     1       0.660   0.391  -1.199  1.00  0.00     0.077 A 
HETATM    6  C4  UNK     1      -0.133  -0.780  -1.627  1.00  0.00     0.167 C 
HETATM    7  C5  UNK     1       0.452   0.925   0.076  1.00  0.00     0.089 A 
HETATM    8  C7  UNK     1       1.636   0.932  -2.040  1.00  0.00     0.087 A 
HETATM    9  C8  UNK     1       1.245   1.982   0.524  1.00  0.00     0.074 A 
HETATM   10  C11 UNK     1       2.222   2.523  -0.314  1.00  0.00     0.073 A 
HETATM   11  C12 UNK     1       2.413   2.002  -1.594  1.00  0.00     0.074 A 
ENDROOT
BRANCH   3  12
HETATM   12  C6  UNK     1      -2.537  -0.729   1.346  1.00  0.00    -0.029 A 
HETATM   13  C10 UNK     1      -2.047  -1.148   2.583  1.00  0.00     0.010 A 
HETATM   14  C14 UNK     1      -2.927  -1.626   3.555  1.00  0.00     0.001 A 
HETATM   15  C15 UNK     1      -4.295  -1.684   3.290  1.00  0.00     0.000 A 
HETATM   16  C13 UNK     1      -4.784  -1.265   2.053  1.00  0.00     0.001 A 
HETATM   17  C9  UNK     1      -3.905  -0.788   1.081  1.00  0.00     0.010 A 
ENDBRANCH   3  12
BRANCH   8  18
HETATM   18  O2  UNK     1       1.877   0.452  -3.292  1.00  0.00    -0.355 OA
HETATM   19  C16 UNK     1       1.134   1.033  -4.362  1.00  0.00     0.210 C 
ENDBRANCH   8  18
BRANCH  10  20
HETATM   20  O4  UNK     1       2.988   3.561   0.119  1.00  0.00    -0.356 OA
HETATM   21  C17 UNK     1       3.967   4.067  -0.787  1.00  0.00     0.210 C 
ENDBRANCH  10  20
TORSDOF 3
