REMARK  6 active torsions:
REMARK  status: ('A' for Active; 'I' for Inactive)
REMARK    1  A    between atoms: C2_8  and  O1_4 
REMARK    2  A    between atoms: C4_10  and  O1_4 
REMARK    3  A    between atoms: C3_9  and  O2_5 
REMARK    4  A    between atoms: C1_7  and  C9_15 
REMARK    5  A    between atoms: C4_10  and  C8_14 
REMARK    6  A    between atoms: C10_16  and  C11_17 
ROOT
HETATM    1  N1  UNK     1      -0.007   2.975  -2.293  1.00  0.00    -0.191 NA
HETATM    2  C9  UNK     1       2.373   0.716  -1.080  1.00  0.00     0.036 C 
HETATM    3  C10 UNK     1       2.258   1.836  -1.808  1.00  0.00     0.055 C 
HETATM    4  C23 UNK     1       1.013   2.467  -2.078  1.00  0.00     0.100 C 
ENDROOT
BRANCH   3   5
HETATM    5  C11 UNK     1       3.471   2.405  -2.374  1.00  0.00    -0.015 A 
HETATM    6  C14 UNK     1       4.188   3.367  -1.663  1.00  0.00     0.014 A 
HETATM    7  C19 UNK     1       5.351   3.912  -2.207  1.00  0.00     0.020 A 
HETATM    8  C21 UNK     1       5.797   3.496  -3.461  1.00  0.00     0.011 A 
HETATM    9 Br2  UNK     1       7.373   4.235  -4.197  1.00  0.00    -0.051 Br
HETATM   10  C20 UNK     1       5.079   2.534  -4.172  1.00  0.00     0.020 A 
HETATM   11  C15 UNK     1       3.916   1.988  -3.629  1.00  0.00     0.014 A 
ENDBRANCH   3   5
BRANCH   2  12
HETATM   12  C1  UNK     1       1.257   0.004  -0.441  1.00  0.00    -0.015 A 
HETATM   13  C5  UNK     1       0.948   0.355   0.867  1.00  0.00     0.052 A 
HETATM   14  C3  UNK     1      -0.101  -0.289   1.523  1.00  0.00     0.102 A 
HETATM   15  C2  UNK     1      -0.833  -1.278   0.865  1.00  0.00     0.103 A 
HETATM   16  C7  UNK     1      -0.515  -1.623  -0.448  1.00  0.00     0.059 A 
HETATM   17  C6  UNK     1       0.535  -0.979  -1.104  1.00  0.00     0.024 A 
HETATM   18 Br1  UNK     1       0.915  -1.497  -2.892  1.00  0.00    -0.050 Br
BRANCH  14  19
HETATM   19  O2  UNK     1      -0.403   0.058   2.806  1.00  0.00    -0.353 OA
HETATM   20  C22 UNK     1       0.261  -0.660   3.844  1.00  0.00     0.210 C 
ENDBRANCH  14  19
BRANCH  15  21
HETATM   21  O1  UNK     1      -1.860  -1.913   1.496  1.00  0.00    -0.344 OA
BRANCH  21  22
HETATM   22  C4  UNK     1      -2.933  -2.378   0.679  1.00  0.00     0.214 C 
BRANCH  22  23
HETATM   23  C8  UNK     1      -4.208  -2.326   1.469  1.00  0.00    -0.034 A 
HETATM   24  C12 UNK     1      -4.598  -3.430   2.219  1.00  0.00     0.012 A 
HETATM   25  C16 UNK     1      -5.783  -3.381   2.954  1.00  0.00     0.043 A 
HETATM   26  C18 UNK     1      -6.569  -2.229   2.934  1.00  0.00     0.116 A 
HETATM   27  C17 UNK     1      -6.170  -1.125   2.180  1.00  0.00     0.043 A 
HETATM   28  F1  UNK     1      -7.706  -2.182   3.641  1.00  0.00    -0.206 F 
HETATM   29  C13 UNK     1      -4.986  -1.174   1.445  1.00  0.00     0.012 A 
ENDBRANCH  22  23
ENDBRANCH  21  22
ENDBRANCH  15  21
ENDBRANCH   2  12
TORSDOF 6
