REMARK  4 active torsions:
REMARK  status: ('A' for Active; 'I' for Inactive)
REMARK    1  A    between atoms: C5_10  and  O1_2 
REMARK    2  A    between atoms: C9_14  and  O1_2 
REMARK    3  A    between atoms: C12_17  and  C9_14 
REMARK    4  A    between atoms: C11_16  and  C12_17 
ROOT
HETATM    1 Cl1  UNK     1      -2.089  -1.146  -2.941  1.00  0.00    -0.081 Cl
HETATM    2  O2  UNK     1      -3.710  -2.761   1.587  1.00  0.00    -0.275 OA
HETATM    3  O4  UNK     1      -4.492  -3.573   3.576  1.00  0.00    -0.260 OA
HETATM    4  C1  UNK     1      -2.345  -0.734   1.578  1.00  0.00     0.007 A 
HETATM    5  C2  UNK     1      -2.969  -1.780   0.896  1.00  0.00     0.092 A 
HETATM    6  C3  UNK     1      -2.475  -0.671   3.040  1.00  0.00    -0.043 A 
HETATM    7  C4  UNK     1      -1.627   0.199   0.819  1.00  0.00     0.053 A 
HETATM    8  C5  UNK     1      -1.545   0.078  -0.573  1.00  0.00     0.092 A 
HETATM    9  C6  UNK     1      -2.896  -1.915  -0.491  1.00  0.00     0.065 A 
HETATM   10  C7  UNK     1      -2.178  -0.978  -1.227  1.00  0.00     0.070 A 
HETATM   11  C8  UNK     1      -3.185  -1.617   3.670  1.00  0.00     0.090 A 
HETATM   12  C10 UNK     1      -1.817   0.442   3.802  1.00  0.00     0.049 C 
HETATM   13  C13 UNK     1      -3.849  -2.727   2.965  1.00  0.00     0.288 A 
ENDROOT
BRANCH   8  14
HETATM   14  O1  UNK     1      -0.834   1.012  -1.268  1.00  0.00    -0.342 OA
BRANCH  14  15
HETATM   15  C9  UNK     1       0.549   1.142  -0.947  1.00  0.00     0.259 C 
BRANCH  15  16
HETATM   16  C12 UNK     1       1.324   1.604  -2.165  1.00  0.00     0.183 C 
HETATM   17  O3  UNK     1       0.775   1.783  -3.250  1.00  0.00    -0.290 OA
BRANCH  16  18
HETATM   18  C11 UNK     1       2.791   1.841  -2.034  1.00  0.00     0.012 A 
HETATM   19  C15 UNK     1       3.387   1.633  -0.811  1.00  0.00     0.016 A 
HETATM   20  C17 UNK     1       4.758   1.854  -0.688  1.00  0.00     0.007 A 
HETATM   21  C14 UNK     1       5.498   2.277  -1.792  1.00  0.00    -0.062 A 
HETATM   22  C18 UNK     1       4.866   2.479  -3.019  1.00  0.00     0.007 A 
HETATM   23  C19 UNK     1       6.965   2.513  -1.661  1.00  0.00     0.048 C 
HETATM   24  C16 UNK     1       3.494   2.258  -3.142  1.00  0.00     0.016 A 
ENDBRANCH  16  18
ENDBRANCH  15  16
ENDBRANCH  14  15
ENDBRANCH   8  14
TORSDOF 4
