REMARK  2 active torsions:
REMARK  status: ('A' for Active; 'I' for Inactive)
REMARK    1  A    between atoms: C16_19  and  O3_3 
REMARK    2  A    between atoms: C3_6  and  C4_7 
ROOT
HETATM    1  O1  UNK     1       0.455  -1.400   1.609  1.00  0.00    -0.309 OA
HETATM    2  O2  UNK     1       0.700  -3.406  -1.929  1.00  0.00    -0.287 OA
HETATM    3  C1  UNK     1       0.866  -3.482   0.427  1.00  0.00     0.048 A 
HETATM    4  C2  UNK     1       0.764  -2.737   1.601  1.00  0.00     0.090 A 
HETATM    5  C3  UNK     1       0.242  -0.764   0.395  1.00  0.00     0.090 A 
HETATM    6  C5  UNK     1       1.184  -4.841   0.479  1.00  0.00     0.025 A 
HETATM    7  C6  UNK     1       1.400  -5.450   1.716  1.00  0.00    -0.061 A 
HETATM    8  C7  UNK     1       0.631  -2.813  -0.861  1.00  0.00     0.187 A 
HETATM    9  C8  UNK     1       0.305  -1.374  -0.799  1.00  0.00     0.093 A 
HETATM   10  C9  UNK     1       0.981  -3.348   2.836  1.00  0.00     0.039 A 
HETATM   11  C10 UNK     1       1.299  -4.705   2.892  1.00  0.00     0.009 A 
HETATM   12  C13 UNK     1       1.741  -6.901   1.782  1.00  0.00     0.048 C 
ENDROOT
BRANCH   5  13
HETATM   13  C4  UNK     1      -0.089   0.670   0.520  1.00  0.00    -0.002 A 
HETATM   14  C11 UNK     1      -0.921   1.282  -0.421  1.00  0.00     0.017 A 
HETATM   15  C14 UNK     1      -1.233   2.636  -0.303  1.00  0.00     0.037 A 
HETATM   16  C16 UNK     1      -0.715   3.383   0.755  1.00  0.00     0.068 A 
HETATM   17  C15 UNK     1       0.116   2.774   1.696  1.00  0.00     0.037 A 
HETATM   18  C12 UNK     1       0.428   1.420   1.578  1.00  0.00     0.017 A 
BRANCH  16  19
HETATM   19  O3  UNK     1      -1.021   4.704   0.870  1.00  0.00    -0.356 OA
HETATM   20  C17 UNK     1      -0.457   5.407   1.976  1.00  0.00     0.210 C 
ENDBRANCH  16  19
ENDBRANCH   5  13
TORSDOF 2
