REMARK  1 active torsions:
REMARK  status: ('A' for Active; 'I' for Inactive)
REMARK    1  A    between atoms: C8_14  and  N1_6 
ROOT
HETATM    1  O1  UNK     1       1.672   1.217   2.138  1.00  0.00    -0.332 OA
HETATM    2  O3  UNK     1       0.435   0.331  -2.485  1.00  0.00    -0.274 OA
HETATM    3  O4  UNK     1      -0.856  -1.359   2.223  1.00  0.00    -0.289 OA
HETATM    4  O5  UNK     1      -0.052  -0.105  -4.680  1.00  0.00    -0.260 OA
HETATM    5  C1  UNK     1       1.144  -0.039   2.570  1.00  0.00     0.125 C 
HETATM    6  C2  UNK     1      -0.198   0.022   0.391  1.00  0.00     0.044 C 
HETATM    7  C3  UNK     1       0.933   0.795  -0.147  1.00  0.00     0.048 A 
HETATM    8  C4  UNK     1      -0.065  -0.534   1.771  1.00  0.00     0.196 C 
HETATM    9  C5  UNK     1       1.806   1.376   0.783  1.00  0.00     0.084 A 
HETATM   10  C8  UNK     1      -1.390  -0.125  -0.207  1.00  0.00     0.102 C 
HETATM   11  C9  UNK     1       0.709   0.183   4.025  1.00  0.00     0.055 C 
HETATM   12  C10 UNK     1       2.248  -1.103   2.531  1.00  0.00     0.055 C 
HETATM   13  C11 UNK     1       1.225   0.987  -1.509  1.00  0.00     0.103 A 
HETATM   14  C14 UNK     1       2.294   1.781  -1.936  1.00  0.00    -0.001 A 
HETATM   15  C15 UNK     1       2.865   2.194   0.371  1.00  0.00     0.039 A 
HETATM   16  C16 UNK     1       3.107   2.398  -0.985  1.00  0.00     0.017 A 
HETATM   17  C17 UNK     1       2.538   1.946  -3.360  1.00  0.00     0.020 A 
HETATM   18  C18 UNK     1       1.767   1.331  -4.258  1.00  0.00     0.083 A 
HETATM   19  C19 UNK     1       0.649   0.464  -3.852  1.00  0.00     0.288 A 
ENDROOT
BRANCH  10  20
HETATM   20  N1  UNK     1      -2.469  -0.827   0.245  1.00  0.00    -0.385 N 
HETATM   21  C6  UNK     1      -2.674  -2.240  -0.073  1.00  0.00     0.148 C 
HETATM   22  C12 UNK     1      -4.135  -2.467  -0.444  1.00  0.00     0.187 C 
HETATM   23  O2  UNK     1      -4.992  -2.000   0.601  1.00  0.00    -0.388 OA
HETATM   24  C13 UNK     1      -4.829  -0.594   0.805  1.00  0.00     0.187 C 
HETATM   25  C7  UNK     1      -3.400  -0.283   1.234  1.00  0.00     0.148 C 
ENDBRANCH  10  20
TORSDOF 1
