REMARK  1 active torsions:
REMARK  status: ('A' for Active; 'I' for Inactive)
REMARK    1  A    between atoms: C8_13  and  N1_4 
ROOT
HETATM    1  O1  UNK     1      -0.125   0.289  -1.752  1.00  0.00    -0.291 OA
HETATM    2  O2  UNK     1      -0.692  -0.446   2.330  1.00  0.00    -0.274 OA
HETATM    3  O3  UNK     1       1.356   0.460   2.771  1.00  0.00    -0.259 OA
HETATM    4  N2  UNK     1       4.177   2.371  -2.387  1.00  0.00    -0.192 NA
HETATM    5  C1  UNK     1       0.682   0.407   0.497  1.00  0.00     0.057 A 
HETATM    6  C2  UNK     1      -0.261   0.069  -0.393  1.00  0.00     0.103 A 
HETATM    7  C3  UNK     1       1.961   1.056   0.056  1.00  0.00     0.102 A 
HETATM    8  C4  UNK     1      -1.506  -0.562   0.037  1.00  0.00     0.033 A 
HETATM    9  C5  UNK     1      -1.686  -0.803   1.397  1.00  0.00     0.092 A 
HETATM   10  C6  UNK     1       2.038   1.262  -1.437  1.00  0.00     0.077 A 
HETATM   11  C7  UNK     1       0.501   0.156   1.946  1.00  0.00     0.297 A 
HETATM   12  C8  UNK     1       1.031   0.886  -2.257  1.00  0.00     0.159 A 
HETATM   13  C9  UNK     1      -2.529  -0.938  -0.841  1.00  0.00     0.017 A 
HETATM   14  C10 UNK     1      -2.843  -1.401   1.897  1.00  0.00     0.038 A 
HETATM   15  C11 UNK     1      -3.695  -1.538  -0.355  1.00  0.00     0.001 A 
HETATM   16  C12 UNK     1      -3.851  -1.769   1.012  1.00  0.00     0.003 A 
HETATM   17  C13 UNK     1       3.218   1.874  -1.962  1.00  0.00     0.100 C 
ENDROOT
BRANCH  12  18
HETATM   18  N1  UNK     1       1.023   1.037  -3.617  1.00  0.00    -0.379 N 
HETATM   19  H7  UNK     1       1.807   1.458  -4.098  1.00  0.00     0.158 HD
HETATM   20  H8  UNK     1       0.216   0.721  -4.139  1.00  0.00     0.158 HD
ENDBRANCH  12  18
TORSDOF 1
