REMARK  6 active torsions:
REMARK  status: ('A' for Active; 'I' for Inactive)
REMARK    1  A    between atoms: C5_15  and  N1_8 
REMARK    2  A    between atoms: C6_16  and  N2_9 
REMARK    3  A    between atoms: C17_27  and  N3_10 
REMARK       I    between atoms: C9_19  and  N3_10 
REMARK    4  A    between atoms: C5_15  and  C7_17 
REMARK    5  A    between atoms: C6_16  and  C9_19 
REMARK    6  A    between atoms: C21_31  and  C24_34 
ROOT
HETATM    1  N1  UNK     1      -1.225  -1.987   1.065  1.00  0.00     0.096 N 
HETATM    2  N2  UNK     1       1.340  -0.735   0.605  1.00  0.00     0.100 N 
HETATM    3  C1  UNK     1      -0.980  -1.166  -0.127  1.00  0.00     0.303 C 
HETATM    4  C2  UNK     1       0.022  -2.614   1.521  1.00  0.00     0.303 C 
HETATM    5  C3  UNK     1       0.093  -0.107   0.151  1.00  0.00     0.303 C 
HETATM    6  C4  UNK     1       1.095  -1.556   1.798  1.00  0.00     0.303 C 
ENDROOT
BRANCH   2   7
HETATM    7  C6  UNK     1       2.362   0.275   0.871  1.00  0.00     0.375 C 
BRANCH   7   8
HETATM    8  C9  UNK     1       2.945   0.762  -0.444  1.00  0.00     0.250 C 
HETATM    9  O2  UNK     1       3.011   0.051  -1.442  1.00  0.00    -0.271 OA
HETATM   10  N3  UNK     1       3.362   2.087  -0.325  1.00  0.00    -0.324 N 
HETATM   11  H15 UNK     1       3.242   2.545   0.576  1.00  0.00     0.169 HD
BRANCH  10  12
HETATM   12  C17 UNK     1       3.955   2.898  -1.321  1.00  0.00     0.057 A 
HETATM   13  C19 UNK     1       4.168   2.351  -2.587  1.00  0.00     0.047 A 
HETATM   14  C21 UNK     1       4.750   3.124  -3.591  1.00  0.00     0.050 A 
HETATM   15  C23 UNK     1       5.120   4.444  -3.330  1.00  0.00     0.018 A 
HETATM   16  C22 UNK     1       4.907   4.990  -2.065  1.00  0.00     0.027 A 
HETATM   17  C20 UNK     1       4.325   4.217  -1.060  1.00  0.00     0.060 A 
HETATM   18 Cl1  UNK     1       4.080   4.934   0.492  1.00  0.00    -0.082 Cl
BRANCH  14  19
HETATM   19  C24 UNK     1       4.979   2.540  -4.944  1.00  0.00     0.417 C 
HETATM   20  F1  UNK     1       5.557   3.408  -5.826  1.00  0.00    -0.166 F 
HETATM   21  F2  UNK     1       5.797   1.445  -4.935  1.00  0.00    -0.166 F 
HETATM   22  F3  UNK     1       3.823   2.128  -5.541  1.00  0.00    -0.166 F 
ENDBRANCH  14  19
ENDBRANCH  10  12
ENDBRANCH   7   8
ENDBRANCH   2   7
BRANCH   1  23
HETATM   23  C5  UNK     1      -2.247  -2.998   0.797  1.00  0.00     0.312 C 
BRANCH  23  24
HETATM   24  C7  UNK     1      -3.621  -2.423   0.801  1.00  0.00    -0.011 A 
HETATM   25  C10 UNK     1      -4.175  -1.945  -0.322  1.00  0.00     0.092 A 
HETATM   26  C13 UNK     1      -5.529  -1.368  -0.367  1.00  0.00     0.288 A 
HETATM   27  O1  UNK     1      -6.232  -1.336   0.827  1.00  0.00    -0.275 OA
HETATM   28  O3  UNK     1      -6.003  -0.940  -1.414  1.00  0.00    -0.260 OA
HETATM   29  C11 UNK     1      -5.676  -1.831   2.023  1.00  0.00     0.090 A 
HETATM   30  C8  UNK     1      -4.391  -2.375   2.051  1.00  0.00     0.006 A 
HETATM   31  C14 UNK     1      -6.475  -1.747   3.165  1.00  0.00     0.045 A 
HETATM   32  C12 UNK     1      -3.911  -2.846   3.280  1.00  0.00     0.015 A 
HETATM   33  C16 UNK     1      -4.700  -2.768   4.434  1.00  0.00     0.007 A 
HETATM   34  C15 UNK     1      -5.980  -2.220   4.376  1.00  0.00    -0.059 A 
HETATM   35  C18 UNK     1      -6.815  -2.141   5.609  1.00  0.00     0.048 C 
ENDBRANCH  23  24
ENDBRANCH   1  23
TORSDOF 6
