REMARK  6 active torsions:
REMARK  status: ('A' for Active; 'I' for Inactive)
REMARK    1  A    between atoms: C3_7  and  O1_1 
REMARK    2  A    between atoms: C10_14  and  O2_2 
REMARK    3  A    between atoms: C15_19  and  O4_4 
REMARK    4  A    between atoms: C1_5  and  C4_8 
REMARK    5  A    between atoms: C2_6  and  C6_10 
REMARK    6  A    between atoms: C4_8  and  C7_11 
ROOT
HETATM    1  O3  UNK     1      -0.452   1.413  -0.056  1.00  0.00    -0.287 OA
HETATM    2  C4  UNK     1      -1.013   0.374  -0.386  1.00  0.00     0.184 C 
ENDROOT
BRANCH   2   3
HETATM    3  C1  UNK     1      -1.787  -0.394   0.619  1.00  0.00     0.047 A 
HETATM    4  C3  UNK     1      -2.378   0.261   1.682  1.00  0.00     0.082 A 
HETATM    5  C8  UNK     1      -3.104  -0.480   2.615  1.00  0.00     0.074 A 
HETATM    6  C10 UNK     1      -3.223  -1.862   2.468  1.00  0.00     0.068 A 
HETATM    7  C9  UNK     1      -2.618  -2.503   1.387  1.00  0.00     0.037 A 
HETATM    8  C5  UNK     1      -1.892  -1.763   0.454  1.00  0.00     0.021 A 
BRANCH   4   9
HETATM    9  O1  UNK     1      -2.271   1.610   1.843  1.00  0.00    -0.360 OA
HETATM   10  H10 UNK     1      -1.834   2.013   1.078  1.00  0.00     0.217 HD
ENDBRANCH   4   9
BRANCH   6  11
HETATM   11  O2  UNK     1      -3.930  -2.585   3.379  1.00  0.00    -0.361 OA
HETATM   12  H11 UNK     1      -4.279  -1.982   4.058  1.00  0.00     0.217 HD
ENDBRANCH   6  11
ENDBRANCH   2   3
BRANCH   2  13
HETATM   13  C7  UNK     1      -0.980  -0.148  -1.780  1.00  0.00     0.056 C 
HETATM   14  C6  UNK     1       0.081   0.104  -2.579  1.00  0.00     0.015 C 
BRANCH  14  15
HETATM   15  C2  UNK     1       1.255   0.872  -2.196  1.00  0.00    -0.036 A 
HETATM   16  C11 UNK     1       1.593   2.028  -2.899  1.00  0.00     0.014 A 
HETATM   17  C13 UNK     1       2.719   2.764  -2.531  1.00  0.00     0.037 A 
HETATM   18  C15 UNK     1       3.508   2.344  -1.460  1.00  0.00     0.065 A 
HETATM   19  C14 UNK     1       3.171   1.188  -0.757  1.00  0.00     0.037 A 
HETATM   20  C12 UNK     1       2.044   0.452  -1.125  1.00  0.00     0.014 A 
BRANCH  18  21
HETATM   21  O4  UNK     1       4.607   3.062  -1.102  1.00  0.00    -0.361 OA
HETATM   22  H12 UNK     1       4.689   3.829  -1.695  1.00  0.00     0.217 HD
ENDBRANCH  18  21
ENDBRANCH  14  15
ENDBRANCH   2  13
TORSDOF 6
