REMARK  3 active torsions:
REMARK  status: ('A' for Active; 'I' for Inactive)
REMARK    1  A    between atoms: C7_12  and  N1_4 
REMARK    2  A    between atoms: C1_6  and  C3_8 
REMARK    3  A    between atoms: C2_7  and  C4_9 
ROOT
HETATM    1  N2  UNK     1      -4.560  -1.829  -1.243  1.00  0.00    -0.191 NA
HETATM    2  C3  UNK     1      -1.477  -0.365  -1.832  1.00  0.00     0.034 C 
HETATM    3  C4  UNK     1      -2.223  -0.809  -0.788  1.00  0.00     0.055 C 
HETATM    4  C15 UNK     1      -3.512  -1.372  -1.041  1.00  0.00     0.100 C 
ENDROOT
BRANCH   3   5
HETATM    5  C2  UNK     1      -1.752  -0.743   0.609  1.00  0.00    -0.015 A 
HETATM    6  C10 UNK     1      -1.038  -1.806   1.133  1.00  0.00     0.014 A 
HETATM    7  C12 UNK     1      -0.594  -1.743   2.454  1.00  0.00     0.024 A 
HETATM    8  C14 UNK     1      -0.872  -0.618   3.231  1.00  0.00     0.034 A 
HETATM    9  C13 UNK     1      -1.594   0.444   2.686  1.00  0.00     0.024 A 
HETATM   10 Cl1  UNK     1      -0.325  -0.540   4.860  1.00  0.00    -0.084 Cl
HETATM   11  C11 UNK     1      -2.037   0.381   1.365  1.00  0.00     0.014 A 
ENDBRANCH   3   5
BRANCH   2  12
HETATM   12  C1  UNK     1      -0.161   0.252  -1.765  1.00  0.00    -0.035 A 
HETATM   13  C5  UNK     1      -0.045   1.637  -1.648  1.00  0.00     0.014 A 
HETATM   14  C8  UNK     1       1.217   2.228  -1.582  1.00  0.00     0.037 A 
HETATM   15  C7  UNK     1       2.362   1.434  -1.633  1.00  0.00     0.102 A 
HETATM   16  C9  UNK     1       2.246   0.049  -1.750  1.00  0.00     0.037 A 
HETATM   17  C6  UNK     1       0.984  -0.542  -1.816  1.00  0.00     0.014 A 
BRANCH  15  18
HETATM   18  N1  UNK     1       3.647   2.035  -1.566  1.00  0.00    -0.116 N 
HETATM   19  O1  UNK     1       3.731   3.282  -1.461  1.00  0.00    -0.532 OA
HETATM   20  O2  UNK     1       4.665   1.301  -1.613  1.00  0.00    -0.532 OA
ENDBRANCH  15  18
ENDBRANCH   2  12
TORSDOF 3
