REMARK  5 active torsions:
REMARK  status: ('A' for Active; 'I' for Inactive)
REMARK    1  A    between atoms: C17_24  and  N1_6 
REMARK    2  A    between atoms: C8_15  and  N1_6 
REMARK    3  A    between atoms: C17_24  and  N2_7 
REMARK       I    between atoms: C18_25  and  N2_7 
REMARK    4  A    between atoms: C1_8  and  C2_9 
REMARK    5  A    between atoms: C18_25  and  C19_26 
ROOT
HETATM    1  C1  UNK     1       1.400   0.723  -0.820  1.00  0.00    -0.014 A 
HETATM    2  C3  UNK     1       0.726   1.350   0.230  1.00  0.00    -0.049 A 
HETATM    3  C6  UNK     1       0.913  -0.478  -1.338  1.00  0.00     0.015 A 
HETATM    4  C7  UNK     1      -0.430   0.778   0.760  1.00  0.00     0.037 A 
HETATM    5  C8  UNK     1      -0.915  -0.423   0.240  1.00  0.00     0.034 A 
HETATM    6  C10 UNK     1      -0.243  -1.051  -0.808  1.00  0.00     0.030 A 
HETATM    7  C12 UNK     1       1.218   2.637   0.811  1.00  0.00     0.049 C 
ENDROOT
BRANCH   5   8
HETATM    8  N1  UNK     1      -2.072  -0.995   0.770  1.00  0.00    -0.333 N 
HETATM    9  H10 UNK     1      -2.299  -0.632   1.693  1.00  0.00     0.168 HD
BRANCH   8  10
HETATM   10  C17 UNK     1      -3.118  -1.741   0.203  1.00  0.00     0.179 C 
HETATM   11  S1  UNK     1      -3.337  -2.171  -1.405  1.00  0.00    -0.040 SA
BRANCH  10  12
HETATM   12  N2  UNK     1      -4.122  -2.139   1.109  1.00  0.00    -0.298 N 
HETATM   13  C18 UNK     1      -4.241  -1.908   2.489  1.00  0.00     0.281 C 
HETATM   14  O4  UNK     1      -3.444  -1.283   3.182  1.00  0.00    -0.265 OA
HETATM   15  H13 UNK     1      -4.873  -2.679   0.684  1.00  0.00     0.171 HD
BRANCH  13  16
HETATM   16  C19 UNK     1      -5.427  -2.524   3.137  1.00  0.00     0.142 A 
HETATM   17  O3  UNK     1      -6.226  -3.217   2.330  1.00  0.00    -0.317 OA
HETATM   18  C22 UNK     1      -7.215  -3.670   3.145  1.00  0.00     0.143 A 
HETATM   19  C21 UNK     1      -7.006  -3.248   4.438  1.00  0.00     0.027 A 
HETATM   20  C20 UNK     1      -5.813  -2.487   4.415  1.00  0.00     0.045 A 
ENDBRANCH  13  16
ENDBRANCH  10  12
ENDBRANCH   8  10
ENDBRANCH   5   8
BRANCH   1  21
HETATM   21  C2  UNK     1       2.624   1.303  -1.403  1.00  0.00     0.051 A 
HETATM   22  C11 UNK     1       3.962   0.931  -0.867  1.00  0.00     0.299 A 
HETATM   23  O1  UNK     1       5.071   1.497  -1.489  1.00  0.00    -0.274 OA
HETATM   24  O2  UNK     1       4.093   0.166   0.084  1.00  0.00    -0.259 OA
HETATM   25  C9  UNK     1       4.946   2.396  -2.564  1.00  0.00     0.089 A 
HETATM   26  C14 UNK     1       6.116   2.918  -3.113  1.00  0.00     0.038 A 
HETATM   27  C4  UNK     1       3.692   2.742  -3.051  1.00  0.00    -0.001 A 
HETATM   28  C16 UNK     1       6.022   3.812  -4.178  1.00  0.00     0.003 A 
HETATM   29  C15 UNK     1       4.770   4.171  -4.680  1.00  0.00     0.001 A 
HETATM   30  C13 UNK     1       3.606   3.638  -4.119  1.00  0.00     0.014 A 
HETATM   31  C5  UNK     1       2.513   2.156  -2.433  1.00  0.00     0.032 A 
ENDBRANCH   1  21
TORSDOF 5
