REMARK  2 active torsions:
REMARK  status: ('A' for Active; 'I' for Inactive)
REMARK    1  A    between atoms: C5_10  and  O2_4 
REMARK    2  A    between atoms: C2_7  and  C4_9 
ROOT
HETATM    1 Cl1  UNK     1      -4.607  -3.360   0.057  1.00  0.00    -0.084 Cl
HETATM    2  O1  UNK     1      -0.690  -0.219  -0.565  1.00  0.00    -0.306 OA
HETATM    3  O3  UNK     1      -0.887   1.244   3.233  1.00  0.00    -0.284 OA
HETATM    4  C1  UNK     1      -1.765  -0.226   1.611  1.00  0.00     0.051 A 
HETATM    5  C2  UNK     1       0.203   0.739  -0.113  1.00  0.00     0.123 A 
HETATM    6  C3  UNK     1      -1.646  -0.683   0.300  1.00  0.00     0.092 A 
HETATM    7  C5  UNK     1       0.191   1.270   1.124  1.00  0.00     0.152 A 
HETATM    8  C6  UNK     1      -0.828   0.800   2.094  1.00  0.00     0.220 A 
HETATM    9  C7  UNK     1      -2.760  -0.736   2.448  1.00  0.00     0.020 A 
HETATM   10  C8  UNK     1      -2.524  -1.654  -0.183  1.00  0.00     0.062 A 
HETATM   11  C11 UNK     1      -3.637  -1.707   1.963  1.00  0.00     0.025 A 
HETATM   12  C12 UNK     1      -3.520  -2.165   0.650  1.00  0.00     0.036 A 
ENDROOT
BRANCH   5  13
HETATM   13  C4  UNK     1       1.175   1.151  -1.141  1.00  0.00     0.001 A 
HETATM   14  C10 UNK     1       0.875   2.205  -2.004  1.00  0.00     0.017 A 
HETATM   15  C14 UNK     1       1.796   2.594  -2.977  1.00  0.00     0.043 A 
HETATM   16  C15 UNK     1       3.018   1.929  -3.087  1.00  0.00     0.116 A 
HETATM   17  C13 UNK     1       3.318   0.875  -2.224  1.00  0.00     0.043 A 
HETATM   18  F1  UNK     1       3.902   2.304  -4.020  1.00  0.00    -0.206 F 
HETATM   19  C9  UNK     1       2.397   0.486  -1.252  1.00  0.00     0.017 A 
ENDBRANCH   5  13
BRANCH   7  20
HETATM   20  O2  UNK     1       1.073   2.246   1.533  1.00  0.00    -0.355 OA
HETATM   21  H8  UNK     1       1.681   2.465   0.809  1.00  0.00     0.218 HD
ENDBRANCH   7  20
TORSDOF 2
