REMARK  3 active torsions:
REMARK  status: ('A' for Active; 'I' for Inactive)
REMARK    1  A    between atoms: C1_8  and  N1_7 
REMARK       I    between atoms: C7_14  and  N1_7 
REMARK    2  A    between atoms: C3_10  and  C7_14 
REMARK    3  A    between atoms: C13_20  and  C4_11 
ROOT
HETATM    1  O2  UNK     1       1.088  -0.044   2.046  1.00  0.00    -0.267 OA
HETATM    2  N1  UNK     1      -0.797  -0.378   0.675  1.00  0.00    -0.322 N 
HETATM    3  C7  UNK     1       0.510  -0.010   0.961  1.00  0.00     0.262 C 
HETATM    4  H2  UNK     1      -1.124  -0.263  -0.280  1.00  0.00     0.169 HD
ENDROOT
BRANCH   3   5
HETATM    5  C3  UNK     1       1.224   0.467  -0.230  1.00  0.00     0.108 A 
HETATM    6  C10 UNK     1       0.908  -0.031  -1.587  1.00  0.00     0.304 A 
HETATM    7  O1  UNK     1       1.655   0.496  -2.637  1.00  0.00    -0.274 OA
HETATM    8  O3  UNK     1       0.033  -0.868  -1.783  1.00  0.00    -0.259 OA
HETATM    9  C5  UNK     1       2.663   1.457  -2.422  1.00  0.00     0.089 A 
HETATM   10  C12 UNK     1       3.356   1.928  -3.535  1.00  0.00     0.038 A 
HETATM   11  C2  UNK     1       2.944   1.912  -1.138  1.00  0.00    -0.001 A 
HETATM   12  C17 UNK     1       4.358   2.879  -3.355  1.00  0.00     0.003 A 
HETATM   13  C16 UNK     1       4.655   3.347  -2.073  1.00  0.00     0.001 A 
HETATM   14  C9  UNK     1       3.950   2.866  -0.965  1.00  0.00     0.014 A 
HETATM   15  C6  UNK     1       2.181   1.379  -0.020  1.00  0.00     0.037 A 
ENDBRANCH   3   5
BRANCH   2  16
HETATM   16  C1  UNK     1      -1.769  -0.881   1.574  1.00  0.00     0.050 A 
HETATM   17  C4  UNK     1      -3.037  -1.203   1.119  1.00  0.00     0.074 A 
HETATM   18  C11 UNK     1      -3.981  -1.698   2.020  1.00  0.00     0.018 A 
HETATM   19  C15 UNK     1      -3.642  -1.864   3.363  1.00  0.00     0.001 A 
HETATM   20  C14 UNK     1      -2.361  -1.535   3.806  1.00  0.00     0.002 A 
HETATM   21  C8  UNK     1      -1.418  -1.040   2.905  1.00  0.00     0.030 A 
BRANCH  17  22
HETATM   22  C13 UNK     1      -3.427  -1.035  -0.314  1.00  0.00     0.419 C 
HETATM   23  F1  UNK     1      -4.715  -1.404  -0.574  1.00  0.00    -0.166 F 
HETATM   24  F2  UNK     1      -3.326   0.251  -0.758  1.00  0.00    -0.166 F 
HETATM   25  F3  UNK     1      -2.654  -1.779  -1.156  1.00  0.00    -0.166 F 
ENDBRANCH  17  22
ENDBRANCH   2  16
TORSDOF 3
