REMARK  3 active torsions:
REMARK  status: ('A' for Active; 'I' for Inactive)
REMARK    1  A    between atoms: C5_9  and  N1_3 
REMARK    2  A    between atoms: C6_10  and  N2_4 
REMARK    3  A    between atoms: C5_9  and  C7_11 
ROOT
HETATM    1  N1  UNK     1      -0.443   1.094   0.118  1.00  0.00     0.095 N 
HETATM    2  N2  UNK     1       1.996   1.614  -1.274  1.00  0.00    -0.377 N 
HETATM    3  C1  UNK     1       0.814   0.483   0.567  1.00  0.00     0.292 C 
HETATM    4  C2  UNK     1      -0.179   2.424  -0.445  1.00  0.00     0.292 C 
HETATM    5  C3  UNK     1       1.798   0.330  -0.596  1.00  0.00     0.153 C 
HETATM    6  C4  UNK     1       0.771   2.335  -1.642  1.00  0.00     0.153 C 
ENDROOT
BRANCH   1   7
HETATM    7  C5  UNK     1      -1.393   1.186   1.226  1.00  0.00     0.312 C 
BRANCH   7   8
HETATM    8  C7  UNK     1      -1.718  -0.167   1.793  1.00  0.00    -0.011 A 
HETATM    9  C11 UNK     1      -0.957  -0.627   2.796  1.00  0.00     0.092 A 
HETATM   10  C20 UNK     1      -1.177  -1.935   3.437  1.00  0.00     0.288 A 
HETATM   11  O1  UNK     1      -2.230  -2.696   2.953  1.00  0.00    -0.275 OA
HETATM   12  O2  UNK     1      -0.460  -2.323   4.352  1.00  0.00    -0.260 OA
HETATM   13  C12 UNK     1      -3.047  -2.239   1.900  1.00  0.00     0.091 A 
HETATM   14  C8  UNK     1      -2.826  -0.998   1.302  1.00  0.00     0.012 A 
HETATM   15  C18 UNK     1      -4.077  -3.090   1.494  1.00  0.00     0.045 A 
HETATM   16  C13 UNK     1      -3.682  -0.616   0.260  1.00  0.00    -0.048 A 
HETATM   17  C19 UNK     1      -4.719  -1.458  -0.158  1.00  0.00     0.014 A 
HETATM   18  C22 UNK     1      -3.589   0.673  -0.491  1.00  0.00     0.049 C 
HETATM   19  C21 UNK     1      -4.916  -2.693   0.458  1.00  0.00    -0.059 A 
HETATM   20  C24 UNK     1      -6.022  -3.586   0.008  1.00  0.00     0.048 C 
ENDBRANCH   7   8
ENDBRANCH   1   7
BRANCH   2  21
HETATM   21  C6  UNK     1       3.138   1.816  -2.059  1.00  0.00     0.036 A 
HETATM   22  C10 UNK     1       3.367   0.983  -3.154  1.00  0.00     0.036 A 
HETATM   23  C14 UNK     1       4.499   1.170  -3.947  1.00  0.00    -0.060 A 
HETATM   24  C17 UNK     1       5.402   2.189  -3.644  1.00  0.00     0.007 A 
HETATM   25  C23 UNK     1       4.745   0.281  -5.119  1.00  0.00     0.048 C 
HETATM   26  C15 UNK     1       5.173   3.021  -2.549  1.00  0.00     0.009 A 
HETATM   27  C9  UNK     1       4.041   2.835  -1.756  1.00  0.00    -0.035 A 
HETATM   28  C16 UNK     1       3.821   3.740  -0.588  1.00  0.00     0.050 C 
ENDBRANCH   2  21
TORSDOF 3
