REMARK  2 active torsions:
REMARK  status: ('A' for Active; 'I' for Inactive)
REMARK    1  A    between atoms: C5_9  and  O2_2 
REMARK    2  A    between atoms: C6_10  and  O3_3 
ROOT
HETATM    1  O1  UNK     1      -0.829  -0.420   1.550  1.00  0.00    -0.275 OA
HETATM    2  O4  UNK     1      -2.741  -1.402   2.341  1.00  0.00    -0.260 OA
HETATM    3  C1  UNK     1      -0.598  -0.037  -0.842  1.00  0.00     0.001 A 
HETATM    4  C2  UNK     1      -0.086   0.053   0.449  1.00  0.00     0.092 A 
HETATM    5  C3  UNK     1       0.168   0.443  -1.907  1.00  0.00     0.053 A 
HETATM    6  C4  UNK     1       1.166   0.609   0.705  1.00  0.00     0.077 A 
HETATM    7  C5  UNK     1       1.426   1.003  -1.666  1.00  0.00     0.099 A 
HETATM    8  C6  UNK     1       1.923   1.085  -0.363  1.00  0.00     0.101 A 
HETATM    9  C7  UNK     1      -1.911  -0.628  -1.036  1.00  0.00     0.020 A 
HETATM   10  C8  UNK     1      -2.608  -1.074   0.011  1.00  0.00     0.083 A 
HETATM   11  C9  UNK     1      -2.088  -0.989   1.389  1.00  0.00     0.288 A 
ENDROOT
BRANCH   7  12
HETATM   12  O2  UNK     1       2.161   1.468  -2.715  1.00  0.00    -0.358 OA
HETATM   13  H5  UNK     1       1.662   1.330  -3.538  1.00  0.00     0.217 HD
ENDBRANCH   7  12
BRANCH   8  14
HETATM   14  O3  UNK     1       3.149   1.630  -0.124  1.00  0.00    -0.358 OA
HETATM   15  H6  UNK     1       3.532   1.906  -0.975  1.00  0.00     0.217 HD
ENDBRANCH   8  14
TORSDOF 2
