REMARK  5 active torsions:
REMARK  status: ('A' for Active; 'I' for Inactive)
REMARK    1  A    between atoms: C18_24  and  O4_4 
REMARK    2  A    between atoms: C3_9  and  N1_6 
REMARK       I    between atoms: C7_13  and  N1_6 
REMARK    3  A    between atoms: C2_8  and  C7_13 
REMARK    4  A    between atoms: C12_18  and  C4_10 
REMARK    5  A    between atoms: C12_18  and  C18_24 
ROOT
HETATM    1  O2  UNK     1       0.698   1.066   1.361  1.00  0.00    -0.267 OA
HETATM    2  N1  UNK     1      -0.354  -0.302  -0.242  1.00  0.00    -0.323 N 
HETATM    3  C7  UNK     1       0.562   0.635   0.217  1.00  0.00     0.262 C 
HETATM    4  H2  UNK     1      -0.321  -0.570  -1.223  1.00  0.00     0.169 HD
ENDROOT
BRANCH   2   5
HETATM    5  C3  UNK     1      -1.347  -0.979   0.508  1.00  0.00     0.035 A 
HETATM    6  C8  UNK     1      -2.175  -1.886  -0.131  1.00  0.00     0.030 A 
HETATM    7  C10 UNK     1      -3.153  -2.553   0.607  1.00  0.00     0.010 A 
HETATM    8  C4  UNK     1      -3.288  -2.302   1.972  1.00  0.00    -0.048 A 
HETATM    9  C11 UNK     1      -2.446  -1.384   2.600  1.00  0.00     0.010 A 
HETATM   10  C9  UNK     1      -1.467  -0.717   1.862  1.00  0.00     0.030 A 
BRANCH   8  11
HETATM   11  C12 UNK     1      -4.334  -3.015   2.762  1.00  0.00     0.148 C 
BRANCH  11  12
HETATM   12  C18 UNK     1      -5.662  -2.284   2.805  1.00  0.00     0.143 C 
HETATM   13  O5  UNK     1      -5.883  -1.195   2.294  1.00  0.00    -0.650 OA
BRANCH  12  14
HETATM   14  O4  UNK     1      -6.603  -2.986   3.489  1.00  0.00    -0.776 OA
HETATM   15  H13 UNK     1      -7.462  -2.512   3.518  1.00  0.00     0.167 HD
ENDBRANCH  12  14
ENDBRANCH  11  12
ENDBRANCH   8  11
ENDBRANCH   2   5
BRANCH   3  16
HETATM   16  C2  UNK     1       1.441   1.121  -0.853  1.00  0.00     0.108 A 
HETATM   17  C14 UNK     1       0.995   1.196  -2.263  1.00  0.00     0.304 A 
HETATM   18  O1  UNK     1       1.919   1.674  -3.187  1.00  0.00    -0.274 OA
HETATM   19  O3  UNK     1      -0.133   0.856  -2.605  1.00  0.00    -0.259 OA
HETATM   20  C5  UNK     1       3.216   2.069  -2.804  1.00  0.00     0.089 A 
HETATM   21  C1  UNK     1       3.616   1.990  -1.474  1.00  0.00    -0.001 A 
HETATM   22  C15 UNK     1       4.071   2.535  -3.801  1.00  0.00     0.038 A 
HETATM   23  C13 UNK     1       4.910   2.389  -1.134  1.00  0.00     0.014 A 
HETATM   24  C6  UNK     1       2.672   1.494  -0.484  1.00  0.00     0.037 A 
HETATM   25  C16 UNK     1       5.780   2.859  -2.123  1.00  0.00     0.001 A 
HETATM   26  C17 UNK     1       5.361   2.932  -3.453  1.00  0.00     0.003 A 
ENDBRANCH   3  16
TORSDOF 5
