REMARK  3 active torsions:
REMARK  status: ('A' for Active; 'I' for Inactive)
REMARK    1  A    between atoms: C5_12  and  N2_7 
REMARK    2  A    between atoms: C10_17  and  C7_14 
REMARK    3  A    between atoms: C10_17  and  C11_18 
ROOT
HETATM    1  O1  UNK     1      -0.837  -1.673   2.388  1.00  0.00    -0.267 OA
HETATM    2  N1  UNK     1      -0.500   0.634   2.010  1.00  0.00    -0.320 N 
HETATM    3  C1  UNK     1      -0.149   0.627  -0.262  1.00  0.00     0.009 A 
HETATM    4  C2  UNK     1      -0.231   1.421   0.885  1.00  0.00     0.079 A 
HETATM    5  C3  UNK     1      -0.383  -0.742   0.185  1.00  0.00     0.048 A 
HETATM    6  C4  UNK     1      -0.610  -0.718   1.669  1.00  0.00     0.257 A 
HETATM    7  C5  UNK     1      -0.060   2.791   0.850  1.00  0.00     0.130 A 
HETATM    8  C6  UNK     1       0.110   1.194  -1.496  1.00  0.00     0.015 A 
HETATM    9  C7  UNK     1      -0.406  -1.861  -0.541  1.00  0.00     0.073 C 
HETATM   10  C8  UNK     1       0.202   3.371  -0.393  1.00  0.00     0.038 A 
HETATM   11  C9  UNK     1       0.287   2.580  -1.555  1.00  0.00     0.003 A 
HETATM   12  H1  UNK     1      -0.601   1.003   2.948  1.00  0.00     0.169 HD
ENDROOT
BRANCH   9  13
HETATM   13  C10 UNK     1      -0.666  -3.172   0.114  1.00  0.00     0.183 C 
HETATM   14  O2  UNK     1      -1.796  -3.631   0.239  1.00  0.00    -0.288 OA
BRANCH  13  15
HETATM   15  C11 UNK     1       0.502  -3.949   0.597  1.00  0.00     0.014 A 
HETATM   16  C12 UNK     1       1.709  -3.821  -0.062  1.00  0.00     0.018 A 
HETATM   17  C14 UNK     1       2.807  -4.551   0.394  1.00  0.00     0.043 A 
HETATM   18  C16 UNK     1       2.676  -5.392   1.498  1.00  0.00     0.116 A 
HETATM   19  C15 UNK     1       1.447  -5.505   2.147  1.00  0.00     0.043 A 
HETATM   20  F1  UNK     1       3.730  -6.093   1.935  1.00  0.00    -0.206 F 
HETATM   21  C13 UNK     1       0.348  -4.775   1.692  1.00  0.00     0.018 A 
ENDBRANCH  13  15
ENDBRANCH   9  13
BRANCH   7  22
HETATM   22  N2  UNK     1      -0.144   3.595   2.016  1.00  0.00    -0.113 N 
HETATM   23  O3  UNK     1       0.022   4.835   1.914  1.00  0.00    -0.532 OA
HETATM   24  O4  UNK     1      -0.381   3.045   3.119  1.00  0.00    -0.532 OA
ENDBRANCH   7  22
TORSDOF 3
