REMARK  4 active torsions:
REMARK  status: ('A' for Active; 'I' for Inactive)
REMARK    1  A    between atoms: C5_10  and  N1_4 
REMARK    2  A    between atoms: C6_11  and  N2_5 
REMARK    3  A    between atoms: C5_10  and  C7_12 
REMARK    4  A    between atoms: C6_11  and  C8_13 
ROOT
HETATM    1  N1  UNK     1       0.033  -0.384   0.183  1.00  0.00     0.096 N 
HETATM    2  N2  UNK     1       1.938   1.636  -0.621  1.00  0.00     0.096 N 
HETATM    3  C1  UNK     1       0.822   0.358   1.175  1.00  0.00     0.303 C 
HETATM    4  C2  UNK     1       0.771  -0.493  -1.081  1.00  0.00     0.303 C 
HETATM    5  C3  UNK     1       1.201   1.744   0.644  1.00  0.00     0.303 C 
HETATM    6  C4  UNK     1       1.150   0.894  -1.612  1.00  0.00     0.303 C 
ENDROOT
BRANCH   1   7
HETATM    7  C5  UNK     1      -0.327  -1.707   0.690  1.00  0.00     0.312 C 
BRANCH   7   8
HETATM    8  C7  UNK     1      -1.492  -1.656   1.616  1.00  0.00    -0.011 A 
HETATM    9  C10 UNK     1      -1.324  -1.485   2.935  1.00  0.00     0.092 A 
HETATM   10  C15 UNK     1      -2.445  -1.429   3.887  1.00  0.00     0.288 A 
HETATM   11  O1  UNK     1      -3.719  -1.563   3.358  1.00  0.00    -0.275 OA
HETATM   12  O2  UNK     1      -2.253  -1.271   5.088  1.00  0.00    -0.260 OA
HETATM   13  C11 UNK     1      -3.928  -1.743   1.976  1.00  0.00     0.090 A 
HETATM   14  C9  UNK     1      -2.855  -1.795   1.085  1.00  0.00     0.006 A 
HETATM   15  C16 UNK     1      -5.254  -1.866   1.555  1.00  0.00     0.045 A 
HETATM   16  C14 UNK     1      -3.147  -1.977  -0.273  1.00  0.00     0.015 A 
HETATM   17  C18 UNK     1      -4.471  -2.103  -0.710  1.00  0.00     0.007 A 
HETATM   18  C17 UNK     1      -5.522  -2.047   0.203  1.00  0.00    -0.059 A 
HETATM   19  C22 UNK     1      -6.930  -2.180  -0.270  1.00  0.00     0.048 C 
ENDBRANCH   7   8
ENDBRANCH   1   7
BRANCH   2  20
HETATM   20  C6  UNK     1       2.295   2.960  -1.129  1.00  0.00     0.311 C 
BRANCH  20  21
HETATM   21  C8  UNK     1       3.424   2.897  -2.116  1.00  0.00    -0.030 A 
HETATM   22  C12 UNK     1       4.744   2.996  -1.675  1.00  0.00     0.010 A 
HETATM   23  C19 UNK     1       5.793   2.936  -2.592  1.00  0.00     0.024 A 
HETATM   24  C21 UNK     1       5.522   2.776  -3.951  1.00  0.00     0.034 A 
HETATM   25  C20 UNK     1       4.202   2.677  -4.393  1.00  0.00     0.024 A 
HETATM   26 Cl1  UNK     1       6.816   2.703  -5.083  1.00  0.00    -0.084 Cl
HETATM   27  C13 UNK     1       3.154   2.737  -3.475  1.00  0.00     0.010 A 
ENDBRANCH  20  21
ENDBRANCH   2  20
TORSDOF 4
