REMARK  2 active torsions:
REMARK  status: ('A' for Active; 'I' for Inactive)
REMARK    1  A    between atoms: C11_18  and  N1_5 
REMARK       I    between atoms: C8_15  and  N1_5 
REMARK    2  A    between atoms: C3_10  and  C8_15 
ROOT
HETATM    1  O1  UNK     1       0.891   0.576  -0.131  1.00  0.00    -0.304 OA
HETATM    2  O2  UNK     1       1.790   1.445  -4.013  1.00  0.00    -0.287 OA
HETATM    3  C1  UNK     1       2.459   1.494  -1.745  1.00  0.00     0.048 A 
HETATM    4  C2  UNK     1       2.089   1.171  -0.439  1.00  0.00     0.090 A 
HETATM    5  C3  UNK     1       0.028   0.293  -1.169  1.00  0.00     0.147 A 
HETATM    6  C4  UNK     1       1.530   1.187  -2.846  1.00  0.00     0.187 A 
HETATM    7  C5  UNK     1       0.254   0.548  -2.464  1.00  0.00     0.098 A 
HETATM    8  C6  UNK     1       3.692   2.099  -2.000  1.00  0.00     0.018 A 
HETATM    9  C7  UNK     1       2.952   1.452   0.620  1.00  0.00     0.038 A 
HETATM   10  C9  UNK     1       4.552   2.380  -0.938  1.00  0.00     0.001 A 
HETATM   11  C10 UNK     1       4.184   2.057   0.369  1.00  0.00     0.003 A 
ENDROOT
BRANCH   5  12
HETATM   12  C8  UNK     1      -1.245  -0.342  -0.821  1.00  0.00     0.281 C 
HETATM   13  O3  UNK     1      -2.052  -0.617  -1.709  1.00  0.00    -0.265 OA
HETATM   14  N1  UNK     1      -1.363  -0.554   0.547  1.00  0.00    -0.298 N 
HETATM   15  H6  UNK     1      -0.604  -0.270   1.161  1.00  0.00     0.171 HD
BRANCH  14  16
HETATM   16  C11 UNK     1      -2.451  -1.138   1.202  1.00  0.00     0.196 A 
HETATM   17  S1  UNK     1      -2.316  -1.267   2.894  1.00  0.00    -0.034 SA
HETATM   18  C12 UNK     1      -3.872  -1.988   2.843  1.00  0.00     0.097 A 
HETATM   19  N3  UNK     1      -4.392  -2.094   1.639  1.00  0.00    -0.145 NA
HETATM   20  C13 UNK     1      -4.519  -2.434   4.093  1.00  0.00     0.081 C 
HETATM   21  N2  UNK     1      -3.545  -1.588   0.668  1.00  0.00    -0.123 NA
ENDBRANCH  14  16
ENDBRANCH   5  12
TORSDOF 2
