REMARK  3 active torsions:
REMARK  status: ('A' for Active; 'I' for Inactive)
REMARK    1  A    between atoms: C16_20  and  O3_3 
REMARK    2  A    between atoms: C13_17  and  O4_4 
REMARK    3  A    between atoms: C2_6  and  C5_9 
ROOT
HETATM    1  O1  UNK     1      -2.284  -0.762  -0.946  1.00  0.00    -0.274 OA
HETATM    2  O2  UNK     1      -0.974  -0.009  -2.647  1.00  0.00    -0.259 OA
HETATM    3  C1  UNK     1      -0.195  -0.115   0.860  1.00  0.00    -0.032 A 
HETATM    4  C2  UNK     1      -0.042   0.112  -0.464  1.00  0.00     0.057 A 
HETATM    5  C3  UNK     1      -1.461  -0.702   1.345  1.00  0.00     0.005 A 
HETATM    6  C4  UNK     1      -2.461  -1.005   0.425  1.00  0.00     0.092 A 
HETATM    7  C6  UNK     1      -1.114  -0.214  -1.445  1.00  0.00     0.300 A 
HETATM    8  C7  UNK     1       0.860   0.201   1.894  1.00  0.00     0.050 C 
HETATM    9  C8  UNK     1      -1.729  -0.980   2.695  1.00  0.00     0.017 A 
HETATM   10  C9  UNK     1      -3.687  -1.562   0.802  1.00  0.00     0.074 A 
HETATM   11  C12 UNK     1      -2.951  -1.538   3.090  1.00  0.00     0.037 A 
HETATM   12  C13 UNK     1      -3.929  -1.828   2.144  1.00  0.00     0.068 A 
ENDROOT
BRANCH   4  13
HETATM   13  C5  UNK     1       1.194   0.693  -0.983  1.00  0.00    -0.019 A 
HETATM   14  C10 UNK     1       2.242  -0.139  -1.364  1.00  0.00     0.015 A 
HETATM   15  C14 UNK     1       3.422   0.416  -1.860  1.00  0.00     0.037 A 
HETATM   16  C16 UNK     1       3.549   1.801  -1.971  1.00  0.00     0.068 A 
HETATM   17  C15 UNK     1       2.495   2.630  -1.587  1.00  0.00     0.037 A 
HETATM   18  C11 UNK     1       1.315   2.075  -1.092  1.00  0.00     0.015 A 
BRANCH  16  19
HETATM   19  O3  UNK     1       4.700   2.342  -2.454  1.00  0.00    -0.356 OA
HETATM   20  C17 UNK     1       4.762   3.765  -2.541  1.00  0.00     0.210 C 
ENDBRANCH  16  19
ENDBRANCH   4  13
BRANCH  12  21
HETATM   21  O4  UNK     1      -5.116  -2.369   2.531  1.00  0.00    -0.361 OA
HETATM   22  H11 UNK     1      -5.109  -2.486   3.496  1.00  0.00     0.217 HD
ENDBRANCH  12  21
TORSDOF 3
