REMARK  4 active torsions:
REMARK  status: ('A' for Active; 'I' for Inactive)
REMARK    1  A    between atoms: C5_13  and  N1_6 
REMARK       I    between atoms: C6_14  and  N2_7 
REMARK    2  A    between atoms: C5_13  and  N3_8 
REMARK    3  A    between atoms: C8_16  and  N3_8 
REMARK    4  A    between atoms: C6_14  and  C7_15 
ROOT
HETATM    1  S1  UNK     1      -3.066  -0.206  -4.072  1.00  0.00    -0.041 SA
HETATM    2  C5  UNK     1      -1.797  -0.258  -2.976  1.00  0.00     0.174 C 
ENDROOT
BRANCH   2   3
HETATM    3  N1  UNK     1      -2.051  -0.368  -1.649  1.00  0.00    -0.355 N 
HETATM    4  C1  UNK     1      -1.152  -1.089  -0.753  1.00  0.00     0.145 C 
HETATM    5  C3  UNK     1      -1.937  -2.038   0.145  1.00  0.00     0.146 C 
HETATM    6  N2  UNK     1      -3.042  -1.323   0.805  1.00  0.00    -0.343 N 
HETATM    7  C4  UNK     1      -3.957  -0.647  -0.120  1.00  0.00     0.146 C 
HETATM    8  C6  UNK     1      -3.313  -1.325   2.185  1.00  0.00     0.277 C 
HETATM    9  C2  UNK     1      -3.187   0.307  -1.029  1.00  0.00     0.145 C 
HETATM   10  O1  UNK     1      -4.454  -1.203   2.635  1.00  0.00    -0.265 OA
BRANCH   8  11
HETATM   11  C7  UNK     1      -2.180  -1.477   3.090  1.00  0.00     0.142 A 
HETATM   12  C14 UNK     1      -2.090  -2.036   4.336  1.00  0.00     0.045 A 
HETATM   13  C16 UNK     1      -0.736  -1.895   4.724  1.00  0.00     0.027 A 
HETATM   14  C18 UNK     1      -0.104  -1.259   3.681  1.00  0.00     0.143 A 
HETATM   15  O2  UNK     1      -0.982  -1.001   2.677  1.00  0.00    -0.317 OA
ENDBRANCH   8  11
ENDBRANCH   2   3
BRANCH   2  16
HETATM   16  N3  UNK     1      -0.484  -0.249  -3.416  1.00  0.00    -0.333 N 
HETATM   17  H9  UNK     1      -0.354  -0.639  -4.347  1.00  0.00     0.168 HD
BRANCH  16  18
HETATM   18  C8  UNK     1       0.692   0.214  -2.826  1.00  0.00     0.036 A 
HETATM   19  C10 UNK     1       0.651   1.269  -1.921  1.00  0.00     0.067 A 
HETATM   20  C11 UNK     1       1.840   1.716  -1.341  1.00  0.00     0.092 A 
HETATM   21  O3  UNK     1       1.734   2.787  -0.432  1.00  0.00    -0.275 OA
HETATM   22  C9  UNK     1       3.076   1.139  -1.636  1.00  0.00     0.004 A 
HETATM   23  C20 UNK     1       2.849   3.311   0.204  1.00  0.00     0.288 A 
HETATM   24  C17 UNK     1       4.146   2.693  -0.119  1.00  0.00     0.090 A 
HETATM   25  O4  UNK     1       2.769   4.244   0.996  1.00  0.00    -0.260 OA
HETATM   26  C15 UNK     1       4.276   1.673  -0.979  1.00  0.00    -0.043 A 
HETATM   27  C19 UNK     1       5.621   1.075  -1.276  1.00  0.00     0.049 C 
HETATM   28  C13 UNK     1       3.096   0.077  -2.550  1.00  0.00     0.017 A 
HETATM   29  C12 UNK     1       1.913  -0.382  -3.140  1.00  0.00     0.030 A 
ENDBRANCH  16  18
ENDBRANCH   2  16
TORSDOF 4
