REMARK  3 active torsions:
REMARK  status: ('A' for Active; 'I' for Inactive)
REMARK    1  A    between atoms: C5_11  and  N1_5 
REMARK       I    between atoms: C6_12  and  N2_6 
REMARK    2  A    between atoms: C5_11  and  C8_14 
REMARK    3  A    between atoms: C6_12  and  C7_13 
ROOT
HETATM    1 Br1  UNK     1       6.075   2.096   0.462  1.00  0.00    -0.051 Br
HETATM    2  O2  UNK     1       0.945   1.924  -2.774  1.00  0.00    -0.274 OA
HETATM    3  O3  UNK     1      -1.060   0.946  -3.263  1.00  0.00    -0.259 OA
HETATM    4  C7  UNK     1       0.227  -0.068  -1.551  1.00  0.00     0.108 A 
HETATM    5  C9  UNK     1       1.348  -0.057  -0.821  1.00  0.00     0.037 A 
HETATM    6  C10 UNK     1       2.353   0.972  -1.035  1.00  0.00     0.000 A 
HETATM    7  C11 UNK     1      -0.034   0.952  -2.592  1.00  0.00     0.304 A 
HETATM    8  C12 UNK     1       2.128   1.941  -2.008  1.00  0.00     0.089 A 
HETATM    9  C14 UNK     1       3.538   1.022  -0.296  1.00  0.00     0.033 A 
HETATM   10  C15 UNK     1       3.050   2.954  -2.262  1.00  0.00     0.039 A 
HETATM   11  C16 UNK     1       4.472   2.033  -0.540  1.00  0.00     0.011 A 
HETATM   12  C17 UNK     1       4.228   2.997  -1.521  1.00  0.00     0.022 A 
ENDROOT
BRANCH   4  13
HETATM   13  C6  UNK     1      -0.732  -1.153  -1.260  1.00  0.00     0.260 C 
HETATM   14  O1  UNK     1      -0.616  -2.202  -1.895  1.00  0.00    -0.267 OA
HETATM   15  N2  UNK     1      -1.706  -0.915  -0.292  1.00  0.00    -0.344 N 
HETATM   16  C3  UNK     1      -2.676  -1.967   0.014  1.00  0.00     0.156 C 
HETATM   17  C4  UNK     1      -1.959   0.364   0.383  1.00  0.00     0.156 C 
HETATM   18  C1  UNK     1      -2.899  -2.114   1.517  1.00  0.00     0.292 C 
HETATM   19  N1  UNK     1      -3.280  -0.825   2.109  1.00  0.00     0.095 N 
HETATM   20  C2  UNK     1      -2.224   0.170   1.879  1.00  0.00     0.292 C 
BRANCH  19  21
HETATM   21  C5  UNK     1      -3.543  -0.974   3.540  1.00  0.00     0.299 C 
BRANCH  21  22
HETATM   22  C8  UNK     1      -4.655  -1.943   3.798  1.00  0.00    -0.007 C 
HETATM   23  C13 UNK     1      -4.515  -3.072   4.502  1.00  0.00     0.008 C 
ENDBRANCH  21  22
ENDBRANCH  19  21
ENDBRANCH   4  13
TORSDOF 3
