REMARK  3 active torsions:
REMARK  status: ('A' for Active; 'I' for Inactive)
REMARK    1  A    between atoms: C16_21  and  O3_3 
REMARK    2  A    between atoms: C20_25  and  O3_3 
REMARK       I    between atoms: C6_11  and  N1_5 
REMARK    3  A    between atoms: C6_11  and  C9_14 
ROOT
HETATM    1  O1  UNK     1       2.120   0.027  -1.156  1.00  0.00    -0.271 OA
HETATM    2  O4  UNK     1       1.012  -1.964  -0.984  1.00  0.00    -0.259 OA
HETATM    3  C9  UNK     1      -0.302  -0.056  -1.483  1.00  0.00     0.108 A 
HETATM    4  C12 UNK     1      -0.344   1.263  -1.705  1.00  0.00     0.037 A 
HETATM    5  C13 UNK     1       0.876   2.053  -1.663  1.00  0.00     0.002 A 
HETATM    6  C14 UNK     1       2.081   1.416  -1.388  1.00  0.00     0.123 A 
HETATM    7  C15 UNK     1       0.970  -0.756  -1.190  1.00  0.00     0.304 A 
HETATM    8  C16 UNK     1       3.285   2.115  -1.334  1.00  0.00     0.103 A 
HETATM    9  C17 UNK     1       0.878   3.432  -1.888  1.00  0.00     0.014 A 
HETATM   10  C18 UNK     1       3.279   3.490  -1.559  1.00  0.00     0.040 A 
HETATM   11  C19 UNK     1       2.078   4.147  -1.836  1.00  0.00     0.004 A 
ENDROOT
BRANCH   3  12
HETATM   12  C6  UNK     1      -1.594  -0.771  -1.547  1.00  0.00     0.260 C 
HETATM   13  O2  UNK     1      -1.950  -1.216  -2.639  1.00  0.00    -0.267 OA
HETATM   14  N1  UNK     1      -2.324  -0.883  -0.362  1.00  0.00    -0.343 N 
HETATM   15  C1  UNK     1      -3.679  -1.433  -0.416  1.00  0.00     0.131 C 
HETATM   16  C3  UNK     1      -1.889  -0.346   0.938  1.00  0.00     0.165 C 
HETATM   17  C2  UNK     1      -3.875  -2.504   0.650  1.00  0.00     0.059 C 
HETATM   18  C4  UNK     1      -3.528  -1.969   2.012  1.00  0.00    -0.049 A 
HETATM   19  C5  UNK     1      -2.576  -0.944   2.142  1.00  0.00    -0.034 A 
HETATM   20  C7  UNK     1      -4.117  -2.521   3.157  1.00  0.00     0.008 A 
HETATM   21  C8  UNK     1      -2.247  -0.470   3.421  1.00  0.00     0.009 A 
HETATM   22  C11 UNK     1      -2.850  -1.015   4.555  1.00  0.00     0.001 A 
HETATM   23  C10 UNK     1      -3.782  -2.041   4.423  1.00  0.00     0.001 A 
ENDBRANCH   3  12
BRANCH   8  24
HETATM   24  O3  UNK     1       4.457   1.479  -1.063  1.00  0.00    -0.349 OA
BRANCH  24  25
HETATM   25  C20 UNK     1       5.643   2.030  -1.635  1.00  0.00     0.171 C 
HETATM   26  C21 UNK     1       6.641   0.916  -1.868  1.00  0.00     0.034 C 
ENDBRANCH  24  25
ENDBRANCH   8  24
TORSDOF 3
