REMARK  3 active torsions:
REMARK  status: ('A' for Active; 'I' for Inactive)
REMARK    1  A    between atoms: C12_15  and  O2_2 
REMARK    2  A    between atoms: C14_17  and  O2_2 
REMARK    3  A    between atoms: C14_17  and  C15_18 
ROOT
HETATM    1  O1  UNK     1      -1.838  -0.689  -1.013  1.00  0.00    -0.274 OA
HETATM    2  O3  UNK     1      -3.770  -1.704  -1.657  1.00  0.00    -0.259 OA
HETATM    3  C1  UNK     1      -2.867  -1.467   3.128  1.00  0.00     0.040 C 
HETATM    4  C2  UNK     1      -4.015  -2.458   3.336  1.00  0.00     0.005 C 
HETATM    5  C3  UNK     1      -2.548  -1.183   1.676  1.00  0.00    -0.033 A 
HETATM    6  C4  UNK     1      -5.162  -2.168   2.383  1.00  0.00     0.005 C 
HETATM    7  C5  UNK     1      -4.690  -2.261   0.933  1.00  0.00     0.045 C 
HETATM    8  C6  UNK     1      -3.370  -1.571   0.682  1.00  0.00     0.025 A 
HETATM    9  C7  UNK     1      -1.304  -0.465   1.353  1.00  0.00     0.005 A 
HETATM   10  C8  UNK     1      -0.988  -0.245   0.014  1.00  0.00     0.092 A 
HETATM   11  C9  UNK     1      -3.034  -1.337  -0.747  1.00  0.00     0.295 A 
HETATM   12  C10 UNK     1      -0.410   0.028   2.315  1.00  0.00     0.017 A 
HETATM   13  C11 UNK     1       0.172   0.425  -0.382  1.00  0.00     0.075 A 
HETATM   14  C12 UNK     1       1.048   0.899   0.587  1.00  0.00     0.072 A 
HETATM   15  C13 UNK     1       0.756   0.702   1.935  1.00  0.00     0.038 A 
ENDROOT
BRANCH  14  16
HETATM   16  O2  UNK     1       2.182   1.556   0.223  1.00  0.00    -0.342 OA
BRANCH  16  17
HETATM   17  C14 UNK     1       3.117   0.840  -0.584  1.00  0.00     0.158 C 
HETATM   18  C16 UNK     1       4.423   0.702   0.185  1.00  0.00     0.045 C 
BRANCH  17  19
HETATM   19  C15 UNK     1       3.291   1.587  -1.885  1.00  0.00    -0.029 A 
HETATM   20  C17 UNK     1       3.145   2.964  -1.902  1.00  0.00     0.010 A 
HETATM   21  C19 UNK     1       3.305   3.654  -3.105  1.00  0.00     0.001 A 
HETATM   22  C21 UNK     1       3.609   2.956  -4.273  1.00  0.00     0.000 A 
HETATM   23  C20 UNK     1       3.753   1.569  -4.240  1.00  0.00     0.001 A 
HETATM   24  C18 UNK     1       3.593   0.880  -3.038  1.00  0.00     0.010 A 
ENDBRANCH  17  19
ENDBRANCH  16  17
ENDBRANCH  14  16
TORSDOF 3
