REMARK  3 active torsions:
REMARK  status: ('A' for Active; 'I' for Inactive)
REMARK    1  A    between atoms: C15_19  and  O2_3 
REMARK    2  A    between atoms: C8_12  and  O2_3 
REMARK    3  A    between atoms: C2_6  and  C5_9 
ROOT
HETATM    1  O1  UNK     1       1.449   0.410   0.883  1.00  0.00    -0.321 OA
HETATM    2  O3  UNK     1      -1.724  -0.196  -1.609  1.00  0.00    -0.286 OA
HETATM    3  C1  UNK     1       0.507   0.508  -1.351  1.00  0.00     0.049 A 
HETATM    4  C2  UNK     1      -0.836  -0.361   0.594  1.00  0.00     0.048 A 
HETATM    5  C3  UNK     1       1.554   0.705  -0.452  1.00  0.00     0.091 A 
HETATM    6  C4  UNK     1      -0.771  -0.036  -0.858  1.00  0.00     0.197 A 
HETATM    7  C6  UNK     1       0.672   0.828  -2.702  1.00  0.00     0.021 A 
HETATM    8  C7  UNK     1       2.771   1.223  -0.897  1.00  0.00     0.075 A 
HETATM    9  C8  UNK     1       2.937   1.543  -2.244  1.00  0.00     0.071 A 
HETATM   10  C9  UNK     1       0.260  -0.116   1.328  1.00  0.00     0.159 A 
HETATM   11  C10 UNK     1       1.890   1.345  -3.145  1.00  0.00     0.038 A 
ENDROOT
BRANCH   4  12
HETATM   12  C5  UNK     1      -2.038  -0.946   1.209  1.00  0.00    -0.020 A 
HETATM   13  C11 UNK     1      -3.024  -0.117   1.748  1.00  0.00     0.014 A 
HETATM   14  C13 UNK     1      -4.165  -0.672   2.329  1.00  0.00     0.024 A 
HETATM   15  C16 UNK     1      -4.322  -2.057   2.373  1.00  0.00     0.034 A 
HETATM   16  C14 UNK     1      -3.339  -2.888   1.834  1.00  0.00     0.024 A 
HETATM   17 Cl1  UNK     1      -5.729  -2.741   3.089  1.00  0.00    -0.084 Cl
HETATM   18  C12 UNK     1      -2.199  -2.333   1.253  1.00  0.00     0.014 A 
ENDBRANCH   4  12
BRANCH   9  19
HETATM   19  O2  UNK     1       4.123   2.047  -2.682  1.00  0.00    -0.351 OA
BRANCH  19  20
HETATM   20  C15 UNK     1       4.882   2.821  -1.754  1.00  0.00     0.171 C 
HETATM   21  C17 UNK     1       5.697   3.844  -2.516  1.00  0.00     0.034 C 
ENDBRANCH  19  20
ENDBRANCH   9  19
TORSDOF 3
