REMARK  4 active torsions:
REMARK  status: ('A' for Active; 'I' for Inactive)
REMARK    1  A    between atoms: C5_10  and  N1_3 
REMARK    2  A    between atoms: C7_12  and  N2_4 
REMARK    3  A    between atoms: C5_10  and  C6_11 
REMARK    4  A    between atoms: C13_18  and  C17_22 
ROOT
HETATM    1  O1  UNK     1       2.650   0.852  -3.793  1.00  0.00    -0.275 OA
HETATM    2  O2  UNK     1       0.978   0.445  -5.300  1.00  0.00    -0.260 OA
HETATM    3  C6  UNK     1       0.652   1.534  -1.910  1.00  0.00    -0.011 A 
HETATM    4  C8  UNK     1       2.072   1.593  -1.538  1.00  0.00     0.007 A 
HETATM    5  C9  UNK     1       0.321   1.153  -3.152  1.00  0.00     0.092 A 
HETATM    6  C10 UNK     1       3.028   1.249  -2.495  1.00  0.00     0.090 A 
HETATM    7  C11 UNK     1       2.530   1.976  -0.271  1.00  0.00     0.022 A 
HETATM    8  C13 UNK     1       3.899   2.010   0.016  1.00  0.00    -0.058 A 
HETATM    9  C14 UNK     1       1.318   0.787  -4.172  1.00  0.00     0.288 A 
HETATM   10  C15 UNK     1       4.398   1.278  -2.225  1.00  0.00     0.039 A 
HETATM   11  C16 UNK     1       4.832   1.662  -0.960  1.00  0.00     0.010 A 
ENDROOT
BRANCH   3  12
HETATM   12  C5  UNK     1      -0.401   1.898  -0.905  1.00  0.00     0.312 C 
BRANCH  12  13
HETATM   13  N1  UNK     1      -0.836   0.736  -0.130  1.00  0.00     0.095 N 
HETATM   14  C1  UNK     1      -1.437   1.160   1.140  1.00  0.00     0.292 C 
HETATM   15  C3  UNK     1      -1.844  -0.050   1.985  1.00  0.00     0.154 C 
HETATM   16  N2  UNK     1      -2.710  -0.950   1.213  1.00  0.00    -0.362 N 
HETATM   17  C4  UNK     1      -2.220  -1.313  -0.120  1.00  0.00     0.154 C 
HETATM   18  C2  UNK     1      -1.799  -0.063  -0.897  1.00  0.00     0.292 C 
BRANCH  16  19
HETATM   19  C7  UNK     1      -3.529  -1.839   1.918  1.00  0.00     0.125 A 
HETATM   20  C12 UNK     1      -4.732  -2.195   1.330  1.00  0.00     0.050 A 
HETATM   21  C18 UNK     1      -5.556  -3.078   2.018  1.00  0.00     0.005 A 
HETATM   22  C20 UNK     1      -5.158  -3.571   3.256  1.00  0.00     0.019 A 
HETATM   23  C19 UNK     1      -3.936  -3.154   3.758  1.00  0.00     0.119 A 
HETATM   24  N3  UNK     1      -3.108  -2.297   3.118  1.00  0.00    -0.244 NA
ENDBRANCH  16  19
ENDBRANCH  12  13
ENDBRANCH   3  12
BRANCH   8  25
HETATM   25  C17 UNK     1       4.364   2.421   1.373  1.00  0.00     0.034 C 
HETATM   26  C21 UNK     1       4.489   1.237   2.326  1.00  0.00     0.010 C 
ENDBRANCH   8  25
TORSDOF 4
