REMARK  5 active torsions:
REMARK  status: ('A' for Active; 'I' for Inactive)
REMARK    1  A    between atoms: C5_10  and  O2_2 
REMARK    2  A    between atoms: C9_14  and  O2_2 
REMARK    3  A    between atoms: C15_20  and  O3_3 
REMARK    4  A    between atoms: C16_21  and  O3_3 
REMARK    5  A    between atoms: C15_20  and  C9_14 
ROOT
HETATM    1  O1  UNK     1      -2.963  -1.312  -0.094  1.00  0.00    -0.274 OA
HETATM    2  O4  UNK     1      -4.707  -2.551   0.664  1.00  0.00    -0.259 OA
HETATM    3  C1  UNK     1      -1.273  -0.495   1.454  1.00  0.00     0.005 A 
HETATM    4  C2  UNK     1      -1.783  -0.597   0.163  1.00  0.00     0.099 A 
HETATM    5  C3  UNK     1      -1.164  -0.003  -0.940  1.00  0.00     0.006 A 
HETATM    6  C4  UNK     1      -1.994  -1.157   2.561  1.00  0.00    -0.037 A 
HETATM    7  C5  UNK     1       0.005   0.725  -0.754  1.00  0.00     0.078 A 
HETATM    8  C6  UNK     1      -3.146  -1.812   2.305  1.00  0.00     0.020 A 
HETATM    9  C7  UNK     1      -0.095   0.250   1.619  1.00  0.00     0.017 A 
HETATM   10  C8  UNK     1       0.538   0.853   0.526  1.00  0.00     0.038 A 
HETATM   11  C10 UNK     1      -1.749  -0.144  -2.308  1.00  0.00     0.054 C 
HETATM   12  C11 UNK     1      -3.680  -1.929   0.917  1.00  0.00     0.294 A 
HETATM   13  C12 UNK     1      -1.370  -1.066   3.932  1.00  0.00     0.050 C 
HETATM   14  C13 UNK     1      -4.012  -2.474   3.347  1.00  0.00     0.055 C 
ENDROOT
BRANCH   7  15
HETATM   15  O2  UNK     1       0.637   1.319  -1.803  1.00  0.00    -0.336 OA
BRANCH  15  16
HETATM   16  C9  UNK     1       1.979   0.913  -2.067  1.00  0.00     0.224 C 
HETATM   17  C14 UNK     1       2.033   0.348  -3.475  1.00  0.00     0.051 C 
BRANCH  16  18
HETATM   18  C15 UNK     1       2.887   2.117  -1.918  1.00  0.00     0.288 C 
HETATM   19  O5  UNK     1       2.502   3.250  -1.659  1.00  0.00    -0.262 OA
BRANCH  18  20
HETATM   20  O3  UNK     1       4.187   1.736  -2.091  1.00  0.00    -0.320 OA
BRANCH  20  21
HETATM   21  C16 UNK     1       5.159   2.777  -1.949  1.00  0.00     0.174 C 
HETATM   22  C17 UNK     1       6.540   2.195  -2.168  1.00  0.00     0.034 C 
ENDBRANCH  20  21
ENDBRANCH  18  20
ENDBRANCH  16  18
ENDBRANCH  15  16
ENDBRANCH   7  15
TORSDOF 5
