REMARK  6 active torsions:
REMARK  status: ('A' for Active; 'I' for Inactive)
REMARK    1  A    between atoms: C16_21  and  O2_4 
REMARK    2  A    between atoms: C2_7  and  N1_5 
REMARK       I    between atoms: C5_10  and  N1_5 
REMARK    3  A    between atoms: C1_6  and  C3_8 
REMARK    4  A    between atoms: C1_6  and  C5_10 
REMARK    5  A    between atoms: C2_7  and  C4_9 
REMARK    6  A    between atoms: C6_11  and  C7_12 
ROOT
HETATM    1  C1  UNK     1      -0.160  -0.176   1.079  1.00  0.00     0.043 C 
HETATM    2  C6  UNK     1      -0.800  -0.626   2.179  1.00  0.00     0.029 C 
ENDROOT
BRANCH   1   3
HETATM    3  C3  UNK     1      -0.807  -0.145  -0.247  1.00  0.00    -0.021 A 
HETATM    4  C8  UNK     1      -1.507   0.986  -0.631  1.00  0.00     0.012 A 
HETATM    5  C19 UNK     1      -2.118   1.016  -1.885  1.00  0.00     0.001 A 
HETATM    6  C22 UNK     1      -2.021  -0.086  -2.734  1.00  0.00     0.000 A 
HETATM    7  C20 UNK     1      -1.312  -1.218  -2.330  1.00  0.00     0.001 A 
HETATM    8  C9  UNK     1      -0.701  -1.247  -1.077  1.00  0.00     0.012 A 
ENDBRANCH   1   3
BRANCH   1   9
HETATM    9  C5  UNK     1       1.265   0.274   1.280  1.00  0.00     0.252 C 
HETATM   10  O1  UNK     1       1.799   0.253   2.388  1.00  0.00    -0.268 OA
HETATM   11  N1  UNK     1       1.893   0.709   0.124  1.00  0.00    -0.353 N 
HETATM   12  H3  UNK     1       1.401   0.698  -0.763  1.00  0.00     0.163 HD
BRANCH  11  13
HETATM   13  C2  UNK     1       3.257   1.186   0.120  1.00  0.00     0.163 C 
BRANCH  13  14
HETATM   14  C4  UNK     1       3.688   1.643  -1.244  1.00  0.00    -0.019 A 
HETATM   15  C10 UNK     1       3.514   2.961  -1.655  1.00  0.00     0.043 A 
HETATM   16 Cl1  UNK     1       2.794   4.142  -0.622  1.00  0.00    -0.084 Cl
HETATM   17  C17 UNK     1       3.927   3.349  -2.930  1.00  0.00     0.048 A 
HETATM   18  C21 UNK     1       4.512   2.417  -3.787  1.00  0.00     0.035 A 
HETATM   19  C18 UNK     1       4.684   1.097  -3.369  1.00  0.00     0.024 A 
HETATM   20 Cl2  UNK     1       5.022   2.894  -5.360  1.00  0.00    -0.084 Cl
HETATM   21  C11 UNK     1       4.271   0.709  -2.095  1.00  0.00     0.012 A 
ENDBRANCH  13  14
ENDBRANCH  11  13
ENDBRANCH   1   9
BRANCH   2  22
HETATM   22  C7  UNK     1      -2.176  -1.144   2.221  1.00  0.00    -0.035 A 
HETATM   23  C12 UNK     1      -3.228  -0.267   2.438  1.00  0.00     0.014 A 
HETATM   24  C14 UNK     1      -4.533  -0.759   2.478  1.00  0.00     0.037 A 
HETATM   25  C16 UNK     1      -4.770  -2.122   2.299  1.00  0.00     0.068 A 
HETATM   26  C15 UNK     1      -3.703  -2.993   2.080  1.00  0.00     0.037 A 
HETATM   27  C13 UNK     1      -2.398  -2.501   2.041  1.00  0.00     0.014 A 
BRANCH  25  28
HETATM   28  O2  UNK     1      -6.043  -2.601   2.337  1.00  0.00    -0.356 OA
HETATM   29  C23 UNK     1      -6.215  -4.005   2.146  1.00  0.00     0.210 C 
ENDBRANCH  25  28
ENDBRANCH   2  22
TORSDOF 6
