REMARK  4 active torsions:
REMARK  status: ('A' for Active; 'I' for Inactive)
REMARK    1  A    between atoms: C5_10  and  O2_2 
REMARK    2  A    between atoms: C9_14  and  O4_4 
REMARK    3  A    between atoms: C13_18  and  O5_5 
REMARK    4  A    between atoms: C2_7  and  C4_9 
ROOT
HETATM    1  O1  UNK     1      -0.716  -0.112  -0.832  1.00  0.00    -0.306 OA
HETATM    2  O3  UNK     1      -0.886   0.917   3.107  1.00  0.00    -0.284 OA
HETATM    3  C1  UNK     1      -1.750  -0.392   1.345  1.00  0.00     0.053 A 
HETATM    4  C2  UNK     1       0.156   0.818  -0.290  1.00  0.00     0.123 A 
HETATM    5  C3  UNK     1      -1.642  -0.698  -0.009  1.00  0.00     0.090 A 
HETATM    6  C5  UNK     1       0.151   1.209   0.998  1.00  0.00     0.152 A 
HETATM    7  C6  UNK     1      -0.836   0.604   1.925  1.00  0.00     0.220 A 
HETATM    8  C7  UNK     1      -2.715  -1.022   2.136  1.00  0.00     0.055 A 
HETATM    9  C8  UNK     1      -2.500  -1.637  -0.583  1.00  0.00     0.041 A 
HETATM   10  C9  UNK     1      -3.571  -1.961   1.560  1.00  0.00     0.066 A 
HETATM   11  C12 UNK     1      -3.464  -2.268   0.203  1.00  0.00     0.039 A 
ENDROOT
BRANCH   4  12
HETATM   12  C4  UNK     1       1.097   1.370  -1.281  1.00  0.00     0.003 A 
HETATM   13  C10 UNK     1       2.336   0.762  -1.483  1.00  0.00     0.051 A 
HETATM   14  C13 UNK     1       3.226   1.285  -2.421  1.00  0.00     0.066 A 
HETATM   15  C15 UNK     1       2.878   2.417  -3.157  1.00  0.00     0.036 A 
HETATM   16  C14 UNK     1       1.639   3.026  -2.956  1.00  0.00     0.004 A 
HETATM   17  C11 UNK     1       0.749   2.503  -2.018  1.00  0.00     0.014 A 
BRANCH  14  18
HETATM   18  O5  UNK     1       4.435   0.691  -2.618  1.00  0.00    -0.361 OA
HETATM   19  H10 UNK     1       4.921   1.184  -3.301  1.00  0.00     0.217 HD
ENDBRANCH  14  18
ENDBRANCH   4  12
BRANCH   6  20
HETATM   20  O2  UNK     1       1.011   2.161   1.499  1.00  0.00    -0.355 OA
HETATM   21  H8  UNK     1       1.599   2.478   0.795  1.00  0.00     0.218 HD
ENDBRANCH   6  20
BRANCH  10  22
HETATM   22  O4  UNK     1      -4.514  -2.579   2.324  1.00  0.00    -0.361 OA
HETATM   23  H9  UNK     1      -4.448  -2.248   3.236  1.00  0.00     0.217 HD
ENDBRANCH  10  22
TORSDOF 4
