REMARK  3 active torsions:
REMARK  status: ('A' for Active; 'I' for Inactive)
REMARK    1  A    between atoms: C11_17  and  O4_4 
REMARK    2  A    between atoms: C15_21  and  O4_4 
REMARK       I    between atoms: C5_11  and  N1_6 
REMARK    3  A    between atoms: C5_11  and  C6_12 
ROOT
HETATM    1  O2  UNK     1       1.358   1.231   0.304  1.00  0.00    -0.271 OA
HETATM    2  O5  UNK     1       0.368   0.961   2.346  1.00  0.00    -0.259 OA
HETATM    3  C6  UNK     1      -0.998   0.593   0.445  1.00  0.00     0.108 A 
HETATM    4  C7  UNK     1       0.055   0.879  -1.718  1.00  0.00     0.002 A 
HETATM    5  C8  UNK     1      -1.099   0.566  -0.889  1.00  0.00     0.037 A 
HETATM    6  C9  UNK     1       1.259   1.205  -1.100  1.00  0.00     0.123 A 
HETATM    7  C10 UNK     1       0.272   0.937   1.124  1.00  0.00     0.304 A 
HETATM    8  C11 UNK     1       2.401   1.514  -1.836  1.00  0.00     0.103 A 
HETATM    9  C12 UNK     1      -0.004   0.864  -3.113  1.00  0.00     0.014 A 
HETATM   10  C13 UNK     1       2.333   1.496  -3.228  1.00  0.00     0.040 A 
HETATM   11  C14 UNK     1       1.133   1.172  -3.865  1.00  0.00     0.004 A 
ENDROOT
BRANCH   3  12
HETATM   12  C5  UNK     1      -2.224   0.261   1.198  1.00  0.00     0.260 C 
HETATM   13  O3  UNK     1      -2.980   1.189   1.491  1.00  0.00    -0.267 OA
HETATM   14  N1  UNK     1      -2.445  -1.071   1.531  1.00  0.00    -0.344 N 
HETATM   15  C1  UNK     1      -3.649  -1.434   2.280  1.00  0.00     0.152 C 
HETATM   16  C2  UNK     1      -1.518  -2.194   1.334  1.00  0.00     0.152 C 
HETATM   17  C3  UNK     1      -4.309  -2.656   1.657  1.00  0.00     0.187 C 
HETATM   18  O1  UNK     1      -3.374  -3.735   1.571  1.00  0.00    -0.388 OA
HETATM   19  C4  UNK     1      -2.260  -3.387   0.745  1.00  0.00     0.187 C 
ENDBRANCH   3  12
BRANCH   8  20
HETATM   20  O4  UNK     1       3.571   1.830  -1.220  1.00  0.00    -0.349 OA
BRANCH  20  21
HETATM   21  C15 UNK     1       4.778   1.498  -1.906  1.00  0.00     0.171 C 
HETATM   22  C16 UNK     1       5.865   1.228  -0.888  1.00  0.00     0.034 C 
ENDBRANCH  20  21
ENDBRANCH   8  20
TORSDOF 3
