REMARK  4 active torsions:
REMARK  status: ('A' for Active; 'I' for Inactive)
REMARK    1  A    between atoms: N1_7  and  S1_1 
REMARK    2  A    between atoms: C5_14  and  N2_8 
REMARK    3  A    between atoms: C5_14  and  N3_9 
REMARK    4  A    between atoms: C7_16  and  N3_9 
ROOT
HETATM    1  N3  UNK     1      -1.372  -0.162  -2.527  1.00  0.00    -0.333 N 
HETATM    2  H12 UNK     1      -2.053  -0.005  -3.266  1.00  0.00     0.168 HD
ENDROOT
BRANCH   1   3
HETATM    3  C5  UNK     1      -0.065  -0.168  -2.939  1.00  0.00     0.174 C 
HETATM    4  S2  UNK     1       0.317  -0.607  -4.513  1.00  0.00    -0.041 SA
BRANCH   3   5
HETATM    5  N2  UNK     1       0.914   0.239  -2.094  1.00  0.00    -0.356 N 
HETATM    6  C3  UNK     1       0.650   1.177  -1.010  1.00  0.00     0.140 C 
HETATM    7  C1  UNK     1       1.682   2.298  -1.002  1.00  0.00     0.127 C 
HETATM    8  N1  UNK     1       3.057   1.708  -0.978  1.00  0.00    -0.208 NA
HETATM    9  C2  UNK     1       3.297   0.820  -2.158  1.00  0.00     0.127 C 
HETATM   10  C4  UNK     1       2.265  -0.302  -2.166  1.00  0.00     0.140 C 
BRANCH   8  11
HETATM   11  S1  UNK     1       4.320   2.809  -0.621  1.00  0.00     0.207 S 
HETATM   12  C6  UNK     1       4.346   3.713  -2.147  1.00  0.00     0.180 C 
HETATM   13  O1  UNK     1       5.560   2.074  -0.514  1.00  0.00    -0.212 OA
HETATM   14  O2  UNK     1       3.873   3.705   0.423  1.00  0.00    -0.212 OA
ENDBRANCH   8  11
ENDBRANCH   3   5
ENDBRANCH   1   3
BRANCH   1  15
HETATM   15  C7  UNK     1      -1.946  -0.356  -1.247  1.00  0.00     0.036 A 
HETATM   16  C11 UNK     1      -3.150   0.256  -0.945  1.00  0.00     0.030 A 
HETATM   17  C12 UNK     1      -3.723   0.068   0.317  1.00  0.00     0.017 A 
HETATM   18  C9  UNK     1      -3.091  -0.732   1.279  1.00  0.00     0.004 A 
HETATM   19  C10 UNK     1      -1.879  -1.328   0.930  1.00  0.00     0.092 A 
HETATM   20  C13 UNK     1      -3.633  -0.973   2.623  1.00  0.00    -0.043 A 
HETATM   21  O3  UNK     1      -1.181  -2.147   1.840  1.00  0.00    -0.275 OA
HETATM   22  C8  UNK     1      -1.295  -1.151  -0.326  1.00  0.00     0.067 A 
HETATM   23  C16 UNK     1      -1.667  -2.392   3.115  1.00  0.00     0.288 A 
HETATM   24  C14 UNK     1      -2.947  -1.756   3.468  1.00  0.00     0.090 A 
HETATM   25  O4  UNK     1      -1.068  -3.102   3.915  1.00  0.00    -0.260 OA
HETATM   26  C15 UNK     1      -4.934  -0.346   3.030  1.00  0.00     0.049 C 
ENDBRANCH   1  15
TORSDOF 4
