REMARK  3 active torsions:
REMARK  status: ('A' for Active; 'I' for Inactive)
REMARK    1  A    between atoms: C6_11  and  N1_4 
REMARK    2  A    between atoms: C11_16  and  N2_5 
REMARK    3  A    between atoms: C6_11  and  N2_5 
ROOT
HETATM    1  N2  UNK     1      -1.310   0.375  -2.552  1.00  0.00    -0.333 N 
HETATM    2  H11 UNK     1      -1.993   0.749  -3.208  1.00  0.00     0.168 HD
ENDROOT
BRANCH   1   3
HETATM    3  C11 UNK     1      -1.851   0.043  -1.286  1.00  0.00     0.036 A 
HETATM    4  C15 UNK     1      -2.937   0.754  -0.806  1.00  0.00     0.030 A 
HETATM    5  C16 UNK     1      -3.475   0.432   0.445  1.00  0.00     0.017 A 
HETATM    6  C12 UNK     1      -2.927  -0.601   1.216  1.00  0.00     0.004 A 
HETATM    7  C17 UNK     1      -3.439  -0.993   2.536  1.00  0.00    -0.043 A 
HETATM    8  C13 UNK     1      -1.832  -1.289   0.692  1.00  0.00     0.092 A 
HETATM    9  C18 UNK     1      -2.839  -1.997   3.193  1.00  0.00     0.090 A 
HETATM   10  C19 UNK     1      -4.615  -0.272   3.128  1.00  0.00     0.049 C 
HETATM   11  C20 UNK     1      -1.684  -2.733   2.653  1.00  0.00     0.288 A 
HETATM   12  O1  UNK     1      -1.223  -2.341   1.406  1.00  0.00    -0.275 OA
HETATM   13  O2  UNK     1      -1.161  -3.646   3.282  1.00  0.00    -0.260 OA
HETATM   14  C14 UNK     1      -1.284  -0.980  -0.554  1.00  0.00     0.067 A 
ENDBRANCH   1   3
BRANCH   1  15
HETATM   15  C6  UNK     1      -0.038   0.260  -3.048  1.00  0.00     0.174 C 
HETATM   16  S1  UNK     1       0.206   0.051  -4.695  1.00  0.00    -0.041 SA
BRANCH  15  17
HETATM   17  N1  UNK     1       1.027   0.376  -2.215  1.00  0.00    -0.353 N 
HETATM   18  C1  UNK     1       2.237  -0.409  -2.412  1.00  0.00     0.130 C 
HETATM   19  C2  UNK     1       3.452   0.510  -2.476  1.00  0.00     0.059 C 
HETATM   20  C4  UNK     1       3.477   1.488  -1.327  1.00  0.00    -0.049 A 
HETATM   21  C5  UNK     1       2.289   1.842  -0.659  1.00  0.00    -0.034 A 
HETATM   22  C7  UNK     1       4.685   2.096  -0.959  1.00  0.00     0.008 A 
HETATM   23  C3  UNK     1       0.966   1.214  -1.022  1.00  0.00     0.164 C 
HETATM   24  C8  UNK     1       2.339   2.775   0.385  1.00  0.00     0.009 A 
HETATM   25  C10 UNK     1       3.548   3.365   0.751  1.00  0.00     0.001 A 
HETATM   26  C9  UNK     1       4.720   3.028   0.077  1.00  0.00     0.001 A 
ENDBRANCH  15  17
ENDBRANCH   1  15
TORSDOF 3
