REMARK  2 active torsions:
REMARK  status: ('A' for Active; 'I' for Inactive)
REMARK    1  A    between atoms: C11_17  and  N1_5 
REMARK       I    between atoms: C8_14  and  N1_5 
REMARK    2  A    between atoms: C3_9  and  C8_14 
ROOT
HETATM    1  O1  UNK     1       2.268   0.892   0.413  1.00  0.00    -0.274 OA
HETATM    2  O2  UNK     1       0.850  -0.254   1.791  1.00  0.00    -0.259 OA
HETATM    3  C1  UNK     1       1.659   1.241  -1.914  1.00  0.00    -0.001 A 
HETATM    4  C2  UNK     1       2.556   1.411  -0.864  1.00  0.00     0.089 A 
HETATM    5  C3  UNK     1       0.153   0.026  -0.457  1.00  0.00     0.108 A 
HETATM    6  C4  UNK     1       0.421   0.517  -1.672  1.00  0.00     0.037 A 
HETATM    7  C5  UNK     1       1.980   1.771  -3.166  1.00  0.00     0.014 A 
HETATM    8  C6  UNK     1       1.092   0.195   0.676  1.00  0.00     0.304 A 
HETATM    9  C7  UNK     1       3.759   2.094  -1.029  1.00  0.00     0.038 A 
HETATM   10  C9  UNK     1       3.183   2.458  -3.348  1.00  0.00     0.001 A 
HETATM   11  C10 UNK     1       4.071   2.619  -2.281  1.00  0.00     0.003 A 
ENDROOT
BRANCH   5  12
HETATM   12  C8  UNK     1      -1.121  -0.689  -0.312  1.00  0.00     0.263 C 
HETATM   13  O3  UNK     1      -1.598  -1.285  -1.275  1.00  0.00    -0.267 OA
HETATM   14  N1  UNK     1      -1.639  -0.581   0.971  1.00  0.00    -0.305 N 
HETATM   15  H6  UNK     1      -1.143  -0.035   1.671  1.00  0.00     0.170 HD
BRANCH  14  16
HETATM   16  C11 UNK     1      -2.843  -1.139   1.467  1.00  0.00     0.159 A 
HETATM   17  N2  UNK     1      -3.227  -0.964   2.714  1.00  0.00    -0.111 NA
HETATM   18  O4  UNK     1      -4.429  -1.657   2.788  1.00  0.00    -0.224 OA
HETATM   19  C13 UNK     1      -4.702  -2.211   1.579  1.00  0.00     0.174 A 
HETATM   20  C12 UNK     1      -3.703  -1.902   0.694  1.00  0.00     0.079 A 
ENDBRANCH  14  16
ENDBRANCH   5  12
TORSDOF 2
