REMARK  3 active torsions:
REMARK  status: ('A' for Active; 'I' for Inactive)
REMARK    1  A    between atoms: C7_13  and  O2_3 
REMARK    2  A    between atoms: C1_7  and  C4_10 
REMARK    3  A    between atoms: C2_8  and  C7_13 
ROOT
HETATM    1  O1  UNK     1      -0.887   0.052   2.709  1.00  0.00    -0.321 OA
HETATM    2  O3  UNK     1      -0.160  -0.487  -1.270  1.00  0.00    -0.287 OA
HETATM    3  C4  UNK     1       0.611   0.328   0.823  1.00  0.00     0.058 A 
HETATM    4  C5  UNK     1      -0.376  -0.323  -0.076  1.00  0.00     0.196 A 
HETATM    5  C6  UNK     1      -1.636  -0.765   0.549  1.00  0.00     0.049 A 
HETATM    6  C8  UNK     1       0.282   0.459   2.114  1.00  0.00     0.156 A 
HETATM    7  C9  UNK     1      -1.827  -0.553   1.914  1.00  0.00     0.089 A 
HETATM    8  C10 UNK     1      -2.629  -1.387  -0.212  1.00  0.00     0.025 A 
HETATM    9  C11 UNK     1      -3.813  -1.797   0.402  1.00  0.00    -0.061 A 
HETATM   10  C12 UNK     1      -3.012  -0.964   2.526  1.00  0.00     0.039 A 
HETATM   11  C13 UNK     1      -4.004  -1.586   1.768  1.00  0.00     0.009 A 
HETATM   12  C14 UNK     1      -4.878  -2.463  -0.403  1.00  0.00     0.048 C 
ENDROOT
BRANCH   3  13
HETATM   13  C1  UNK     1       1.903   0.794   0.241  1.00  0.00     0.322 C 
HETATM   14  S1  UNK     1       2.836  -0.612  -0.438  1.00  0.00    -0.126 SA
HETATM   15  C3  UNK     1       3.261   0.268  -1.960  1.00  0.00     0.123 C 
HETATM   16  C2  UNK     1       2.973   1.725  -1.628  1.00  0.00     0.328 C 
HETATM   17  N1  UNK     1       1.730   1.773  -0.843  1.00  0.00     0.117 N 
HETATM   18  H5  UNK     1       0.964   1.466  -1.444  1.00  0.00     0.319 HD
BRANCH  16  19
HETATM   19  C7  UNK     1       2.751   2.539  -2.860  1.00  0.00     0.175 C 
HETATM   20  O4  UNK     1       1.688   3.092  -3.101  1.00  0.00    -0.648 OA
BRANCH  19  21
HETATM   21  O2  UNK     1       3.849   2.585  -3.653  1.00  0.00    -0.775 OA
HETATM   22  H13 UNK     1       3.696   3.121  -4.460  1.00  0.00     0.167 HD
ENDBRANCH  19  21
ENDBRANCH  16  19
ENDBRANCH   3  13
TORSDOF 3
