REMARK  4 active torsions:
REMARK  status: ('A' for Active; 'I' for Inactive)
REMARK    1  A    between atoms: C17_22  and  O4_4 
REMARK       I    between atoms: C5_10  and  N1_5 
REMARK    2  A    between atoms: C5_10  and  C6_11 
REMARK    3  A    between atoms: C6_11  and  C7_12 
REMARK    4  A    between atoms: C7_12  and  C8_13 
ROOT
HETATM    1  O2  UNK     1      -2.402  -0.834  -0.742  1.00  0.00    -0.274 OA
HETATM    2  O3  UNK     1      -1.080  -0.460  -2.549  1.00  0.00    -0.259 OA
HETATM    3  C8  UNK     1       0.037  -0.717  -0.460  1.00  0.00     0.025 A 
HETATM    4  C9  UNK     1      -0.077  -0.898   0.873  1.00  0.00    -0.037 A 
HETATM    5  C10 UNK     1      -1.415  -1.098   1.466  1.00  0.00     0.005 A 
HETATM    6  C11 UNK     1      -1.166  -0.660  -1.341  1.00  0.00     0.295 A 
HETATM    7  C12 UNK     1      -2.532  -1.058   0.637  1.00  0.00     0.092 A 
HETATM    8  C13 UNK     1       1.096  -0.894   1.821  1.00  0.00     0.050 C 
HETATM    9  C14 UNK     1      -1.640  -1.339   2.831  1.00  0.00     0.017 A 
HETATM   10  C15 UNK     1      -3.832  -1.237   1.117  1.00  0.00     0.075 A 
HETATM   11  C16 UNK     1      -2.936  -1.522   3.329  1.00  0.00     0.038 A 
HETATM   12  C17 UNK     1      -4.032  -1.470   2.473  1.00  0.00     0.070 A 
ENDROOT
BRANCH   3  13
HETATM   13  C7  UNK     1       1.341  -0.564  -1.200  1.00  0.00     0.055 C 
BRANCH  13  14
HETATM   14  C6  UNK     1       1.774   0.888  -1.295  1.00  0.00     0.108 C 
BRANCH  14  15
HETATM   15  C5  UNK     1       3.100   1.016  -2.001  1.00  0.00     0.220 C 
HETATM   16  O1  UNK     1       3.688   0.014  -2.410  1.00  0.00    -0.273 OA
HETATM   17  N1  UNK     1       3.581   2.306  -2.137  1.00  0.00    -0.352 N 
HETATM   18  C3  UNK     1       4.849   2.597  -2.788  1.00  0.00     0.126 C 
HETATM   19  C4  UNK     1       2.934   3.531  -1.678  1.00  0.00     0.126 C 
HETATM   20  C1  UNK     1       4.827   4.102  -3.007  1.00  0.00     0.021 C 
HETATM   21  C2  UNK     1       4.003   4.604  -1.828  1.00  0.00     0.021 C 
ENDBRANCH  14  15
ENDBRANCH  13  14
ENDBRANCH   3  13
BRANCH  12  22
HETATM   22  O4  UNK     1      -5.289  -1.648   2.959  1.00  0.00    -0.356 OA
HETATM   23  C18 UNK     1      -6.364  -1.581   2.023  1.00  0.00     0.210 C 
ENDBRANCH  12  22
TORSDOF 4
