REMARK  6 active torsions:
REMARK  status: ('A' for Active; 'I' for Inactive)
REMARK    1  A    between atoms: C5_11  and  N1_4 
REMARK    2  A    between atoms: C6_12  and  N2_5 
REMARK    3  A    between atoms: C17_23  and  N3_6 
REMARK       I    between atoms: C9_15  and  N3_6 
REMARK    4  A    between atoms: C5_11  and  C7_13 
REMARK    5  A    between atoms: C6_12  and  C9_15 
REMARK    6  A    between atoms: C13_19  and  C18_24 
ROOT
HETATM    1  N1  UNK     1       1.239  -0.322  -1.581  1.00  0.00     0.096 N 
HETATM    2  N2  UNK     1      -1.440  -1.332  -1.180  1.00  0.00     0.100 N 
HETATM    3  C1  UNK     1       0.569  -1.133  -2.605  1.00  0.00     0.303 C 
HETATM    4  C2  UNK     1       0.751  -0.680  -0.243  1.00  0.00     0.303 C 
HETATM    5  C3  UNK     1      -0.953  -0.974  -2.518  1.00  0.00     0.303 C 
HETATM    6  C4  UNK     1      -0.770  -0.520  -0.157  1.00  0.00     0.303 C 
ENDROOT
BRANCH   1   7
HETATM    7  C5  UNK     1       2.690  -0.478  -1.663  1.00  0.00     0.312 C 
BRANCH   7   8
HETATM    8  C7  UNK     1       3.414   0.642  -1.001  1.00  0.00    -0.011 A 
HETATM    9  C10 UNK     1       3.745   0.582   0.297  1.00  0.00     0.092 A 
HETATM   10  C14 UNK     1       4.460   1.663   0.995  1.00  0.00     0.288 A 
HETATM   11  O1  UNK     1       4.791   2.779   0.242  1.00  0.00    -0.275 OA
HETATM   12  O3  UNK     1       4.748   1.571   2.183  1.00  0.00    -0.260 OA
HETATM   13  C11 UNK     1       4.457   2.871  -1.124  1.00  0.00     0.090 A 
HETATM   14  C8  UNK     1       3.778   1.838  -1.772  1.00  0.00     0.007 A 
HETATM   15  C15 UNK     1       4.839   4.041  -1.783  1.00  0.00     0.039 A 
HETATM   16  C12 UNK     1       3.482   2.007  -3.132  1.00  0.00     0.022 A 
HETATM   17  C13 UNK     1       3.858   3.175  -3.806  1.00  0.00    -0.058 A 
HETATM   18  C16 UNK     1       4.536   4.190  -3.132  1.00  0.00     0.010 A 
BRANCH  17  19
HETATM   19  C18 UNK     1       3.533   3.333  -5.254  1.00  0.00     0.034 C 
HETATM   20  C21 UNK     1       2.173   3.991  -5.473  1.00  0.00     0.010 C 
ENDBRANCH  17  19
ENDBRANCH   7   8
ENDBRANCH   1   7
BRANCH   2  21
HETATM   21  C6  UNK     1      -2.891  -1.178  -1.097  1.00  0.00     0.375 C 
BRANCH  21  22
HETATM   22  C9  UNK     1      -3.420  -1.995   0.069  1.00  0.00     0.250 C 
HETATM   23  O2  UNK     1      -3.271  -3.210   0.147  1.00  0.00    -0.271 OA
HETATM   24  N3  UNK     1      -4.063  -1.165   0.986  1.00  0.00    -0.325 N 
HETATM   25  H15 UNK     1      -4.092  -0.173   0.771  1.00  0.00     0.169 HD
BRANCH  24  26
HETATM   26  C17 UNK     1      -4.686  -1.539   2.200  1.00  0.00     0.041 A 
HETATM   27  C19 UNK     1      -5.292  -0.584   3.016  1.00  0.00    -0.035 A 
HETATM   28  C23 UNK     1      -5.903  -0.973   4.209  1.00  0.00     0.009 A 
HETATM   29  C24 UNK     1      -5.304   0.862   2.638  1.00  0.00     0.050 C 
HETATM   30  C25 UNK     1      -5.908  -2.316   4.585  1.00  0.00     0.007 A 
HETATM   31  C22 UNK     1      -5.301  -3.271   3.769  1.00  0.00    -0.060 A 
HETATM   32  C20 UNK     1      -4.691  -2.883   2.576  1.00  0.00     0.037 A 
HETATM   33  C26 UNK     1      -5.307  -4.707   4.171  1.00  0.00     0.048 C 
ENDBRANCH  24  26
ENDBRANCH  21  22
ENDBRANCH   2  21
TORSDOF 6
