REMARK  5 active torsions:
REMARK  status: ('A' for Active; 'I' for Inactive)
REMARK    1  A    between atoms: C16_27  and  O3_4 
REMARK    2  A    between atoms: C3_14  and  N1_9 
REMARK       I    between atoms: C9_20  and  N1_9 
REMARK    3  A    between atoms: C13_24  and  N2_10 
REMARK    4  A    between atoms: C4_15  and  C9_20 
REMARK    5  A    between atoms: C16_27  and  C8_19 
ROOT
HETATM    1  S1  UNK     1      -2.378  -1.060   2.558  1.00  0.00    -0.064 SA
HETATM    2  N3  UNK     1      -3.006  -1.947  -2.416  1.00  0.00    -0.191 NA
HETATM    3  C2  UNK     1      -4.198  -1.964   0.986  1.00  0.00    -0.015 A 
HETATM    4  C3  UNK     1      -2.053  -1.150   0.893  1.00  0.00     0.099 A 
HETATM    5  C6  UNK     1      -3.084  -1.642   0.158  1.00  0.00     0.086 A 
HETATM    6  C8  UNK     1      -3.949  -1.696   2.314  1.00  0.00     0.089 A 
HETATM    7  C14 UNK     1      -5.479  -2.523   0.483  1.00  0.00     0.051 C 
HETATM    8  C17 UNK     1      -3.041  -1.811  -1.263  1.00  0.00     0.103 C 
ENDROOT
BRANCH   4   9
HETATM    9  N1  UNK     1      -0.784  -0.712   0.501  1.00  0.00    -0.316 N 
HETATM   10  C9  UNK     1      -0.456  -0.139  -0.720  1.00  0.00     0.262 C 
HETATM   11  O2  UNK     1      -1.190   0.095  -1.678  1.00  0.00    -0.267 OA
HETATM   12  H2  UNK     1      -0.123  -0.631   1.270  1.00  0.00     0.170 HD
BRANCH  10  13
HETATM   13  C4  UNK     1       0.968   0.204  -0.799  1.00  0.00     0.108 A 
HETATM   14  C12 UNK     1       2.002  -0.563  -0.068  1.00  0.00     0.304 A 
HETATM   15  O1  UNK     1       3.320  -0.140  -0.222  1.00  0.00    -0.274 OA
HETATM   16  O4  UNK     1       1.718  -1.522   0.641  1.00  0.00    -0.259 OA
HETATM   17  C5  UNK     1       3.657   0.962  -1.032  1.00  0.00     0.089 A 
HETATM   18  C1  UNK     1       2.669   1.668  -1.710  1.00  0.00     0.001 A 
HETATM   19  C11 UNK     1       5.003   1.309  -1.125  1.00  0.00     0.041 A 
HETATM   20  C7  UNK     1       1.283   1.251  -1.570  1.00  0.00     0.037 A 
HETATM   21  C10 UNK     1       3.043   2.755  -2.505  1.00  0.00     0.050 A 
HETATM   22  C13 UNK     1       4.390   3.116  -2.607  1.00  0.00     0.103 A 
HETATM   23  C15 UNK     1       5.367   2.395  -1.918  1.00  0.00     0.039 A 
BRANCH  22  24
HETATM   24  N2  UNK     1       4.766   4.222  -3.415  1.00  0.00    -0.116 N 
HETATM   25  O6  UNK     1       5.979   4.532  -3.494  1.00  0.00    -0.532 OA
HETATM   26  O7  UNK     1       3.875   4.859  -4.027  1.00  0.00    -0.532 OA
ENDBRANCH  22  24
ENDBRANCH  10  13
ENDBRANCH   4   9
BRANCH   6  27
HETATM   27  C16 UNK     1      -4.799  -1.876   3.447  1.00  0.00     0.300 C 
HETATM   28  O5  UNK     1      -5.687  -2.743   3.576  1.00  0.00    -0.259 OA
BRANCH  27  29
HETATM   29  O3  UNK     1      -4.540  -0.958   4.446  1.00  0.00    -0.322 OA
HETATM   30  C18 UNK     1      -5.332  -1.040   5.636  1.00  0.00     0.213 C 
ENDBRANCH  27  29
ENDBRANCH   6  27
TORSDOF 5
