REMARK  5 active torsions:
REMARK  status: ('A' for Active; 'I' for Inactive)
REMARK    1  A    between atoms: C6_12  and  O2_2 
REMARK    2  A    between atoms: C12_18  and  O4_4 
REMARK    3  A    between atoms: C13_19  and  O5_5 
REMARK    4  A    between atoms: C15_21  and  O6_6 
REMARK    5  A    between atoms: C2_8  and  C5_11 
ROOT
HETATM    1  O1  UNK     1       1.967   0.981   1.006  1.00  0.00    -0.321 OA
HETATM    2  O3  UNK     1      -0.847   0.193  -1.841  1.00  0.00    -0.286 OA
HETATM    3  C1  UNK     1       1.320   0.958  -1.333  1.00  0.00     0.082 A 
HETATM    4  C2  UNK     1      -0.248   0.146   0.462  1.00  0.00     0.048 A 
HETATM    5  C3  UNK     1       2.239   1.219  -0.317  1.00  0.00     0.094 A 
HETATM    6  C4  UNK     1      -0.002   0.408  -0.983  1.00  0.00     0.200 A 
HETATM    7  C6  UNK     1       1.652   1.221  -2.665  1.00  0.00     0.085 A 
HETATM    8  C7  UNK     1       0.740   0.449   1.318  1.00  0.00     0.159 A 
HETATM    9  C8  UNK     1       3.494   1.744  -0.627  1.00  0.00     0.074 A 
HETATM   10  C11 UNK     1       2.908   1.746  -2.972  1.00  0.00     0.074 A 
HETATM   11  C12 UNK     1       3.827   2.007  -1.955  1.00  0.00     0.071 A 
ENDROOT
BRANCH   4  12
HETATM   12  C5  UNK     1      -1.510  -0.438   0.945  1.00  0.00    -0.017 A 
HETATM   13  C10 UNK     1      -2.571   0.392   1.313  1.00  0.00     0.015 A 
HETATM   14  C14 UNK     1      -3.767  -0.161   1.770  1.00  0.00     0.040 A 
HETATM   15  C15 UNK     1      -3.905  -1.546   1.860  1.00  0.00     0.098 A 
HETATM   16  C13 UNK     1      -2.847  -2.378   1.492  1.00  0.00     0.099 A 
HETATM   17  C9  UNK     1      -1.651  -1.824   1.035  1.00  0.00     0.052 A 
BRANCH  15  18
HETATM   18  O6  UNK     1      -5.077  -2.075   2.309  1.00  0.00    -0.358 OA
HETATM   19  H10 UNK     1      -5.692  -1.351   2.516  1.00  0.00     0.217 HD
ENDBRANCH  15  18
BRANCH  16  20
HETATM   20  O5  UNK     1      -2.971  -3.732   1.574  1.00  0.00    -0.358 OA
HETATM   21  H9  UNK     1      -3.861  -3.938   1.908  1.00  0.00     0.217 HD
ENDBRANCH  16  20
ENDBRANCH   4  12
BRANCH   7  22
HETATM   22  O2  UNK     1       0.794   0.984  -3.696  1.00  0.00    -0.360 OA
HETATM   23  H7  UNK     1      -0.035   0.602  -3.370  1.00  0.00     0.217 HD
ENDBRANCH   7  22
BRANCH  11  24
HETATM   24  O4  UNK     1       5.051   2.519  -2.261  1.00  0.00    -0.361 OA
HETATM   25  H8  UNK     1       5.111   2.638  -3.225  1.00  0.00     0.217 HD
ENDBRANCH  11  24
TORSDOF 5
