REMARK  2 active torsions:
REMARK  status: ('A' for Active; 'I' for Inactive)
REMARK    1  A    between atoms: C11_18  and  N2_7 
REMARK    2  A    between atoms: C2_9  and  C5_12 
ROOT
HETATM    1  O2  UNK     1       1.964   0.916   1.372  1.00  0.00    -0.274 OA
HETATM    2  O3  UNK     1       0.489   0.023   2.867  1.00  0.00    -0.259 OA
HETATM    3  C1  UNK     1       1.432   0.925  -0.999  1.00  0.00     0.001 A 
HETATM    4  C2  UNK     1      -0.166  -0.007   0.578  1.00  0.00     0.093 A 
HETATM    5  C3  UNK     1       2.305   1.225   0.041  1.00  0.00     0.089 A 
HETATM    6  C4  UNK     1       0.162   0.291  -0.689  1.00  0.00     0.036 A 
HETATM    7  C8  UNK     1       1.806   1.247  -2.306  1.00  0.00     0.050 A 
HETATM    8  C9  UNK     1       0.760   0.299   1.702  1.00  0.00     0.303 A 
HETATM    9  C10 UNK     1       3.537   1.835  -0.187  1.00  0.00     0.041 A 
HETATM   10  C11 UNK     1       3.038   1.859  -2.551  1.00  0.00     0.103 A 
HETATM   11  C12 UNK     1       3.902   2.152  -1.493  1.00  0.00     0.039 A 
ENDROOT
BRANCH   4  12
HETATM   12  C5  UNK     1      -1.428  -0.624   0.848  1.00  0.00     0.187 A 
HETATM   13  O1  UNK     1      -2.299  -0.911  -0.167  1.00  0.00    -0.289 OA
HETATM   14  C6  UNK     1      -3.368  -1.479   0.466  1.00  0.00     0.106 A 
HETATM   15  C13 UNK     1      -4.538  -1.954  -0.113  1.00  0.00     0.040 A 
HETATM   16  C7  UNK     1      -3.090  -1.507   1.824  1.00  0.00     0.093 A 
HETATM   17  C15 UNK     1      -5.477  -2.492   0.774  1.00  0.00     0.003 A 
HETATM   18  C16 UNK     1      -5.236  -2.539   2.153  1.00  0.00     0.002 A 
HETATM   19  C14 UNK     1      -4.042  -2.049   2.700  1.00  0.00     0.034 A 
HETATM   20  N1  UNK     1      -1.851  -0.960   2.054  1.00  0.00    -0.221 NA
ENDBRANCH   4  12
BRANCH  10  21
HETATM   21  N2  UNK     1       3.414   2.184  -3.881  1.00  0.00    -0.116 N 
HETATM   22  O4  UNK     1       4.524   2.734  -4.082  1.00  0.00    -0.532 OA
HETATM   23  O5  UNK     1       2.627   1.913  -4.819  1.00  0.00    -0.532 OA
ENDBRANCH  10  21
TORSDOF 2
