REMARK  2 active torsions:
REMARK  status: ('A' for Active; 'I' for Inactive)
REMARK    1  A    between atoms: C1_7  and  C8_14 
REMARK    2  A    between atoms: C6_12  and  C9_15 
ROOT
HETATM    1  O1  UNK     1       0.892   3.205   1.037  1.00  0.00    -0.293 OA
HETATM    2  N1  UNK     1       0.536  -0.411  -2.131  1.00  0.00    -0.357 N 
HETATM    3  N2  UNK     1      -1.801   1.228  -1.192  1.00  0.00    -0.375 N 
HETATM    4  C1  UNK     1       3.148   2.190  -1.575  1.00  0.00     0.038 C 
HETATM    5  C2  UNK     1       2.610   0.777  -1.817  1.00  0.00     0.068 C 
HETATM    6  C3  UNK     1       0.560   1.435  -0.534  1.00  0.00     0.037 C 
HETATM    7  C4  UNK     1       1.140   0.629  -1.450  1.00  0.00     0.022 C 
HETATM    8  C5  UNK     1       2.863   2.593  -0.135  1.00  0.00     0.094 C 
HETATM    9  C6  UNK     1      -0.872   1.315  -0.078  1.00  0.00     0.160 C 
HETATM   10  C7  UNK     1       1.388   2.482   0.172  1.00  0.00     0.160 C 
HETATM   11  C10 UNK     1      -0.814  -0.654  -2.454  1.00  0.00     0.059 A 
HETATM   12  C11 UNK     1      -1.895   0.156  -2.067  1.00  0.00     0.055 A 
HETATM   13  C15 UNK     1      -1.070  -1.774  -3.280  1.00  0.00     0.032 A 
HETATM   14  C16 UNK     1      -3.182  -0.158  -2.560  1.00  0.00     0.031 A 
HETATM   15  C21 UNK     1      -2.351  -2.075  -3.740  1.00  0.00     0.002 A 
HETATM   16  C22 UNK     1      -3.410  -1.257  -3.385  1.00  0.00     0.002 A 
HETATM   17  H7  UNK     1       1.189  -1.054  -2.570  1.00  0.00     0.166 HD
HETATM   18  H8  UNK     1      -2.616   1.833  -1.137  1.00  0.00     0.160 HD
ENDROOT
BRANCH   9  19
HETATM   19  C9  UNK     1      -1.088   0.189   0.890  1.00  0.00     0.042 A 
HETATM   20  C13 UNK     1      -2.454  -0.034   1.427  1.00  0.00     0.195 A 
HETATM   21  O3  UNK     1      -3.402   0.669   1.104  1.00  0.00    -0.287 OA
HETATM   22  C17 UNK     1      -2.609  -1.153   2.375  1.00  0.00     0.049 A 
HETATM   23  C19 UNK     1      -1.492  -1.920   2.707  1.00  0.00     0.089 A 
HETATM   24  C23 UNK     1      -3.855  -1.444   2.935  1.00  0.00     0.025 A 
HETATM   25  O2  UNK     1      -0.246  -1.679   2.186  1.00  0.00    -0.321 OA
HETATM   26  C24 UNK     1      -1.616  -2.984   3.601  1.00  0.00     0.039 A 
HETATM   27  C14 UNK     1      -0.116  -0.634   1.305  1.00  0.00     0.156 A 
HETATM   28  C26 UNK     1      -2.859  -3.277   4.162  1.00  0.00     0.009 A 
HETATM   29  C25 UNK     1      -3.976  -2.509   3.830  1.00  0.00    -0.061 A 
HETATM   30  C27 UNK     1      -5.303  -2.827   4.432  1.00  0.00     0.048 C 
ENDBRANCH   9  19
BRANCH   4  31
HETATM   31  C8  UNK     1       4.619   2.310  -1.925  1.00  0.00    -0.013 A 
HETATM   32  C12 UNK     1       5.685   1.647  -1.365  1.00  0.00     0.015 A 
HETATM   33  C18 UNK     1       6.921   2.028  -1.963  1.00  0.00     0.008 A 
HETATM   34  C20 UNK     1       6.748   2.967  -2.955  1.00  0.00     0.050 A 
HETATM   35  S1  UNK     1       5.101   3.386  -3.163  1.00  0.00    -0.106 SA
ENDBRANCH   4  31
TORSDOF 2
