REMARK  4 active torsions:
REMARK  status: ('A' for Active; 'I' for Inactive)
REMARK    1  A    between atoms: C5_12  and  N1_5 
REMARK    2  A    between atoms: N1_5  and  N2_6 
REMARK    3  A    between atoms: C12_19  and  N2_6 
REMARK    4  A    between atoms: C12_19  and  N3_7 
ROOT
HETATM    1  O1  UNK     1       0.819   0.664  -2.637  1.00  0.00    -0.274 OA
HETATM    2  O2  UNK     1       0.576   0.614   1.460  1.00  0.00    -0.286 OA
HETATM    3  O3  UNK     1      -1.279  -0.207  -2.858  1.00  0.00    -0.259 OA
HETATM    4  C1  UNK     1      -0.455   0.162  -0.646  1.00  0.00     0.114 A 
HETATM    5  C2  UNK     1       1.841   1.114  -0.453  1.00  0.00     0.049 A 
HETATM    6  C3  UNK     1       0.640   0.627   0.238  1.00  0.00     0.203 A 
HETATM    7  C4  UNK     1       1.889   1.116  -1.842  1.00  0.00     0.093 A 
HETATM    8  C5  UNK     1      -1.579  -0.295  -0.076  1.00  0.00     0.042 C 
HETATM    9  C6  UNK     1      -0.377   0.176  -2.122  1.00  0.00     0.304 A 
HETATM   10  C7  UNK     1       2.940   1.578   0.275  1.00  0.00     0.018 A 
HETATM   11  C8  UNK     1       3.018   1.574  -2.520  1.00  0.00     0.038 A 
HETATM   12  C9  UNK     1      -2.724  -0.780  -0.922  1.00  0.00     0.071 C 
HETATM   13  C10 UNK     1       4.075   2.038  -0.398  1.00  0.00     0.001 A 
HETATM   14  C11 UNK     1       4.114   2.036  -1.792  1.00  0.00     0.003 A 
ENDROOT
BRANCH   8  15
HETATM   15  N1  UNK     1      -1.769  -0.358   1.277  1.00  0.00    -0.302 N 
HETATM   16  H6  UNK     1      -1.161   0.194   1.872  1.00  0.00     0.186 HD
BRANCH  15  17
HETATM   17  N2  UNK     1      -2.044  -1.588   1.788  1.00  0.00    -0.276 N 
HETATM   18  H9  UNK     1      -1.336  -2.302   1.653  1.00  0.00     0.189 HD
BRANCH  17  19
HETATM   19  C12 UNK     1      -3.236  -1.823   2.425  1.00  0.00     0.184 C 
HETATM   20  S1  UNK     1      -3.625  -3.340   3.011  1.00  0.00    -0.040 SA
BRANCH  19  21
HETATM   21  N3  UNK     1      -4.093  -0.765   2.564  1.00  0.00    -0.375 N 
HETATM   22  H10 UNK     1      -3.859   0.156   2.210  1.00  0.00     0.158 HD
HETATM   23  H11 UNK     1      -4.990  -0.869   3.026  1.00  0.00     0.158 HD
ENDBRANCH  19  21
ENDBRANCH  17  19
ENDBRANCH  15  17
ENDBRANCH   8  15
TORSDOF 4
