REMARK  1 active torsions:
REMARK  status: ('A' for Active; 'I' for Inactive)
REMARK    1  A    between atoms: C4_10  and  N1_6 
ROOT
HETATM    1 Cl1  UNK     1      -1.851  -0.468  -2.182  1.00  0.00    -0.080 Cl
HETATM    2  O1  UNK     1       0.973   0.451   1.290  1.00  0.00    -0.273 OA
HETATM    3  O2  UNK     1      -0.567  -0.432   2.730  1.00  0.00    -0.257 OA
HETATM    4  C1  UNK     1       0.506   0.510  -1.116  1.00  0.00     0.022 A 
HETATM    5  C2  UNK     1       1.349   0.779  -0.032  1.00  0.00     0.091 A 
HETATM    6  C3  UNK     1      -0.793  -0.128  -0.850  1.00  0.00     0.086 A 
HETATM    7  C4  UNK     1      -1.102  -0.418   0.419  1.00  0.00     0.200 A 
HETATM    8  C5  UNK     1       0.966   0.871  -2.391  1.00  0.00     0.016 A 
HETATM    9  C6  UNK     1       2.599   1.381  -0.186  1.00  0.00     0.038 A 
HETATM   10  C7  UNK     1      -0.244  -0.151   1.582  1.00  0.00     0.323 A 
HETATM   11  C8  UNK     1       2.217   1.476  -2.560  1.00  0.00     0.001 A 
HETATM   12  C9  UNK     1       3.033   1.730  -1.460  1.00  0.00     0.003 A 
ENDROOT
BRANCH   7  13
HETATM   13  N1  UNK     1      -2.363  -1.035   0.670  1.00  0.00    -0.107 N 
HETATM   14  O3  UNK     1      -3.086  -1.259  -0.309  1.00  0.00    -0.531 OA
HETATM   15  O4  UNK     1      -2.638  -1.298   1.847  1.00  0.00    -0.531 OA
ENDBRANCH   7  13
TORSDOF 1
