REMARK  6 active torsions:
REMARK  status: ('A' for Active; 'I' for Inactive)
REMARK    1  A    between atoms: C11_19  and  O3_4 
REMARK    2  A    between atoms: C20_28  and  O3_4 
REMARK    3  A    between atoms: C3_11  and  N1_8 
REMARK       I    between atoms: C9_17  and  N1_8 
REMARK    4  A    between atoms: C1_9  and  C11_19 
REMARK    5  A    between atoms: C2_10  and  C4_12 
REMARK    6  A    between atoms: C5_13  and  C9_17 
ROOT
HETATM    1  S1  UNK     1      -0.202  -0.339   2.900  1.00  0.00    -0.082 SA
HETATM    2  C1  UNK     1      -1.958  -0.857   1.098  1.00  0.00     0.086 A 
HETATM    3  C2  UNK     1      -2.492  -1.350   2.324  1.00  0.00     0.023 A 
HETATM    4  C3  UNK     1      -0.736  -0.295   1.287  1.00  0.00     0.094 A 
HETATM    5  C6  UNK     1      -1.639  -1.134   3.384  1.00  0.00     0.067 A 
ENDROOT
BRANCH   4   6
HETATM    6  N1  UNK     1       0.137   0.305   0.375  1.00  0.00    -0.316 N 
HETATM    7  C9  UNK     1       1.377   0.855   0.670  1.00  0.00     0.262 C 
HETATM    8  O4  UNK     1       1.945   0.927   1.758  1.00  0.00    -0.267 OA
HETATM    9  H2  UNK     1      -0.194   0.302  -0.586  1.00  0.00     0.169 HD
BRANCH   7  10
HETATM   10  C5  UNK     1       2.031   1.401  -0.525  1.00  0.00     0.108 A 
HETATM   11  C13 UNK     1       1.258   1.948  -1.663  1.00  0.00     0.304 A 
HETATM   12  O6  UNK     1       0.032   1.971  -1.662  1.00  0.00    -0.259 OA
HETATM   13  O1  UNK     1       1.992   2.438  -2.740  1.00  0.00    -0.274 OA
HETATM   14  C10 UNK     1       3.401   2.417  -2.750  1.00  0.00     0.089 A 
HETATM   15  C7  UNK     1       4.108   1.898  -1.670  1.00  0.00    -0.001 A 
HETATM   16  C15 UNK     1       4.048   2.930  -3.872  1.00  0.00     0.038 A 
HETATM   17  C14 UNK     1       5.504   1.894  -1.717  1.00  0.00     0.014 A 
HETATM   18  C8  UNK     1       3.369   1.378  -0.529  1.00  0.00     0.037 A 
HETATM   19  C16 UNK     1       6.167   2.405  -2.836  1.00  0.00     0.001 A 
HETATM   20  C18 UNK     1       5.440   2.922  -3.911  1.00  0.00     0.003 A 
ENDBRANCH   7  10
ENDBRANCH   4   6
BRANCH   2  21
HETATM   21  C11 UNK     1      -2.605  -0.929  -0.189  1.00  0.00     0.297 C 
HETATM   22  O5  UNK     1      -3.834  -0.920  -0.346  1.00  0.00    -0.259 OA
BRANCH  21  23
HETATM   23  O3  UNK     1      -1.729  -1.011  -1.250  1.00  0.00    -0.318 OA
BRANCH  23  24
HETATM   24  C20 UNK     1      -2.305  -1.086  -2.559  1.00  0.00     0.174 C 
HETATM   25  C21 UNK     1      -1.192  -1.169  -3.583  1.00  0.00     0.034 C 
ENDBRANCH  23  24
ENDBRANCH  21  23
ENDBRANCH   2  21
BRANCH   3  26
HETATM   26  C4  UNK     1      -3.796  -2.020   2.493  1.00  0.00     0.086 A 
HETATM   27  C12 UNK     1      -4.565  -1.977   3.632  1.00  0.00     0.040 A 
HETATM   28  C17 UNK     1      -5.719  -2.748   3.355  1.00  0.00     0.027 A 
HETATM   29  C19 UNK     1      -5.572  -3.206   2.067  1.00  0.00     0.142 A 
HETATM   30  O2  UNK     1      -4.402  -2.767   1.534  1.00  0.00    -0.322 OA
ENDBRANCH   3  26
TORSDOF 6
