REMARK  2 active torsions:
REMARK  status: ('A' for Active; 'I' for Inactive)
REMARK    1  A    between atoms: C1_7  and  N2_6 
REMARK    2  A    between atoms: C3_9  and  C7_13 
ROOT
HETATM    1  O1  UNK     1       0.680  -0.544   2.950  1.00  0.00    -0.261 OA
HETATM    2  O2  UNK     1      -0.031  -1.581  -0.543  1.00  0.00    -0.335 OA
HETATM    3  N1  UNK     1       0.738  -1.624   3.936  1.00  0.00    -0.197 NA
HETATM    4  C1  UNK     1       0.953  -1.108   1.667  1.00  0.00     0.255 C 
HETATM    5  C2  UNK     1       1.268  -2.577   1.887  1.00  0.00     0.103 C 
HETATM    6  C3  UNK     1      -0.218  -0.883   0.699  1.00  0.00     0.226 C 
HETATM    7  C4  UNK     1       0.503  -2.848   3.170  1.00  0.00     0.135 C 
HETATM    8  C5  UNK     1       0.853  -3.455   0.740  1.00  0.00    -0.014 A 
HETATM    9  C6  UNK     1       0.249  -2.915  -0.402  1.00  0.00     0.076 A 
HETATM   10  C8  UNK     1       1.110  -4.833   0.781  1.00  0.00     0.010 A 
HETATM   11  C9  UNK     1      -0.357  -1.357   4.861  1.00  0.00     0.143 C 
HETATM   12  C10 UNK     1      -0.067  -3.731  -1.491  1.00  0.00     0.037 A 
HETATM   13  C13 UNK     1       0.776  -5.651  -0.299  1.00  0.00     0.001 A 
HETATM   14  C14 UNK     1       0.191  -5.099  -1.436  1.00  0.00     0.003 A 
ENDROOT
BRANCH   6  15
HETATM   15  C7  UNK     1      -0.516   0.582   0.414  1.00  0.00    -0.024 A 
HETATM   16  C11 UNK     1      -1.402   1.280   1.230  1.00  0.00     0.010 A 
HETATM   17  C15 UNK     1      -1.674   2.623   0.969  1.00  0.00     0.007 A 
HETATM   18  C17 UNK     1      -1.060   3.263  -0.108  1.00  0.00    -0.062 A 
HETATM   19  C16 UNK     1      -0.173   2.560  -0.923  1.00  0.00     0.007 A 
HETATM   20  C18 UNK     1      -1.352   4.699  -0.387  1.00  0.00     0.048 C 
HETATM   21  C12 UNK     1       0.099   1.217  -0.662  1.00  0.00     0.010 A 
ENDBRANCH   6  15
BRANCH   4  22
HETATM   22  N2  UNK     1       2.171  -0.429   1.173  1.00  0.00    -0.112 N 
HETATM   23  O3  UNK     1       2.658  -0.834   0.107  1.00  0.00    -0.534 OA
HETATM   24  O4  UNK     1       2.611   0.510   1.852  1.00  0.00    -0.534 OA
ENDBRANCH   4  22
TORSDOF 2
