REMARK  5 active torsions:
REMARK  status: ('A' for Active; 'I' for Inactive)
REMARK    1  A    between atoms: C10_15  and  O3_3 
REMARK    2  A    between atoms: C13_18  and  O4_4 
REMARK    3  A    between atoms: C3_8  and  C9_14 
REMARK    4  A    between atoms: C11_16  and  C7_12 
REMARK    5  A    between atoms: C12_17  and  C9_14 
ROOT
HETATM    1  C11 UNK     1      -1.318   0.550   0.846  1.00  0.00     0.018 C 
HETATM    2  C12 UNK     1      -0.305   0.746  -0.010  1.00  0.00     0.056 C 
ENDROOT
BRANCH   2   3
HETATM    3  C9  UNK     1       0.662   1.878   0.195  1.00  0.00     0.182 C 
HETATM    4  O5  UNK     1       0.537   2.646   1.161  1.00  0.00    -0.288 OA
BRANCH   3   5
HETATM    5  C3  UNK     1       1.762   2.033  -0.743  1.00  0.00     0.017 A 
HETATM    6  C4  UNK     1       1.604   1.625  -2.070  1.00  0.00     0.055 A 
HETATM    7  C1  UNK     1       2.676   1.791  -2.923  1.00  0.00     0.105 A 
HETATM    8  O1  UNK     1       2.708   1.452  -4.241  1.00  0.00    -0.323 OA
HETATM    9  C2  UNK     1       3.864   2.338  -2.495  1.00  0.00     0.105 A 
HETATM   10  C8  UNK     1       4.048   1.848  -4.595  1.00  0.00     0.352 A 
HETATM   11  O2  UNK     1       4.788   2.411  -3.492  1.00  0.00    -0.323 OA
HETATM   12  C5  UNK     1       4.046   2.749  -1.191  1.00  0.00     0.040 A 
HETATM   13  C6  UNK     1       2.976   2.592  -0.306  1.00  0.00     0.018 A 
ENDBRANCH   3   5
ENDBRANCH   2   3
BRANCH   1  14
HETATM   14  C7  UNK     1      -2.306  -0.538   0.736  1.00  0.00     0.000 A 
HETATM   15  C10 UNK     1      -2.885  -1.081   1.873  1.00  0.00     0.111 A 
HETATM   16  C13 UNK     1      -3.818  -2.110   1.741  1.00  0.00     0.102 A 
HETATM   17  C15 UNK     1      -4.160  -2.583   0.474  1.00  0.00     0.040 A 
HETATM   18  C16 UNK     1      -3.570  -2.028  -0.661  1.00  0.00     0.004 A 
HETATM   19  C14 UNK     1      -2.638  -0.999  -0.529  1.00  0.00     0.014 A 
BRANCH  15  20
HETATM   20  O3  UNK     1      -2.560  -0.628   3.118  1.00  0.00    -0.352 OA
HETATM   21  C17 UNK     1      -3.618  -0.091   3.907  1.00  0.00     0.210 C 
ENDBRANCH  15  20
BRANCH  16  22
HETATM   22  O4  UNK     1      -4.402  -2.662   2.841  1.00  0.00    -0.353 OA
HETATM   23  C18 UNK     1      -3.745  -3.782   3.431  1.00  0.00     0.210 C 
ENDBRANCH  16  22
ENDBRANCH   1  14
TORSDOF 5
