REMARK  4 active torsions:
REMARK  status: ('A' for Active; 'I' for Inactive)
REMARK    1  A    between atoms: C11_16  and  O3_3 
REMARK    2  A    between atoms: C13_18  and  O4_4 
REMARK    3  A    between atoms: C15_20  and  O5_5 
REMARK    4  A    between atoms: C2_7  and  C4_9 
ROOT
HETATM    1  O1  UNK     1      -0.482   0.683   0.585  1.00  0.00    -0.309 OA
HETATM    2  O2  UNK     1      -2.330  -2.514  -1.136  1.00  0.00    -0.287 OA
HETATM    3  C1  UNK     1      -2.166  -1.062   0.721  1.00  0.00     0.051 A 
HETATM    4  C2  UNK     1      -0.110   0.214  -0.666  1.00  0.00     0.090 A 
HETATM    5  C3  UNK     1      -1.493   0.037   1.251  1.00  0.00     0.090 A 
HETATM    6  C5  UNK     1      -1.780  -1.557  -0.609  1.00  0.00     0.187 A 
HETATM    7  C6  UNK     1      -0.685  -0.830  -1.283  1.00  0.00     0.093 A 
HETATM    8  C7  UNK     1      -3.188  -1.680   1.444  1.00  0.00     0.054 A 
HETATM    9  C8  UNK     1      -1.840   0.527   2.510  1.00  0.00     0.041 A 
HETATM   10  C11 UNK     1      -3.533  -1.189   2.704  1.00  0.00     0.066 A 
HETATM   11  C12 UNK     1      -2.861  -0.088   3.236  1.00  0.00     0.039 A 
ENDROOT
BRANCH   4  12
HETATM   12  C4  UNK     1       0.982   0.983  -1.294  1.00  0.00     0.001 A 
HETATM   13  C10 UNK     1       1.048   1.101  -2.685  1.00  0.00     0.017 A 
HETATM   14  C14 UNK     1       2.079   1.828  -3.279  1.00  0.00     0.040 A 
HETATM   15  C15 UNK     1       3.049   2.440  -2.484  1.00  0.00     0.098 A 
HETATM   16  C13 UNK     1       2.987   2.325  -1.096  1.00  0.00     0.099 A 
HETATM   17  C9  UNK     1       1.955   1.597  -0.502  1.00  0.00     0.053 A 
BRANCH  15  18
HETATM   18  O5  UNK     1       4.051   3.147  -3.077  1.00  0.00    -0.358 OA
HETATM   19  H10 UNK     1       3.932   3.118  -4.041  1.00  0.00     0.217 HD
ENDBRANCH  15  18
BRANCH  16  20
HETATM   20  O4  UNK     1       3.928   2.917  -0.309  1.00  0.00    -0.358 OA
HETATM   21  H9  UNK     1       4.563   3.376  -0.886  1.00  0.00     0.217 HD
ENDBRANCH  16  20
ENDBRANCH   4  12
BRANCH  10  22
HETATM   22  O3  UNK     1      -4.528  -1.785   3.416  1.00  0.00    -0.361 OA
HETATM   23  H8  UNK     1      -4.884  -2.529   2.900  1.00  0.00     0.217 HD
ENDBRANCH  10  22
TORSDOF 4
