REMARK  4 active torsions:
REMARK  status: ('A' for Active; 'I' for Inactive)
REMARK    1  A    between atoms: C6_14  and  O2_2 
REMARK    2  A    between atoms: C3_11  and  N1_7 
REMARK       I    between atoms: C7_15  and  N1_7 
REMARK    3  A    between atoms: C13_21  and  N2_8 
REMARK    4  A    between atoms: C2_10  and  C7_15 
ROOT
HETATM    1  O3  UNK     1       0.880   0.782   1.660  1.00  0.00    -0.267 OA
HETATM    2  N1  UNK     1      -0.596  -0.009   0.005  1.00  0.00    -0.320 N 
HETATM    3  C7  UNK     1       0.539   0.626   0.489  1.00  0.00     0.262 C 
HETATM    4  H2  UNK     1      -0.726  -0.070  -1.002  1.00  0.00     0.169 HD
ENDROOT
BRANCH   2   5
HETATM    5  C3  UNK     1      -1.627  -0.626   0.755  1.00  0.00     0.068 A 
HETATM    6  C6  UNK     1      -2.697  -1.219   0.104  1.00  0.00     0.097 A 
HETATM    7  C11 UNK     1      -3.704  -1.822   0.857  1.00  0.00     0.075 A 
HETATM    8  C13 UNK     1      -3.628  -1.825   2.249  1.00  0.00     0.105 A 
HETATM    9  C14 UNK     1      -2.544  -1.223   2.890  1.00  0.00     0.038 A 
HETATM   10  C9  UNK     1      -1.537  -0.620   2.137  1.00  0.00     0.035 A 
BRANCH   6  11
HETATM   11  O2  UNK     1      -2.791  -1.227  -1.256  1.00  0.00    -0.354 OA
HETATM   12  C17 UNK     1      -2.202  -2.331  -1.939  1.00  0.00     0.210 C 
ENDBRANCH   6  11
BRANCH   8  13
HETATM   13  N2  UNK     1      -4.653  -2.439   3.016  1.00  0.00    -0.116 N 
HETATM   14  O5  UNK     1      -4.565  -2.429   4.268  1.00  0.00    -0.532 OA
HETATM   15  O6  UNK     1      -5.620  -2.974   2.421  1.00  0.00    -0.532 OA
ENDBRANCH   8  13
ENDBRANCH   2   5
BRANCH   3  16
HETATM   16  C2  UNK     1       1.386   1.146  -0.592  1.00  0.00     0.108 A 
HETATM   17  C10 UNK     1       0.823   1.589  -1.887  1.00  0.00     0.304 A 
HETATM   18  O1  UNK     1       1.728   2.063  -2.833  1.00  0.00    -0.274 OA
HETATM   19  O4  UNK     1      -0.380   1.543  -2.121  1.00  0.00    -0.259 OA
HETATM   20  C4  UNK     1       3.111   2.121  -2.574  1.00  0.00     0.089 A 
HETATM   21  C1  UNK     1       3.620   1.699  -1.350  1.00  0.00    -0.001 A 
HETATM   22  C12 UNK     1       3.938   2.612  -3.583  1.00  0.00     0.038 A 
HETATM   23  C5  UNK     1       2.700   1.198  -0.341  1.00  0.00     0.037 A 
HETATM   24  C8  UNK     1       4.998   1.772  -1.131  1.00  0.00     0.014 A 
HETATM   25  C15 UNK     1       5.840   2.261  -2.134  1.00  0.00     0.001 A 
HETATM   26  C16 UNK     1       5.311   2.681  -3.356  1.00  0.00     0.003 A 
ENDBRANCH   3  16
TORSDOF 4
