REMARK  4 active torsions:
REMARK  status: ('A' for Active; 'I' for Inactive)
REMARK    1  A    between atoms: C9_11  and  O1_1 
REMARK    2  A    between atoms: C10_12  and  O2_2 
REMARK    3  A    between atoms: C1_3  and  C3_5 
REMARK    4  A    between atoms: C2_4  and  C4_6 
ROOT
HETATM    1  C3  UNK     1       0.537   0.363   0.035  1.00  0.00     0.012 C 
HETATM    2  C4  UNK     1      -0.648  -0.142  -0.382  1.00  0.00     0.012 C 
ENDROOT
BRANCH   1   3
HETATM    3  C1  UNK     1       1.559   0.929  -0.832  1.00  0.00    -0.036 A 
HETATM    4  C5  UNK     1       1.569   0.621  -2.192  1.00  0.00     0.014 A 
HETATM    5  C11 UNK     1       2.550   1.163  -3.023  1.00  0.00     0.037 A 
HETATM    6  C9  UNK     1       3.520   2.014  -2.493  1.00  0.00     0.068 A 
HETATM    7  C13 UNK     1       3.510   2.322  -1.133  1.00  0.00     0.037 A 
HETATM    8  C7  UNK     1       2.529   1.779  -0.302  1.00  0.00     0.014 A 
BRANCH   6   9
HETATM    9  O1  UNK     1       4.477   2.543  -3.304  1.00  0.00    -0.356 OA
HETATM   10  C15 UNK     1       5.438   3.405  -2.697  1.00  0.00     0.210 C 
ENDBRANCH   6   9
ENDBRANCH   1   3
BRANCH   2  11
HETATM   11  C2  UNK     1      -1.674  -0.734   0.494  1.00  0.00    -0.036 A 
HETATM   12  C6  UNK     1      -1.315  -1.180   1.755  1.00  0.00     0.014 A 
HETATM   13  C12 UNK     1      -2.287  -1.740   2.584  1.00  0.00     0.037 A 
HETATM   14  C10 UNK     1      -3.605  -1.846   2.141  1.00  0.00     0.068 A 
HETATM   15  C14 UNK     1      -3.951  -1.392   0.868  1.00  0.00     0.037 A 
HETATM   16  C8  UNK     1      -2.979  -0.832   0.039  1.00  0.00     0.014 A 
BRANCH  14  17
HETATM   17  O2  UNK     1      -4.553  -2.392   2.950  1.00  0.00    -0.356 OA
HETATM   18  C16 UNK     1      -5.881  -2.470   2.433  1.00  0.00     0.210 C 
ENDBRANCH  14  17
ENDBRANCH   2  11
TORSDOF 4
