REMARK  3 active torsions:
REMARK  status: ('A' for Active; 'I' for Inactive)
REMARK    1  A    between atoms: C9_14  and  O3_3 
REMARK    2  A    between atoms: C10_15  and  O4_4 
REMARK    3  A    between atoms: C1_6  and  C6_11 
ROOT
HETATM    1  O1  UNK     1       1.295   0.315   2.372  1.00  0.00    -0.376 OA
HETATM    2  C1  UNK     1       1.198  -0.432   1.148  1.00  0.00     0.194 C 
HETATM    3  C2  UNK     1       1.544   0.390  -0.083  1.00  0.00    -0.016 A 
HETATM    4  C3  UNK     1       2.163   1.645   0.058  1.00  0.00    -0.044 A 
HETATM    5  C4  UNK     1       2.435   2.200   1.430  1.00  0.00     0.065 C 
HETATM    6  C5  UNK     1       2.498   1.076   2.453  1.00  0.00     0.173 C 
HETATM    7  C7  UNK     1       1.319  -0.115  -1.374  1.00  0.00     0.050 A 
HETATM    8  C8  UNK     1       2.490   2.398  -1.078  1.00  0.00     0.047 A 
HETATM    9  C9  UNK     1       1.660   0.636  -2.501  1.00  0.00     0.102 A 
HETATM   10  C10 UNK     1       2.239   1.893  -2.353  1.00  0.00     0.102 A 
ENDROOT
BRANCH   2  11
HETATM   11  C6  UNK     1      -0.191  -0.984   1.111  1.00  0.00     0.048 A 
HETATM   12  C11 UNK     1      -1.330  -0.035   1.023  1.00  0.00     0.196 A 
HETATM   13  O5  UNK     1      -1.165   1.177   0.978  1.00  0.00    -0.287 OA
HETATM   14  C13 UNK     1      -2.678  -0.632   0.991  1.00  0.00     0.049 A 
HETATM   15  C14 UNK     1      -2.806  -2.020   1.045  1.00  0.00     0.089 A 
HETATM   16  C15 UNK     1      -3.814   0.177   0.909  1.00  0.00     0.018 A 
HETATM   17  O2  UNK     1      -1.725  -2.862   1.126  1.00  0.00    -0.321 OA
HETATM   18  C16 UNK     1      -4.072  -2.607   1.016  1.00  0.00     0.038 A 
HETATM   19  C12 UNK     1      -0.476  -2.292   1.155  1.00  0.00     0.156 A 
HETATM   20  C18 UNK     1      -5.207  -1.801   0.934  1.00  0.00     0.003 A 
HETATM   21  C17 UNK     1      -5.078  -0.413   0.881  1.00  0.00     0.001 A 
ENDBRANCH   2  11
BRANCH   9  22
HETATM   22  O3  UNK     1       1.423   0.125  -3.741  1.00  0.00    -0.353 OA
HETATM   23  C19 UNK     1       0.155   0.412  -4.329  1.00  0.00     0.210 C 
ENDBRANCH   9  22
BRANCH  10  24
HETATM   24  O4  UNK     1       2.570   2.637  -3.445  1.00  0.00    -0.353 OA
HETATM   25  C20 UNK     1       3.882   2.461  -3.975  1.00  0.00     0.210 C 
ENDBRANCH  10  24
TORSDOF 3
