REMARK  4 active torsions:
REMARK  status: ('A' for Active; 'I' for Inactive)
REMARK    1  A    between atoms: C5_10  and  O2_2 
REMARK    2  A    between atoms: C10_15  and  O3_3 
REMARK    3  A    between atoms: C11_16  and  O3_3 
REMARK    4  A    between atoms: C10_15  and  C4_9 
ROOT
HETATM    1  O1  UNK     1      -0.092   0.309  -1.543  1.00  0.00    -0.271 OA
HETATM    2  O4  UNK     1      -2.019  -0.884  -1.255  1.00  0.00    -0.259 OA
HETATM    3  C1  UNK     1       1.324   0.783   0.376  1.00  0.00     0.002 A 
HETATM    4  C2  UNK     1       1.066   0.888  -0.987  1.00  0.00     0.123 A 
HETATM    5  C3  UNK     1       0.379   0.066   1.218  1.00  0.00     0.038 A 
HETATM    6  C4  UNK     1      -0.719  -0.482   0.685  1.00  0.00     0.115 A 
HETATM    7  C5  UNK     1       1.930   1.561  -1.848  1.00  0.00     0.102 A 
HETATM    8  C6  UNK     1       2.483   1.369   0.889  1.00  0.00     0.014 A 
HETATM    9  C7  UNK     1       3.084   2.143  -1.328  1.00  0.00     0.040 A 
HETATM   10  C8  UNK     1      -1.014  -0.383  -0.762  1.00  0.00     0.304 A 
HETATM   11  C9  UNK     1       3.360   2.048   0.038  1.00  0.00     0.004 A 
ENDROOT
BRANCH   6  12
HETATM   12  C10 UNK     1      -1.611  -1.184   1.615  1.00  0.00     0.299 C 
HETATM   13  O5  UNK     1      -1.223  -1.744   2.627  1.00  0.00    -0.259 OA
BRANCH  12  14
HETATM   14  O3  UNK     1      -2.882  -1.090   1.150  1.00  0.00    -0.318 OA
BRANCH  14  15
HETATM   15  C11 UNK     1      -3.876  -1.730   1.955  1.00  0.00     0.174 C 
HETATM   16  C12 UNK     1      -5.232  -1.539   1.310  1.00  0.00     0.034 C 
ENDBRANCH  14  15
ENDBRANCH  12  14
ENDBRANCH   6  12
BRANCH   7  17
HETATM   17  O2  UNK     1       1.665   1.657  -3.178  1.00  0.00    -0.353 OA
HETATM   18  C13 UNK     1       2.175   0.623  -4.019  1.00  0.00     0.210 C 
ENDBRANCH   7  17
TORSDOF 4
