REMARK  2 active torsions:
REMARK  status: ('A' for Active; 'I' for Inactive)
REMARK    1  A    between atoms: C2_8  and  C5_11 
REMARK    2  A    between atoms: C10_16  and  C9_15 
ROOT
HETATM    1  O1  UNK     1       2.883   1.467   0.135  1.00  0.00    -0.274 OA
HETATM    2  O3  UNK     1       1.336   0.609   1.577  1.00  0.00    -0.259 OA
HETATM    3  C1  UNK     1       2.414   1.535  -2.248  1.00  0.00    -0.001 A 
HETATM    4  C2  UNK     1       0.762   0.593  -0.734  1.00  0.00     0.096 A 
HETATM    5  C3  UNK     1       3.264   1.798  -1.179  1.00  0.00     0.089 A 
HETATM    6  C4  UNK     1       1.128   0.909  -1.985  1.00  0.00     0.036 A 
HETATM    7  C6  UNK     1       2.826   1.879  -3.537  1.00  0.00     0.014 A 
HETATM    8  C7  UNK     1       1.655   0.875   0.422  1.00  0.00     0.303 A 
HETATM    9  C8  UNK     1       4.510   2.394  -1.362  1.00  0.00     0.038 A 
HETATM   10  C11 UNK     1       4.074   2.477  -3.737  1.00  0.00     0.001 A 
HETATM   11  C12 UNK     1       4.914   2.734  -2.651  1.00  0.00     0.003 A 
ENDROOT
BRANCH   4  12
HETATM   12  C5  UNK     1      -0.507  -0.028  -0.512  1.00  0.00     0.212 A 
HETATM   13  O2  UNK     1      -1.352  -0.307  -1.547  1.00  0.00    -0.190 OA
HETATM   14  N2  UNK     1      -2.486  -0.904  -0.982  1.00  0.00    -0.105 NA
HETATM   15  C9  UNK     1      -2.192  -0.915   0.321  1.00  0.00     0.189 A 
HETATM   16  N1  UNK     1      -0.981  -0.385   0.661  1.00  0.00    -0.199 NA
BRANCH  15  17
HETATM   17  C10 UNK     1      -3.085  -1.447   1.310  1.00  0.00     0.017 A 
HETATM   18  C13 UNK     1      -4.312  -1.980   0.929  1.00  0.00     0.034 A 
HETATM   19  C15 UNK     1      -5.138  -2.481   1.921  1.00  0.00     0.117 A 
HETATM   20  N3  UNK     1      -4.826  -2.484   3.237  1.00  0.00    -0.273 NA
HETATM   21  C16 UNK     1      -3.626  -1.959   3.570  1.00  0.00     0.117 A 
HETATM   22  C14 UNK     1      -2.729  -1.433   2.655  1.00  0.00     0.034 A 
ENDBRANCH  15  17
ENDBRANCH   4  12
TORSDOF 2
