REMARK  6 active torsions:
REMARK  status: ('A' for Active; 'I' for Inactive)
REMARK    1  A    between atoms: C17_21  and  O1_2 
REMARK    2  A    between atoms: C21_25  and  O1_2 
REMARK    3  A    between atoms: C3_7  and  C8_12 
REMARK    4  A    between atoms: C12_16  and  C14_18 
REMARK    5  A    between atoms: C13_17  and  C14_18 
REMARK    6  A    between atoms: C20_24  and  C21_25 
ROOT
HETATM    1  C12 UNK     1       0.085   1.055   1.000  1.00  0.00     0.014 A 
HETATM    2  C15 UNK     1       1.140   0.213   0.651  1.00  0.00     0.018 A 
HETATM    3  C16 UNK     1       0.047   2.363   0.517  1.00  0.00     0.018 A 
HETATM    4  C17 UNK     1       2.120   1.986  -0.665  1.00  0.00     0.079 A 
HETATM    5  C18 UNK     1       2.158   0.678  -0.182  1.00  0.00     0.038 A 
HETATM    6  C19 UNK     1       1.065   2.829  -0.316  1.00  0.00     0.038 A 
ENDROOT
BRANCH   1   7
HETATM    7  C14 UNK     1      -0.996   0.561   1.886  1.00  0.00     0.182 C 
HETATM    8  O2  UNK     1      -2.124   1.032   1.790  1.00  0.00    -0.288 OA
BRANCH   7   9
HETATM    9  C13 UNK     1      -0.644  -0.481   2.891  1.00  0.00     0.056 C 
HETATM   10  C8  UNK     1      -1.577  -1.361   3.307  1.00  0.00     0.016 C 
BRANCH  10  11
HETATM   11  C3  UNK     1      -2.963  -1.392   2.846  1.00  0.00    -0.025 A 
HETATM   12  C1  UNK     1      -3.378  -2.128   1.724  1.00  0.00    -0.016 A 
HETATM   13  C2  UNK     1      -4.742  -2.104   1.346  1.00  0.00    -0.025 A 
HETATM   14  C4  UNK     1      -2.469  -2.887   0.969  1.00  0.00     0.013 A 
HETATM   15  C5  UNK     1      -5.650  -1.344   2.101  1.00  0.00     0.012 A 
HETATM   16  C7  UNK     1      -5.156  -2.839   0.223  1.00  0.00     0.012 A 
HETATM   17  C9  UNK     1      -5.221  -0.619   3.213  1.00  0.00     0.002 A 
HETATM   18  C6  UNK     1      -3.880  -0.643   3.585  1.00  0.00     0.012 A 
HETATM   19  C11 UNK     1      -4.240  -3.588  -0.515  1.00  0.00     0.001 A 
HETATM   20  C10 UNK     1      -2.899  -3.612  -0.143  1.00  0.00     0.001 A 
ENDBRANCH  10  11
ENDBRANCH   7   9
ENDBRANCH   1   7
BRANCH   4  21
HETATM   21  O1  UNK     1       3.114   2.440  -1.478  1.00  0.00    -0.275 OA
BRANCH  21  22
HETATM   22  C21 UNK     1       2.881   2.237  -2.840  1.00  0.00     0.305 C 
HETATM   23  O3  UNK     1       1.896   1.696  -3.320  1.00  0.00    -0.258 OA
BRANCH  22  24
HETATM   24  C20 UNK     1       4.004   2.757  -3.660  1.00  0.00     0.080 A 
HETATM   25  S1  UNK     1       3.935   2.600  -5.364  1.00  0.00    -0.096 SA
HETATM   26  C24 UNK     1       5.454   3.368  -5.551  1.00  0.00     0.050 A 
HETATM   27  C23 UNK     1       6.000   3.735  -4.341  1.00  0.00     0.009 A 
HETATM   28  C22 UNK     1       5.160   3.381  -3.245  1.00  0.00     0.025 A 
ENDBRANCH  22  24
ENDBRANCH  21  22
ENDBRANCH   4  21
TORSDOF 6
