REMARK  2 active torsions:
REMARK  status: ('A' for Active; 'I' for Inactive)
REMARK    1  A    between atoms: C16_23  and  N1_7 
REMARK    2  A    between atoms: C11_18  and  C4_11 
ROOT
HETATM    1  O1  UNK     1       2.999   2.202   0.725  1.00  0.00    -0.332 OA
HETATM    2  O2  UNK     1       0.158   0.044  -2.586  1.00  0.00    -0.274 OA
HETATM    3  O3  UNK     1       1.359  -0.541   2.404  1.00  0.00    -0.289 OA
HETATM    4  O4  UNK     1      -1.099  -0.985  -4.201  1.00  0.00    -0.260 OA
HETATM    5  C1  UNK     1       2.984   1.044   1.562  1.00  0.00     0.125 C 
HETATM    6  C2  UNK     1       1.479   1.136  -0.856  1.00  0.00     0.048 A 
HETATM    7  C3  UNK     1       1.689   0.228   1.504  1.00  0.00     0.196 C 
HETATM    8  C4  UNK     1       0.873   0.400   0.265  1.00  0.00     0.044 C 
HETATM    9  C5  UNK     1       2.514   2.029  -0.546  1.00  0.00     0.084 A 
HETATM   10  C6  UNK     1       3.164   1.575   2.991  1.00  0.00     0.055 C 
HETATM   11  C7  UNK     1       4.170   0.137   1.208  1.00  0.00     0.055 C 
HETATM   12  C8  UNK     1       1.123   1.010  -2.211  1.00  0.00     0.103 A 
HETATM   13  C9  UNK     1       1.716   1.788  -3.210  1.00  0.00    -0.001 A 
HETATM   14  C10 UNK     1       3.099   2.832  -1.532  1.00  0.00     0.039 A 
HETATM   15  C12 UNK     1       2.699   2.713  -2.861  1.00  0.00     0.017 A 
HETATM   16  C13 UNK     1       1.299   1.616  -4.593  1.00  0.00     0.020 A 
HETATM   17  C14 UNK     1       0.374   0.709  -4.916  1.00  0.00     0.083 A 
HETATM   18  C15 UNK     1      -0.255  -0.149  -3.899  1.00  0.00     0.288 A 
ENDROOT
BRANCH   8  19
HETATM   19  C11 UNK     1      -0.398  -0.029   0.314  1.00  0.00     0.104 C 
HETATM   20  N1  UNK     1      -1.003  -0.707   1.316  1.00  0.00    -0.364 N 
HETATM   21  H11 UNK     1      -0.488  -0.787   2.186  1.00  0.00     0.165 HD
BRANCH  20  22
HETATM   22  C16 UNK     1      -2.331  -1.167   1.392  1.00  0.00     0.049 A 
HETATM   23  C17 UNK     1      -2.998  -1.284   2.615  1.00  0.00     0.038 A 
HETATM   24 Br1  UNK     1      -2.155  -0.830   4.254  1.00  0.00    -0.049 Br
HETATM   25  C19 UNK     1      -4.315  -1.744   2.654  1.00  0.00     0.040 A 
HETATM   26  C21 UNK     1      -4.969  -2.087   1.471  1.00  0.00     0.012 A 
HETATM   27 Br2  UNK     1      -6.753  -2.709   1.522  1.00  0.00    -0.051 Br
HETATM   28  C20 UNK     1      -4.307  -1.971   0.248  1.00  0.00     0.021 A 
HETATM   29  C18 UNK     1      -2.990  -1.512   0.209  1.00  0.00     0.032 A 
ENDBRANCH  20  22
ENDBRANCH   8  19
TORSDOF 2
