REMARK  6 active torsions:
REMARK  status: ('A' for Active; 'I' for Inactive)
REMARK    1  A    between atoms: C5_11  and  N1_4 
REMARK    2  A    between atoms: C6_12  and  N2_5 
REMARK    3  A    between atoms: C6_12  and  N3_6 
REMARK    4  A    between atoms: C8_14  and  N3_6 
REMARK    5  A    between atoms: C5_11  and  C7_13 
REMARK    6  A    between atoms: C15_21  and  C9_15 
ROOT
HETATM    1  S1  UNK     1       2.347   1.452  -5.497  1.00  0.00    -0.041 SA
HETATM    2  C6  UNK     1       1.953   0.876  -3.971  1.00  0.00     0.174 C 
ENDROOT
BRANCH   2   3
HETATM    3  N2  UNK     1       0.663   0.591  -3.667  1.00  0.00    -0.355 N 
HETATM    4  C3  UNK     1      -0.444   1.346  -4.235  1.00  0.00     0.155 C 
HETATM    5  C1  UNK     1      -1.479   1.686  -3.164  1.00  0.00     0.292 C 
HETATM    6  N1  UNK     1      -1.902   0.475  -2.442  1.00  0.00     0.095 N 
HETATM    7  C2  UNK     1      -0.747  -0.180  -1.807  1.00  0.00     0.292 C 
HETATM    8  C4  UNK     1       0.304  -0.559  -2.850  1.00  0.00     0.155 C 
BRANCH   6   9
HETATM    9  C5  UNK     1      -2.919   0.803  -1.443  1.00  0.00     0.300 C 
BRANCH   9  10
HETATM   10  C7  UNK     1      -3.366  -0.416  -0.693  1.00  0.00     0.004 C 
HETATM   11  C9  UNK     1      -3.249  -0.547   0.638  1.00  0.00     0.009 C 
BRANCH  11  12
HETATM   12  C15 UNK     1      -3.687  -1.716   1.419  1.00  0.00    -0.036 A 
HETATM   13  C19 UNK     1      -3.878  -2.929   0.778  1.00  0.00     0.011 A 
HETATM   14  C22 UNK     1      -4.291  -4.037   1.519  1.00  0.00     0.001 A 
HETATM   15  C24 UNK     1      -4.508  -3.916   2.892  1.00  0.00     0.000 A 
HETATM   16  C23 UNK     1      -4.312  -2.688   3.523  1.00  0.00     0.001 A 
HETATM   17  C20 UNK     1      -3.899  -1.580   2.782  1.00  0.00     0.011 A 
ENDBRANCH  11  12
ENDBRANCH   9  10
ENDBRANCH   6   9
ENDBRANCH   2   3
BRANCH   2  18
HETATM   18  N3  UNK     1       2.941   0.637  -3.052  1.00  0.00    -0.333 N 
HETATM   19  H12 UNK     1       3.850   0.410  -3.450  1.00  0.00     0.168 HD
BRANCH  18  20
HETATM   20  C8  UNK     1       2.926   0.669  -1.636  1.00  0.00     0.036 A 
HETATM   21  C10 UNK     1       2.045   1.511  -0.988  1.00  0.00     0.067 A 
HETATM   22  C13 UNK     1       2.047   1.526   0.408  1.00  0.00     0.092 A 
HETATM   23  C12 UNK     1       2.904   0.723   1.162  1.00  0.00     0.004 A 
HETATM   24  O1  UNK     1       1.132   2.400   1.030  1.00  0.00    -0.275 OA
HETATM   25  C14 UNK     1       3.784  -0.118   0.468  1.00  0.00     0.017 A 
HETATM   26  C16 UNK     1       2.837   0.804   2.628  1.00  0.00    -0.043 A 
HETATM   27  C11 UNK     1       3.794  -0.145  -0.931  1.00  0.00     0.030 A 
HETATM   28  C17 UNK     1       1.957   1.644   3.192  1.00  0.00     0.090 A 
HETATM   29  C18 UNK     1       3.745  -0.046   3.466  1.00  0.00     0.049 C 
HETATM   30  C21 UNK     1       1.046   2.497   2.410  1.00  0.00     0.288 A 
HETATM   31  O2  UNK     1       0.254   3.253   2.961  1.00  0.00    -0.260 OA
ENDBRANCH  18  20
ENDBRANCH   2  18
TORSDOF 6
