REMARK  0 active torsions:
REMARK  status: ('A' for Active; 'I' for Inactive)
ROOT
HETATM    1  O1  UNK     1       1.700   1.241  -2.632  1.00  0.00    -0.322 OA
HETATM    2  O2  UNK     1      -2.065  -0.777  -0.360  1.00  0.00    -0.275 OA
HETATM    3  O3  UNK     1      -3.796  -1.719   0.807  1.00  0.00    -0.260 OA
HETATM    4  C1  UNK     1       1.730   0.999  -0.386  1.00  0.00     0.001 A 
HETATM    5  C2  UNK     1      -0.099   0.002   0.848  1.00  0.00    -0.001 A 
HETATM    6  C3  UNK     1       1.000   0.791  -1.553  1.00  0.00     0.087 A 
HETATM    7  C4  UNK     1      -0.783  -0.179  -0.354  1.00  0.00     0.092 A 
HETATM    8  C5  UNK     1       1.173   0.597   0.844  1.00  0.00     0.028 A 
HETATM    9  C6  UNK     1      -0.263   0.207  -1.593  1.00  0.00     0.076 A 
HETATM   10  C7  UNK     1       2.944   1.612  -0.795  1.00  0.00     0.039 A 
HETATM   11  C8  UNK     1      -0.728  -0.435   2.084  1.00  0.00     0.020 A 
HETATM   12  C9  UNK     1       2.875   1.735  -2.163  1.00  0.00     0.143 A 
HETATM   13  C10 UNK     1      -1.938  -0.998   2.065  1.00  0.00     0.083 A 
HETATM   14  C11 UNK     1      -2.684  -1.202   0.810  1.00  0.00     0.288 A 
ENDROOT
TORSDOF 0
