REMARK  1 active torsions:
REMARK  status: ('A' for Active; 'I' for Inactive)
REMARK    1  A    between atoms: C1_5  and  C3_7 
ROOT
HETATM    1  O1  UNK     1       2.624   1.317   0.217  1.00  0.00    -0.274 OA
HETATM    2  O2  UNK     1       1.378   0.505   1.943  1.00  0.00    -0.259 OA
HETATM    3  C1  UNK     1       0.393   0.370  -0.226  1.00  0.00     0.076 A 
HETATM    4  C2  UNK     1       1.780   1.208  -2.053  1.00  0.00    -0.001 A 
HETATM    5  C4  UNK     1       0.563   0.604  -1.538  1.00  0.00     0.034 A 
HETATM    6  C5  UNK     1       2.784   1.555  -1.160  1.00  0.00     0.089 A 
HETATM    7  C8  UNK     1       1.477   0.725   0.739  1.00  0.00     0.301 A 
HETATM    8  C9  UNK     1       1.972   1.456  -3.414  1.00  0.00     0.014 A 
HETATM    9  C10 UNK     1       3.975   2.141  -1.584  1.00  0.00     0.038 A 
HETATM   10  C13 UNK     1       3.161   2.043  -3.857  1.00  0.00     0.001 A 
HETATM   11  C14 UNK     1       4.160   2.385  -2.943  1.00  0.00     0.003 A 
ENDROOT
BRANCH   3  12
HETATM   12  C3  UNK     1      -0.814  -0.225   0.291  1.00  0.00     0.115 A 
HETATM   13  S1  UNK     1      -2.099   0.814   0.748  1.00  0.00    -0.067 SA
HETATM   14  C6  UNK     1      -3.043  -0.556   1.202  1.00  0.00     0.035 A 
HETATM   15  C11 UNK     1      -4.345  -0.599   1.726  1.00  0.00     0.021 A 
HETATM   16  C7  UNK     1      -2.301  -1.719   0.971  1.00  0.00     0.075 A 
HETATM   17  C15 UNK     1      -4.900  -1.847   2.018  1.00  0.00     0.002 A 
HETATM   18  C16 UNK     1      -4.182  -3.017   1.796  1.00  0.00     0.002 A 
HETATM   19  C12 UNK     1      -2.886  -2.967   1.275  1.00  0.00     0.033 A 
HETATM   20  N1  UNK     1      -1.031  -1.515   0.451  1.00  0.00    -0.239 NA
ENDBRANCH   3  12
TORSDOF 1
