REMARK  4 active torsions:
REMARK  status: ('A' for Active; 'I' for Inactive)
REMARK    1  A    between atoms: C9_14  and  O1_1 
REMARK       I    between atoms: C11_16  and  N1_5 
REMARK    2  A    between atoms: C8_13  and  N1_5 
REMARK    3  A    between atoms: C1_6  and  C2_7 
REMARK    4  A    between atoms: C11_16  and  C12_17 
ROOT
HETATM    1  O3  UNK     1       0.429   0.649   1.393  1.00  0.00    -0.267 OA
HETATM    2  N1  UNK     1      -0.673  -0.246  -0.486  1.00  0.00    -0.320 N 
HETATM    3  C11 UNK     1       0.314   0.466   0.182  1.00  0.00     0.262 C 
HETATM    4  H13 UNK     1      -0.613  -0.326  -1.498  1.00  0.00     0.169 HD
ENDROOT
BRANCH   2   5
HETATM    5  C8  UNK     1      -1.778  -0.928   0.079  1.00  0.00     0.069 A 
HETATM    6  C6  UNK     1      -1.937  -0.912   1.455  1.00  0.00     0.040 A 
HETATM    7  C2  UNK     1      -3.019  -1.581   2.025  1.00  0.00    -0.048 A 
HETATM    8  C7  UNK     1      -3.929  -2.257   1.212  1.00  0.00     0.011 A 
HETATM    9  C10 UNK     1      -3.755  -2.264  -0.172  1.00  0.00     0.039 A 
HETATM   10  C9  UNK     1      -2.673  -1.595  -0.743  1.00  0.00     0.095 A 
BRANCH   7  11
HETATM   11  C1  UNK     1      -3.205  -1.574   3.505  1.00  0.00    -0.024 C 
HETATM   12  C3  UNK     1      -3.181  -3.022   4.086  1.00  0.00     0.019 C 
HETATM   13  C4  UNK     1      -4.571  -0.931   3.901  1.00  0.00     0.019 C 
HETATM   14  C5  UNK     1      -2.124  -0.782   4.314  1.00  0.00     0.019 C 
ENDBRANCH   7  11
BRANCH  10  15
HETATM   15  O1  UNK     1      -2.521  -1.614  -2.097  1.00  0.00    -0.354 OA
HETATM   16  C18 UNK     1      -3.151  -0.567  -2.833  1.00  0.00     0.210 C 
ENDBRANCH  10  15
ENDBRANCH   2   5
BRANCH   3  17
HETATM   17  C12 UNK     1       1.303   1.038  -0.739  1.00  0.00     0.108 A 
HETATM   18  C14 UNK     1       2.544   1.181  -0.260  1.00  0.00     0.037 A 
HETATM   19  C13 UNK     1       3.594   1.739  -1.097  1.00  0.00    -0.001 A 
HETATM   20  C15 UNK     1       3.285   2.122  -2.399  1.00  0.00     0.089 A 
HETATM   21  C17 UNK     1       4.903   1.906  -0.639  1.00  0.00     0.014 A 
HETATM   22  O2  UNK     1       1.976   1.970  -2.897  1.00  0.00    -0.274 OA
HETATM   23  C19 UNK     1       4.244   2.664  -3.252  1.00  0.00     0.038 A 
HETATM   24  C16 UNK     1       0.951   1.438  -2.120  1.00  0.00     0.304 A 
HETATM   25  O4  UNK     1      -0.185   1.310  -2.563  1.00  0.00    -0.259 OA
HETATM   26  C21 UNK     1       5.547   2.826  -2.787  1.00  0.00     0.003 A 
HETATM   27  C20 UNK     1       5.876   2.448  -1.483  1.00  0.00     0.001 A 
ENDBRANCH   3  17
TORSDOF 4
