REMARK  4 active torsions:
REMARK  status: ('A' for Active; 'I' for Inactive)
REMARK    1  A    between atoms: C8_13  and  O2_2 
REMARK    2  A    between atoms: C13_18  and  O4_4 
REMARK    3  A    between atoms: C11_16  and  O5_5 
REMARK    4  A    between atoms: C5_10  and  C6_11 
ROOT
HETATM    1  O1  UNK     1       0.565   0.288  -0.705  1.00  0.00    -0.306 OA
HETATM    2  O3  UNK     1      -0.026   3.757  -0.307  1.00  0.00    -0.284 OA
HETATM    3  C1  UNK     1       1.479   2.276  -1.446  1.00  0.00     0.051 A 
HETATM    4  C2  UNK     1      -0.171   1.330  -0.154  1.00  0.00     0.128 A 
HETATM    5  C3  UNK     1       1.541   0.884  -1.470  1.00  0.00     0.093 A 
HETATM    6  C4  UNK     1       0.361   2.645  -0.587  1.00  0.00     0.218 A 
HETATM    7  C6  UNK     1      -1.218   1.173   0.657  1.00  0.00     0.055 C 
HETATM    8  C7  UNK     1       2.364   3.070  -2.144  1.00  0.00     0.021 A 
HETATM    9  C9  UNK     1       2.503   0.225  -2.205  1.00  0.00     0.074 A 
HETATM   10  C11 UNK     1       3.414   1.008  -2.923  1.00  0.00     0.068 A 
HETATM   11  C12 UNK     1       3.345   2.416  -2.893  1.00  0.00     0.037 A 
ENDROOT
BRANCH   7  12
HETATM   12  C5  UNK     1      -1.775  -0.116   1.109  1.00  0.00     0.003 A 
HETATM   13  C10 UNK     1      -2.785  -0.695   0.357  1.00  0.00     0.051 A 
HETATM   14  C13 UNK     1      -3.328  -1.914   0.765  1.00  0.00     0.069 A 
HETATM   15  C15 UNK     1      -2.854  -2.537   1.919  1.00  0.00     0.039 A 
HETATM   16  C14 UNK     1      -1.837  -1.942   2.665  1.00  0.00     0.040 A 
HETATM   17  C8  UNK     1      -1.294  -0.724   2.258  1.00  0.00     0.078 A 
BRANCH  14  18
HETATM   18  O4  UNK     1      -4.321  -2.495   0.036  1.00  0.00    -0.356 OA
HETATM   19  C17 UNK     1      -4.758  -1.803  -1.132  1.00  0.00     0.210 C 
ENDBRANCH  14  18
BRANCH  17  20
HETATM   20  O2  UNK     1      -0.300  -0.165   3.005  1.00  0.00    -0.355 OA
HETATM   21  C16 UNK     1      -0.697   0.719   4.051  1.00  0.00     0.210 C 
ENDBRANCH  17  20
ENDBRANCH   7  12
BRANCH  10  22
HETATM   22  O5  UNK     1       4.385   0.401  -3.663  1.00  0.00    -0.361 OA
HETATM   23  H8  UNK     1       4.926   1.085  -4.094  1.00  0.00     0.217 HD
ENDBRANCH  10  22
TORSDOF 4
