REMARK  2 active torsions:
REMARK  status: ('A' for Active; 'I' for Inactive)
REMARK    1  A    between atoms: C3_7  and  N1_3 
REMARK    2  A    between atoms: C3_7  and  C6_10 
ROOT
HETATM    1  O1  UNK     1       2.631   0.951   0.478  1.00  0.00    -0.275 OA
HETATM    2  O2  UNK     1       2.557   0.849   2.761  1.00  0.00    -0.260 OA
HETATM    3  C6  UNK     1      -0.196   0.869   0.481  1.00  0.00    -0.011 A 
HETATM    4  C7  UNK     1       0.542   0.946  -0.787  1.00  0.00     0.006 A 
HETATM    5  C8  UNK     1       0.491   0.839   1.631  1.00  0.00     0.092 A 
HETATM    6  C9  UNK     1       1.936   0.984  -0.747  1.00  0.00     0.090 A 
HETATM    7  C10 UNK     1      -0.074   0.984  -2.045  1.00  0.00     0.015 A 
HETATM    8  C11 UNK     1       2.714   1.058  -1.905  1.00  0.00     0.045 A 
HETATM    9  C12 UNK     1       1.962   0.879   1.690  1.00  0.00     0.288 A 
HETATM   10  C13 UNK     1       2.084   1.094  -3.144  1.00  0.00    -0.059 A 
HETATM   11  C14 UNK     1       0.692   1.057  -3.214  1.00  0.00     0.007 A 
HETATM   12  C15 UNK     1       2.893   1.172  -4.394  1.00  0.00     0.048 C 
ENDROOT
BRANCH   3  13
HETATM   13  C3  UNK     1      -1.697   0.826   0.472  1.00  0.00     0.312 C 
BRANCH  13  14
HETATM   14  N1  UNK     1      -2.199  -0.545   0.409  1.00  0.00     0.096 N 
HETATM   15  C1  UNK     1      -1.739  -1.322   1.567  1.00  0.00     0.302 C 
HETATM   16  C4  UNK     1      -2.275  -2.755   1.505  1.00  0.00     0.299 C 
HETATM   17  N2  UNK     1      -3.737  -2.784   1.420  1.00  0.00     0.086 N 
HETATM   18  C5  UNK     1      -4.189  -1.998   0.270  1.00  0.00     0.299 C 
HETATM   19  H11 UNK     1      -4.054  -3.747   1.321  1.00  0.00     0.315 HD
HETATM   20  C2  UNK     1      -3.665  -0.561   0.325  1.00  0.00     0.302 C 
ENDBRANCH  13  14
ENDBRANCH   3  13
TORSDOF 2
