REMARK  4 active torsions:
REMARK  status: ('A' for Active; 'I' for Inactive)
REMARK    1  A    between atoms: C5_10  and  N1_4 
REMARK    2  A    between atoms: C6_11  and  N2_5 
REMARK    3  A    between atoms: C5_10  and  C7_12 
REMARK    4  A    between atoms: C6_11  and  C8_13 
ROOT
HETATM    1  N1  UNK     1       0.189  -0.393   0.222  1.00  0.00     0.096 N 
HETATM    2  N2  UNK     1       2.109   1.556  -0.715  1.00  0.00     0.096 N 
HETATM    3  C1  UNK     1       0.887   0.499   1.156  1.00  0.00     0.303 C 
HETATM    4  C2  UNK     1       1.021  -0.650  -0.960  1.00  0.00     0.303 C 
HETATM    5  C3  UNK     1       1.278   1.812   0.468  1.00  0.00     0.303 C 
HETATM    6  C4  UNK     1       1.411   0.663  -1.648  1.00  0.00     0.303 C 
ENDROOT
BRANCH   1   7
HETATM    7  C5  UNK     1      -0.181  -1.645   0.878  1.00  0.00     0.312 C 
BRANCH   7   8
HETATM    8  C7  UNK     1      -1.414  -1.504   1.703  1.00  0.00    -0.011 A 
HETATM    9  C10 UNK     1      -1.347  -1.152   2.995  1.00  0.00     0.092 A 
HETATM   10  C15 UNK     1      -2.537  -1.000   3.849  1.00  0.00     0.288 A 
HETATM   11  O1  UNK     1      -3.765  -1.241   3.254  1.00  0.00    -0.275 OA
HETATM   12  O2  UNK     1      -2.437  -0.676   5.027  1.00  0.00    -0.260 OA
HETATM   13  C11 UNK     1      -3.867  -1.613   1.898  1.00  0.00     0.090 A 
HETATM   14  C9  UNK     1      -2.730  -1.753   1.101  1.00  0.00     0.006 A 
HETATM   15  C16 UNK     1      -5.155  -1.831   1.406  1.00  0.00     0.045 A 
HETATM   16  C14 UNK     1      -2.917  -2.126  -0.237  1.00  0.00     0.015 A 
HETATM   17  C18 UNK     1      -4.202  -2.347  -0.745  1.00  0.00     0.007 A 
HETATM   18  C17 UNK     1      -5.319  -2.200   0.075  1.00  0.00    -0.059 A 
HETATM   19  C22 UNK     1      -6.685  -2.437  -0.474  1.00  0.00     0.048 C 
ENDBRANCH   7   8
ENDBRANCH   1   7
BRANCH   2  20
HETATM   20  C6  UNK     1       2.477   2.809  -1.371  1.00  0.00     0.314 C 
BRANCH  20  21
HETATM   21  C8  UNK     1       3.677   2.646  -2.259  1.00  0.00     0.009 A 
HETATM   22  C12 UNK     1       3.683   3.202  -3.538  1.00  0.00     0.124 A 
HETATM   23  F1  UNK     1       2.620   3.884  -3.986  1.00  0.00    -0.205 F 
HETATM   24  C19 UNK     1       4.799   3.050  -4.360  1.00  0.00     0.043 A 
HETATM   25  C21 UNK     1       5.910   2.340  -3.903  1.00  0.00     0.003 A 
HETATM   26  C20 UNK     1       5.904   1.784  -2.624  1.00  0.00     0.001 A 
HETATM   27  C13 UNK     1       4.788   1.937  -1.802  1.00  0.00     0.012 A 
ENDBRANCH  20  21
ENDBRANCH   2  20
TORSDOF 4
