REMARK  3 active torsions:
REMARK  status: ('A' for Active; 'I' for Inactive)
REMARK    1  A    between atoms: C5_9  and  N1_3 
REMARK    2  A    between atoms: C7_11  and  N2_4 
REMARK    3  A    between atoms: C5_9  and  C8_12 
ROOT
HETATM    1  N1  UNK     1      -0.645   1.090  -0.414  1.00  0.00     0.096 N 
HETATM    2  N2  UNK     1       1.854   1.601  -1.707  1.00  0.00    -0.373 N 
HETATM    3  C1  UNK     1       1.781   0.574  -0.650  1.00  0.00     0.108 C 
HETATM    4  C2  UNK     1       0.618   0.894   0.308  1.00  0.00     0.297 C 
HETATM    5  C3  UNK     1      -0.510   2.218  -1.343  1.00  0.00     0.292 C 
HETATM    6  C4  UNK     1       0.596   1.965  -2.369  1.00  0.00     0.154 C 
HETATM    7  C6  UNK     1       1.640  -0.821  -1.271  1.00  0.00     0.034 C 
ENDROOT
BRANCH   1   8
HETATM    8  C5  UNK     1      -1.742   1.327   0.525  1.00  0.00     0.312 C 
BRANCH   8   9
HETATM    9  C8  UNK     1      -1.911   0.203   1.486  1.00  0.00    -0.011 A 
HETATM   10  C12 UNK     1      -1.233   0.256   2.641  1.00  0.00     0.092 A 
HETATM   11  C18 UNK     1      -1.321  -0.790   3.673  1.00  0.00     0.288 A 
HETATM   12  O1  UNK     1      -2.154  -1.865   3.402  1.00  0.00    -0.275 OA
HETATM   13  O2  UNK     1      -0.685  -0.708   4.719  1.00  0.00    -0.260 OA
HETATM   14  C13 UNK     1      -2.880  -1.948   2.197  1.00  0.00     0.091 A 
HETATM   15  C9  UNK     1      -2.786  -0.948   1.227  1.00  0.00     0.012 A 
HETATM   16  C19 UNK     1      -3.687  -3.075   2.030  1.00  0.00     0.045 A 
HETATM   17  C14 UNK     1      -3.539  -1.106   0.056  1.00  0.00    -0.048 A 
HETATM   18  C20 UNK     1      -4.353  -2.231  -0.125  1.00  0.00     0.014 A 
HETATM   19  C22 UNK     1      -3.557  -0.137  -1.083  1.00  0.00     0.049 C 
HETATM   20  C21 UNK     1      -4.426  -3.213   0.860  1.00  0.00    -0.059 A 
HETATM   21  C24 UNK     1      -5.294  -4.409   0.661  1.00  0.00     0.048 C 
ENDBRANCH   8   9
ENDBRANCH   1   8
BRANCH   2  22
HETATM   22  C7  UNK     1       3.071   1.823  -2.362  1.00  0.00     0.031 A 
HETATM   23  C10 UNK     1       4.222   2.093  -1.623  1.00  0.00     0.036 A 
HETATM   24  C15 UNK     1       5.434   2.315  -2.276  1.00  0.00    -0.060 A 
HETATM   25  C17 UNK     1       5.495   2.267  -3.669  1.00  0.00     0.007 A 
HETATM   26  C23 UNK     1       6.666   2.603  -1.486  1.00  0.00     0.048 C 
HETATM   27  C16 UNK     1       4.343   1.997  -4.408  1.00  0.00     0.003 A 
HETATM   28  C11 UNK     1       3.131   1.776  -3.755  1.00  0.00     0.029 A 
ENDBRANCH   2  22
TORSDOF 3
