REMARK  3 active torsions:
REMARK  status: ('A' for Active; 'I' for Inactive)
REMARK    1  A    between atoms: C10_14  and  O2_2 
REMARK    2  A    between atoms: C3_7  and  O2_2 
REMARK    3  A    between atoms: C10_14  and  C8_12 
ROOT
HETATM    1  O1  UNK     1      -1.336  -0.389   1.958  1.00  0.00    -0.275 OA
HETATM    2  O4  UNK     1      -2.613  -1.525   3.483  1.00  0.00    -0.260 OA
HETATM    3  C1  UNK     1      -1.735  -0.742  -0.417  1.00  0.00    -0.002 A 
HETATM    4  C2  UNK     1      -1.032  -0.116   0.609  1.00  0.00     0.092 A 
HETATM    5  C3  UNK     1       0.315   1.083  -0.976  1.00  0.00     0.082 A 
HETATM    6  C4  UNK     1      -0.009   0.794   0.348  1.00  0.00     0.075 A 
HETATM    7  C5  UNK     1      -1.404  -0.446  -1.741  1.00  0.00     0.017 A 
HETATM    8  C6  UNK     1      -0.381   0.465  -2.018  1.00  0.00     0.038 A 
HETATM    9  C7  UNK     1      -2.789  -1.681  -0.072  1.00  0.00     0.020 A 
HETATM   10  C9  UNK     1      -3.072  -1.933   1.208  1.00  0.00     0.083 A 
HETATM   11  C11 UNK     1      -2.341  -1.283   2.312  1.00  0.00     0.288 A 
ENDROOT
BRANCH   5  12
HETATM   12  O2  UNK     1       1.310   1.970  -1.255  1.00  0.00    -0.279 OA
BRANCH  12  13
HETATM   13  C10 UNK     1       2.586   1.387  -1.375  1.00  0.00     0.263 C 
HETATM   14  O3  UNK     1       2.833   0.196  -1.250  1.00  0.00    -0.265 OA
BRANCH  13  15
HETATM   15  C8  UNK     1       3.601   2.464  -1.684  1.00  0.00     0.107 C 
HETATM   16  C12 UNK     1       5.001   1.898  -1.848  1.00  0.00     0.015 C 
ENDBRANCH  13  15
ENDBRANCH  12  13
ENDBRANCH   5  12
TORSDOF 3
