REMARK  3 active torsions:
REMARK  status: ('A' for Active; 'I' for Inactive)
REMARK    1  A    between atoms: C18_22  and  O3_3 
REMARK    2  A    between atoms: C4_8  and  C9_13 
REMARK    3  A    between atoms: C12_16  and  C18_22 
ROOT
HETATM    1  O1  UNK     1      -0.361   0.837   0.530  1.00  0.00    -0.308 OA
HETATM    2  O2  UNK     1      -2.682  -1.418  -1.945  1.00  0.00    -0.287 OA
HETATM    3  C1  UNK     1      -1.356   0.051   1.054  1.00  0.00     0.096 A 
HETATM    4  C2  UNK     1      -2.185  -0.746   0.265  1.00  0.00     0.049 A 
HETATM    5  C3  UNK     1      -1.522   0.071   2.439  1.00  0.00    -0.027 A 
HETATM    6  C4  UNK     1      -0.169   0.831  -0.843  1.00  0.00     0.091 A 
HETATM    7  C5  UNK     1      -3.346  -1.504   2.238  1.00  0.00    -0.060 A 
HETATM    8  C6  UNK     1      -3.183  -1.526   0.853  1.00  0.00     0.025 A 
HETATM    9  C7  UNK     1      -2.517  -0.707   3.030  1.00  0.00     0.016 A 
HETATM   10  C8  UNK     1      -1.990  -0.747  -1.193  1.00  0.00     0.187 A 
HETATM   11  C10 UNK     1      -0.905   0.114  -1.706  1.00  0.00     0.093 A 
HETATM   12  C11 UNK     1      -0.648   0.915   3.309  1.00  0.00     0.051 C 
HETATM   13  C13 UNK     1      -4.410  -2.333   2.876  1.00  0.00     0.048 C 
ENDROOT
BRANCH   6  14
HETATM   14  C9  UNK     1       0.922   1.716  -1.299  1.00  0.00     0.015 A 
HETATM   15  C12 UNK     1       2.236   1.255  -1.434  1.00  0.00     0.050 A 
HETATM   16  C15 UNK     1       3.243   2.118  -1.868  1.00  0.00     0.019 A 
HETATM   17  C17 UNK     1       2.941   3.446  -2.169  1.00  0.00     0.001 A 
HETATM   18  C16 UNK     1       1.633   3.911  -2.037  1.00  0.00     0.001 A 
HETATM   19  C14 UNK     1       0.626   3.049  -1.603  1.00  0.00     0.015 A 
BRANCH  15  20
HETATM   20  C18 UNK     1       2.593  -0.125  -1.129  1.00  0.00     0.177 C 
HETATM   21  O4  UNK     1       2.033  -0.838  -0.294  1.00  0.00    -0.646 OA
BRANCH  20  22
HETATM   22  O3  UNK     1       3.637  -0.567  -1.881  1.00  0.00    -0.773 OA
HETATM   23  H14 UNK     1       3.871  -1.496  -1.671  1.00  0.00     0.167 HD
ENDBRANCH  20  22
ENDBRANCH  15  20
ENDBRANCH   6  14
TORSDOF 3
