REMARK  3 active torsions:
REMARK  status: ('A' for Active; 'I' for Inactive)
REMARK    1  A    between atoms: C9_16  and  O2_6 
REMARK    2  A    between atoms: C1_8  and  C4_11 
REMARK    3  A    between atoms: C10_17  and  C4_11 
ROOT
HETATM    1  O1  UNK     1      -0.134   0.534  -0.923  1.00  0.00    -0.307 OA
HETATM    2  O3  UNK     1       1.199   0.119   2.905  1.00  0.00    -0.287 OA
HETATM    3  C1  UNK     1       1.095   1.031  -0.522  1.00  0.00     0.134 A 
HETATM    4  C2  UNK     1      -0.516  -0.290   1.330  1.00  0.00     0.048 A 
HETATM    5  C3  UNK     1      -0.911  -0.113   0.005  1.00  0.00     0.092 A 
HETATM    6  C5  UNK     1       1.584   0.924   0.723  1.00  0.00     0.095 A 
HETATM    7  C6  UNK     1       0.788   0.238   1.759  1.00  0.00     0.187 A 
HETATM    8  C7  UNK     1      -2.143  -0.605  -0.427  1.00  0.00     0.075 A 
HETATM    9  C8  UNK     1      -1.348  -0.957   2.232  1.00  0.00     0.021 A 
HETATM   10  C9  UNK     1      -2.977  -1.272   0.471  1.00  0.00     0.070 A 
HETATM   11  C11 UNK     1      -2.580  -1.447   1.797  1.00  0.00     0.038 A 
ENDROOT
BRANCH   3  12
HETATM   12  C4  UNK     1       1.850   1.714  -1.619  1.00  0.00     0.349 C 
HETATM   13  F1  UNK     1       1.145   2.772  -2.089  1.00  0.00    -0.192 F 
HETATM   14  F2  UNK     1       3.029   2.199  -1.158  1.00  0.00    -0.192 F 
BRANCH  12  15
HETATM   15  C10 UNK     1       2.112   0.752  -2.749  1.00  0.00     0.431 C 
HETATM   16  F3  UNK     1       2.813   1.391  -3.719  1.00  0.00    -0.207 F 
HETATM   17  F4  UNK     1       2.889  -0.273  -2.319  1.00  0.00    -0.207 F 
ENDBRANCH  12  15
ENDBRANCH   3  12
BRANCH  10  18
HETATM   18  O2  UNK     1      -4.180  -1.751   0.053  1.00  0.00    -0.356 OA
HETATM   19  C12 UNK     1      -4.984  -2.421   1.022  1.00  0.00     0.210 C 
ENDBRANCH  10  18
TORSDOF 3
