REMARK  4 active torsions:
REMARK  status: ('A' for Active; 'I' for Inactive)
REMARK    1  A    between atoms: C4_9  and  N1_4 
REMARK       I    between atoms: C7_12  and  N1_4 
REMARK    2  A    between atoms: C15_20  and  N2_5 
REMARK    3  A    between atoms: C6_11  and  N2_5 
REMARK    4  A    between atoms: C2_7  and  C7_12 
ROOT
HETATM    1  O2  UNK     1       1.475   0.875   0.792  1.00  0.00    -0.267 OA
HETATM    2  N1  UNK     1       0.207   0.198  -1.088  1.00  0.00    -0.323 N 
HETATM    3  C7  UNK     1       1.250   0.813  -0.415  1.00  0.00     0.262 C 
HETATM    4  H2  UNK     1       0.200   0.239  -2.104  1.00  0.00     0.169 HD
ENDROOT
BRANCH   2   5
HETATM    5  C4  UNK     1      -0.875  -0.524  -0.531  1.00  0.00     0.035 A 
HETATM    6  C8  UNK     1      -1.829  -1.072  -1.374  1.00  0.00     0.032 A 
HETATM    7  C10 UNK     1      -2.895  -1.785  -0.825  1.00  0.00     0.031 A 
HETATM    8  C6  UNK     1      -2.993  -1.941   0.557  1.00  0.00     0.032 A 
HETATM    9  C11 UNK     1      -2.024  -1.383   1.392  1.00  0.00     0.031 A 
HETATM   10  C9  UNK     1      -0.958  -0.670   0.844  1.00  0.00     0.032 A 
BRANCH   8  11
HETATM   11  N2  UNK     1      -4.070  -2.662   1.112  1.00  0.00    -0.356 N 
HETATM   12  H8  UNK     1      -4.424  -3.397   0.505  1.00  0.00     0.166 HD
BRANCH  11  13
HETATM   13  C15 UNK     1      -4.753  -2.564   2.340  1.00  0.00     0.032 A 
HETATM   14  C18 UNK     1      -5.323  -3.700   2.916  1.00  0.00     0.029 A 
HETATM   15  C20 UNK     1      -5.999  -3.603   4.132  1.00  0.00     0.002 A 
HETATM   16  C22 UNK     1      -6.105  -2.369   4.774  1.00  0.00     0.000 A 
HETATM   17  C21 UNK     1      -5.536  -1.233   4.200  1.00  0.00     0.002 A 
HETATM   18  C19 UNK     1      -4.860  -1.330   2.983  1.00  0.00     0.029 A 
ENDBRANCH  11  13
ENDBRANCH   8  11
ENDBRANCH   2   5
BRANCH   3  19
HETATM   19  C2  UNK     1       2.203   1.478  -1.312  1.00  0.00     0.108 A 
HETATM   20  C13 UNK     1       1.789   2.049  -2.614  1.00  0.00     0.304 A 
HETATM   21  O1  UNK     1       2.784   2.654  -3.376  1.00  0.00    -0.274 OA
HETATM   22  O3  UNK     1       0.628   1.994  -3.006  1.00  0.00    -0.259 OA
HETATM   23  C3  UNK     1       4.120   2.723  -2.934  1.00  0.00     0.089 A 
HETATM   24  C1  UNK     1       4.488   2.180  -1.708  1.00  0.00    -0.001 A 
HETATM   25  C14 UNK     1       5.045   3.350  -3.767  1.00  0.00     0.038 A 
HETATM   26  C5  UNK     1       3.471   1.540  -0.888  1.00  0.00     0.037 A 
HETATM   27  C12 UNK     1       5.822   2.268  -1.305  1.00  0.00     0.014 A 
HETATM   28  C16 UNK     1       6.762   2.894  -2.129  1.00  0.00     0.001 A 
HETATM   29  C17 UNK     1       6.374   3.434  -3.357  1.00  0.00     0.003 A 
ENDBRANCH   3  19
TORSDOF 4
