REMARK  1 active torsions:
REMARK  status: ('A' for Active; 'I' for Inactive)
REMARK       I    between atoms: C14_20  and  N1_5 
REMARK    1  A    between atoms: C14_20  and  C15_21 
ROOT
HETATM    1  O1  UNK     1       3.689   3.016   0.368  1.00  0.00    -0.268 OA
HETATM    2  O2  UNK     1      -0.691  -0.515  -2.513  1.00  0.00    -0.267 OA
HETATM    3  N1  UNK     1       0.729   0.522  -0.953  1.00  0.00    -0.289 N 
HETATM    4  N2  UNK     1       2.410   2.251  -1.360  1.00  0.00    -0.330 N 
HETATM    5  C1  UNK     1       1.576   1.214  -1.989  1.00  0.00     0.116 C 
HETATM    6  C2  UNK     1       0.700   1.944  -3.052  1.00  0.00     0.054 C 
HETATM    7  C3  UNK     1       2.498   0.175  -2.680  1.00  0.00     0.054 C 
HETATM    8  C4  UNK     1       1.497   2.492  -4.240  1.00  0.00     0.004 C 
HETATM    9  C5  UNK     1       3.285   0.755  -3.857  1.00  0.00     0.004 C 
HETATM   10  C6  UNK     1       2.369   1.417  -4.878  1.00  0.00     0.000 C 
HETATM   11  C7  UNK     1       1.294   0.358   0.333  1.00  0.00     0.029 C 
HETATM   12  C8  UNK     1       2.331   1.108   0.765  1.00  0.00     0.033 C 
HETATM   13  C9  UNK     1       0.798  -0.791   1.201  1.00  0.00     0.058 C 
HETATM   14  C10 UNK     1       2.877   2.208  -0.076  1.00  0.00     0.251 C 
HETATM   15  C11 UNK     1       3.007   0.936   2.106  1.00  0.00     0.046 C 
HETATM   16  C12 UNK     1       1.790  -1.240   2.277  1.00  0.00     0.006 C 
HETATM   17  C13 UNK     1       2.301  -0.035   3.046  1.00  0.00     0.005 C 
HETATM   18  C14 UNK     1      -0.422  -0.175  -1.362  1.00  0.00     0.266 C 
HETATM   19  H11 UNK     1       2.788   2.986  -1.949  1.00  0.00     0.165 HD
ENDROOT
BRANCH  18  20
HETATM   20  C15 UNK     1      -1.440  -0.391  -0.310  1.00  0.00     0.108 A 
HETATM   21  C16 UNK     1      -2.187  -1.495  -0.428  1.00  0.00     0.037 A 
HETATM   22  C18 UNK     1      -3.214  -1.794   0.558  1.00  0.00    -0.001 A 
HETATM   23  C19 UNK     1      -3.405  -0.915   1.619  1.00  0.00     0.089 A 
HETATM   24  C20 UNK     1      -4.017  -2.934   0.474  1.00  0.00     0.014 A 
HETATM   25  O3  UNK     1      -2.615   0.245   1.738  1.00  0.00    -0.274 OA
HETATM   26  C21 UNK     1      -4.372  -1.143   2.596  1.00  0.00     0.038 A 
HETATM   27  C17 UNK     1      -1.625   0.558   0.811  1.00  0.00     0.304 A 
HETATM   28  O4  UNK     1      -0.943   1.571   0.923  1.00  0.00    -0.259 OA
HETATM   29  C23 UNK     1      -5.168  -2.283   2.506  1.00  0.00     0.003 A 
HETATM   30  C22 UNK     1      -4.991  -3.177   1.447  1.00  0.00     0.001 A 
ENDBRANCH  18  20
TORSDOF 1
