REMARK  1 active torsions:
REMARK  status: ('A' for Active; 'I' for Inactive)
REMARK    1  A    between atoms: C2_6  and  C4_8 
ROOT
HETATM    1  O2  UNK     1       1.647   1.357  -3.332  1.00  0.00    -0.275 OA
HETATM    2  O3  UNK     1       0.027   0.797  -4.844  1.00  0.00    -0.260 OA
HETATM    3  C1  UNK     1       1.277   0.887  -0.967  1.00  0.00     0.012 A 
HETATM    4  C2  UNK     1      -0.042   0.318  -1.295  1.00  0.00     0.017 A 
HETATM    5  C3  UNK     1       2.078   1.387  -1.993  1.00  0.00     0.091 A 
HETATM    6  C5  UNK     1       3.034   1.501   0.600  1.00  0.00    -0.055 A 
HETATM    7  C6  UNK     1       1.774   0.951   0.342  1.00  0.00     0.022 A 
HETATM    8  C7  UNK     1       3.814   1.995  -0.445  1.00  0.00    -0.053 A 
HETATM    9  C8  UNK     1       3.337   1.939  -1.750  1.00  0.00     0.045 A 
HETATM   10  C12 UNK     1      -0.421   0.306  -2.585  1.00  0.00     0.097 A 
HETATM   11  C13 UNK     1       3.525   1.550   2.010  1.00  0.00     0.049 C 
HETATM   12  C14 UNK     1       5.161   2.585  -0.187  1.00  0.00     0.049 C 
HETATM   13  C15 UNK     1       0.413   0.830  -3.681  1.00  0.00     0.289 A 
ENDROOT
BRANCH   4  14
HETATM   14  C4  UNK     1      -0.958  -0.223  -0.369  1.00  0.00     0.088 A 
HETATM   15  C10 UNK     1      -1.958   0.445   0.303  1.00  0.00     0.052 A 
HETATM   16  C9  UNK     1      -2.611  -0.520   1.116  1.00  0.00     0.002 A 
HETATM   17  C11 UNK     1      -1.954  -1.722   0.877  1.00  0.00     0.086 A 
HETATM   18  C16 UNK     1      -3.683  -0.509   2.025  1.00  0.00     0.038 A 
HETATM   19  O1  UNK     1      -0.949  -1.539  -0.026  1.00  0.00    -0.309 OA
HETATM   20  C17 UNK     1      -2.289  -2.930   1.485  1.00  0.00     0.040 A 
HETATM   21  C19 UNK     1      -3.358  -2.897   2.385  1.00  0.00     0.026 A 
HETATM   22  C18 UNK     1      -4.044  -1.710   2.652  1.00  0.00     0.035 A 
HETATM   23 Cl1  UNK     1      -5.355  -1.718   3.771  1.00  0.00    -0.084 Cl
ENDBRANCH   4  14
TORSDOF 1
