REMARK  9 active torsions:
REMARK  status: ('A' for Active; 'I' for Inactive)
REMARK    1  A    between atoms: C1_13  and  O1_5 
REMARK    2  A    between atoms: C8_20  and  O1_5 
REMARK    3  A    between atoms: C15_27  and  O3_7 
REMARK    4  A    between atoms: C9_21  and  O3_7 
REMARK    5  A    between atoms: C12_24  and  O4_8 
REMARK    6  A    between atoms: C19_31  and  O4_8 
REMARK    7  A    between atoms: C5_17  and  N1_12 
REMARK       I    between atoms: C8_20  and  N1_12 
REMARK    8  A    between atoms: C15_27  and  C5_17 
REMARK    9  A    between atoms: C14_26  and  C18_30 
ROOT
HETATM    1  O2  UNK     1      -0.399  -1.711  -0.331  1.00  0.00    -0.302 OA
HETATM    2  O6  UNK     1      -2.037  -0.388   3.155  1.00  0.00    -0.284 OA
HETATM    3  C6  UNK     1      -0.426  -0.076   1.462  1.00  0.00     0.051 A 
HETATM    4  C7  UNK     1       0.090  -0.581   0.271  1.00  0.00     0.093 A 
HETATM    5  C9  UNK     1       1.689   1.227   0.202  1.00  0.00     0.082 A 
HETATM    6  C10 UNK     1       1.149   0.071  -0.361  1.00  0.00     0.075 A 
HETATM    7  C11 UNK     1      -1.543  -0.782   2.108  1.00  0.00     0.221 A 
HETATM    8  C12 UNK     1      -2.034  -1.999   1.419  1.00  0.00     0.165 A 
HETATM    9  C13 UNK     1       0.112   1.082   2.030  1.00  0.00     0.021 A 
HETATM   10  C14 UNK     1      -1.452  -2.384   0.271  1.00  0.00     0.197 A 
HETATM   11  C17 UNK     1       1.171   1.732   1.395  1.00  0.00     0.038 A 
ENDROOT
BRANCH   5  12
HETATM   12  O3  UNK     1       2.722   1.865  -0.414  1.00  0.00    -0.277 OA
BRANCH  12  13
HETATM   13  C15 UNK     1       3.997   1.429  -0.017  1.00  0.00     0.286 C 
HETATM   14  O7  UNK     1       4.203   0.545   0.808  1.00  0.00    -0.263 OA
BRANCH  13  15
HETATM   15  C5  UNK     1       5.122   2.169  -0.730  1.00  0.00     0.183 C 
HETATM   16  C16 UNK     1       6.001   2.890   0.280  1.00  0.00     0.043 C 
BRANCH  15  17
HETATM   17  N1  UNK     1       4.621   3.097  -1.711  1.00  0.00    -0.323 N 
HETATM   18  C8  UNK     1       4.330   2.754  -3.017  1.00  0.00     0.362 C 
HETATM   19  O5  UNK     1       4.457   1.637  -3.507  1.00  0.00    -0.238 OA
HETATM   20  H11 UNK     1       4.417   4.048  -1.418  1.00  0.00     0.165 HD
BRANCH  18  21
HETATM   21  O1  UNK     1       3.875   3.851  -3.694  1.00  0.00    -0.294 OA
BRANCH  21  22
HETATM   22  C1  UNK     1       3.534   3.640  -5.068  1.00  0.00     0.061 C 
HETATM   23  C2  UNK     1       4.782   3.166  -5.812  1.00  0.00     0.046 C 
HETATM   24  C3  UNK     1       2.426   2.589  -5.138  1.00  0.00     0.046 C 
HETATM   25  C4  UNK     1       3.046   4.973  -5.632  1.00  0.00     0.046 C 
ENDBRANCH  21  22
ENDBRANCH  18  21
ENDBRANCH  15  17
ENDBRANCH  13  15
ENDBRANCH  12  13
ENDBRANCH   5  12
BRANCH  10  26
HETATM   26  C18 UNK     1      -1.874  -3.598  -0.502  1.00  0.00     0.442 C 
HETATM   27  F1  UNK     1      -2.897  -4.227   0.111  1.00  0.00    -0.164 F 
HETATM   28  F2  UNK     1      -2.277  -3.263  -1.744  1.00  0.00    -0.164 F 
HETATM   29  F3  UNK     1      -0.858  -4.476  -0.619  1.00  0.00    -0.164 F 
ENDBRANCH  10  26
BRANCH   8  30
HETATM   30  O4  UNK     1      -3.079  -2.692   1.990  1.00  0.00    -0.304 OA
BRANCH  30  31
HETATM   31  C19 UNK     1      -4.253  -2.014   2.158  1.00  0.00     0.076 A 
HETATM   32  C20 UNK     1      -4.756  -1.223   1.125  1.00  0.00     0.039 A 
HETATM   33  C22 UNK     1      -5.956  -0.533   1.295  1.00  0.00     0.026 A 
HETATM   34  C24 UNK     1      -6.654  -0.633   2.499  1.00  0.00     0.034 A 
HETATM   35  C23 UNK     1      -6.151  -1.424   3.532  1.00  0.00     0.026 A 
HETATM   36 Cl1  UNK     1      -8.133   0.220   2.708  1.00  0.00    -0.084 Cl
HETATM   37  C21 UNK     1      -4.951  -2.114   3.362  1.00  0.00     0.039 A 
ENDBRANCH  30  31
ENDBRANCH   8  30
TORSDOF 9
