REMARK  7 active torsions:
REMARK  status: ('A' for Active; 'I' for Inactive)
REMARK    1  A    between atoms: C13_17  and  O2_2 
REMARK    2  A    between atoms: C15_19  and  O2_2 
REMARK    3  A    between atoms: C1_5  and  C2_6 
REMARK    4  A    between atoms: C1_5  and  C3_7 
REMARK    5  A    between atoms: C3_7  and  C6_10 
REMARK    6  A    between atoms: C15_19  and  C16_20 
REMARK    7  A    between atoms: C16_20  and  C17_21 
ROOT
HETATM    1  O1  UNK     1      -1.920  -0.996  -0.521  1.00  0.00    -0.274 OA
HETATM    2  O3  UNK     1      -4.044  -1.676  -0.941  1.00  0.00    -0.259 OA
HETATM    3  C2  UNK     1      -3.548  -1.099   1.317  1.00  0.00     0.024 A 
HETATM    4  C4  UNK     1      -2.615  -0.701   2.207  1.00  0.00    -0.037 A 
HETATM    5  C5  UNK     1      -1.250  -0.387   1.737  1.00  0.00     0.005 A 
HETATM    6  C7  UNK     1      -0.950  -0.547   0.387  1.00  0.00     0.092 A 
HETATM    7  C8  UNK     1      -3.216  -1.282  -0.126  1.00  0.00     0.295 A 
HETATM    8  C9  UNK     1      -2.874  -0.567   3.687  1.00  0.00     0.050 C 
HETATM    9  C10 UNK     1      -0.221   0.080   2.570  1.00  0.00     0.017 A 
HETATM   10  C11 UNK     1       0.315  -0.273  -0.140  1.00  0.00     0.075 A 
HETATM   11  C13 UNK     1       1.321   0.183   0.704  1.00  0.00     0.072 A 
HETATM   12  C14 UNK     1       1.052   0.360   2.059  1.00  0.00     0.038 A 
ENDROOT
BRANCH  11  13
HETATM   13  O2  UNK     1       2.558   0.456   0.211  1.00  0.00    -0.344 OA
BRANCH  13  14
HETATM   14  C15 UNK     1       2.635   0.895  -1.145  1.00  0.00     0.259 C 
BRANCH  14  15
HETATM   15  C16 UNK     1       3.834   1.805  -1.329  1.00  0.00     0.183 C 
HETATM   16  O4  UNK     1       4.566   2.105  -0.390  1.00  0.00    -0.290 OA
BRANCH  15  17
HETATM   17  C17 UNK     1       4.121   2.346  -2.689  1.00  0.00     0.012 A 
HETATM   18  C18 UNK     1       3.287   1.999  -3.729  1.00  0.00     0.015 A 
HETATM   19  C20 UNK     1       3.556   2.507  -5.000  1.00  0.00     0.001 A 
HETATM   20  C22 UNK     1       4.651   3.348  -5.198  1.00  0.00     0.000 A 
HETATM   21  C21 UNK     1       5.477   3.681  -4.124  1.00  0.00     0.001 A 
HETATM   22  C19 UNK     1       5.209   3.174  -2.853  1.00  0.00     0.015 A 
ENDBRANCH  15  17
ENDBRANCH  14  15
ENDBRANCH  13  14
ENDBRANCH  11  13
BRANCH   3  23
HETATM   23  C1  UNK     1      -4.989  -1.389   1.651  1.00  0.00     0.045 C 
BRANCH  23  24
HETATM   24  C3  UNK     1      -5.187  -2.851   2.031  1.00  0.00     0.004 C 
BRANCH  24  25
HETATM   25  C6  UNK     1      -6.647  -3.122   2.395  1.00  0.00    -0.004 C 
HETATM   26  C12 UNK     1      -6.857  -4.569   2.814  1.00  0.00     0.005 C 
ENDBRANCH  24  25
ENDBRANCH  23  24
ENDBRANCH   3  23
TORSDOF 7
