REMARK  7 active torsions:
REMARK  status: ('A' for Active; 'I' for Inactive)
REMARK    1  A    between atoms: C1_7  and  O1_1 
REMARK    2  A    between atoms: C4_10  and  O1_1 
REMARK    3  A    between atoms: C10_16  and  O3_3 
REMARK    4  A    between atoms: C17_23  and  O3_3 
REMARK    5  A    between atoms: C1_7  and  C6_12 
REMARK    6  A    between atoms: C1_7  and  C10_16 
REMARK    7  A    between atoms: C12_18  and  C2_8 
ROOT
HETATM    1  O2  UNK     1       2.992   1.522  -0.845  1.00  0.00    -0.274 OA
HETATM    2  O6  UNK     1       4.992   2.187  -1.732  1.00  0.00    -0.260 OA
HETATM    3  C2  UNK     1       0.906   0.828   0.085  1.00  0.00     0.077 A 
HETATM    4  C3  UNK     1       1.128   1.020  -2.343  1.00  0.00     0.005 A 
HETATM    5  C4  UNK     1      -0.417   0.425  -0.060  1.00  0.00     0.086 A 
HETATM    6  C5  UNK     1       1.658   1.119  -1.055  1.00  0.00     0.106 A 
HETATM    7  C7  UNK     1       1.992   1.346  -3.486  1.00  0.00    -0.043 A 
HETATM    8  C8  UNK     1      -0.207   0.613  -2.467  1.00  0.00     0.017 A 
HETATM    9  C9  UNK     1      -0.973   0.318  -1.333  1.00  0.00     0.039 A 
HETATM   10  C13 UNK     1       3.257   1.726  -3.256  1.00  0.00     0.090 A 
HETATM   11  C14 UNK     1       1.452   1.249  -4.883  1.00  0.00     0.049 C 
HETATM   12  C15 UNK     1       3.830   1.835  -1.904  1.00  0.00     0.288 A 
ENDROOT
BRANCH   5  13
HETATM   13  O1  UNK     1      -1.185   0.129   1.027  1.00  0.00    -0.335 OA
BRANCH  13  14
HETATM   14  C1  UNK     1      -1.712  -1.193   1.106  1.00  0.00     0.228 C 
BRANCH  14  15
HETATM   15  C6  UNK     1      -1.223  -1.848   2.398  1.00  0.00     0.038 C 
HETATM   16  C11 UNK     1      -1.644  -1.069   3.636  1.00  0.00     0.008 C 
ENDBRANCH  14  15
BRANCH  14  17
HETATM   17  C10 UNK     1      -3.225  -1.098   1.082  1.00  0.00     0.288 C 
HETATM   18  O4  UNK     1      -3.854  -0.048   1.055  1.00  0.00    -0.262 OA
BRANCH  17  19
HETATM   19  O3  UNK     1      -3.766  -2.351   1.121  1.00  0.00    -0.320 OA
BRANCH  19  20
HETATM   20  C17 UNK     1      -5.196  -2.407   1.131  1.00  0.00     0.174 C 
HETATM   21  C18 UNK     1      -5.633  -3.855   1.175  1.00  0.00     0.034 C 
ENDBRANCH  19  20
ENDBRANCH  17  19
ENDBRANCH  14  17
ENDBRANCH  13  14
ENDBRANCH   5  13
BRANCH   3  22
HETATM   22  C12 UNK     1       1.494   0.942   1.415  1.00  0.00     0.161 C 
HETATM   23  O5  UNK     1       1.022   1.718   2.266  1.00  0.00    -0.293 OA
HETATM   24  C16 UNK     1       2.709   0.104   1.788  1.00  0.00     0.097 C 
ENDBRANCH   3  22
TORSDOF 7
