REMARK  5 active torsions:
REMARK  status: ('A' for Active; 'I' for Inactive)
REMARK    1  A    between atoms: C12_15  and  O2_2 
REMARK    2  A    between atoms: C8_11  and  O2_2 
REMARK    3  A    between atoms: C3_6  and  C6_9 
REMARK    4  A    between atoms: C14_17  and  C6_9 
REMARK    5  A    between atoms: C12_15  and  C13_16 
ROOT
HETATM    1  O1  UNK     1       0.947   0.446  -2.239  1.00  0.00    -0.274 OA
HETATM    2  O3  UNK     1       2.148   0.984  -4.088  1.00  0.00    -0.259 OA
HETATM    3  C1  UNK     1       1.839   0.897  -0.021  1.00  0.00     0.005 A 
HETATM    4  C2  UNK     1       3.049   1.472  -0.645  1.00  0.00    -0.036 A 
HETATM    5  C3  UNK     1       3.165   1.474  -1.990  1.00  0.00     0.028 A 
HETATM    6  C4  UNK     1       0.829   0.405  -0.841  1.00  0.00     0.092 A 
HETATM    7  C5  UNK     1       1.641   0.802   1.365  1.00  0.00     0.017 A 
HETATM    8  C7  UNK     1      -0.347  -0.154  -0.334  1.00  0.00     0.075 A 
HETATM    9  C8  UNK     1      -0.525  -0.232   1.042  1.00  0.00     0.071 A 
HETATM   10  C9  UNK     1       2.072   0.957  -2.863  1.00  0.00     0.295 A 
HETATM   11  C10 UNK     1       4.090   2.044   0.286  1.00  0.00     0.050 C 
HETATM   12  C11 UNK     1       0.469   0.245   1.892  1.00  0.00     0.038 A 
ENDROOT
BRANCH   9  13
HETATM   13  O2  UNK     1      -1.662  -0.773   1.556  1.00  0.00    -0.347 OA
BRANCH  13  14
HETATM   14  C12 UNK     1      -2.638  -1.242   0.626  1.00  0.00     0.214 C 
BRANCH  14  15
HETATM   15  C13 UNK     1      -3.821  -1.770   1.382  1.00  0.00    -0.034 A 
HETATM   16  C15 UNK     1      -3.861  -3.109   1.752  1.00  0.00     0.009 A 
HETATM   17  C17 UNK     1      -4.961  -3.600   2.455  1.00  0.00     0.001 A 
HETATM   18  C20 UNK     1      -6.016  -2.748   2.783  1.00  0.00     0.000 A 
HETATM   19  C18 UNK     1      -5.970  -1.405   2.408  1.00  0.00     0.001 A 
HETATM   20  C16 UNK     1      -4.869  -0.914   1.706  1.00  0.00     0.009 A 
ENDBRANCH  14  15
ENDBRANCH  13  14
ENDBRANCH   9  13
BRANCH   5  21
HETATM   21  C6  UNK     1       4.369   1.969  -2.750  1.00  0.00     0.071 C 
BRANCH  21  22
HETATM   22  C14 UNK     1       4.254   3.422  -3.073  1.00  0.00    -0.032 C 
HETATM   23  C19 UNK     1       4.261   3.910  -4.319  1.00  0.00     0.007 C 
ENDBRANCH  21  22
ENDBRANCH   5  21
TORSDOF 5
