REMARK  3 active torsions:
REMARK  status: ('A' for Active; 'I' for Inactive)
REMARK    1  A    between atoms: C1_6  and  N1_5 
REMARK       I    between atoms: C9_14  and  N1_5 
REMARK    2  A    between atoms: C1_6  and  C2_7 
REMARK    3  A    between atoms: C10_15  and  C9_14 
ROOT
HETATM    1  O2  UNK     1      -0.691  -0.598  -2.794  1.00  0.00    -0.267 OA
HETATM    2  N1  UNK     1      -1.352  -0.231  -0.589  1.00  0.00    -0.348 N 
HETATM    3  C9  UNK     1      -0.471  -0.195  -1.653  1.00  0.00     0.258 C 
HETATM    4  H3  UNK     1      -1.082   0.190   0.295  1.00  0.00     0.163 HD
ENDROOT
BRANCH   3   5
HETATM    5  C10 UNK     1       0.825   0.399  -1.302  1.00  0.00     0.108 A 
HETATM    6  C14 UNK     1       1.472   1.033  -2.286  1.00  0.00     0.037 A 
HETATM    7  C13 UNK     1       2.764   1.654  -2.035  1.00  0.00     0.001 A 
HETATM    8  C15 UNK     1       3.310   1.577  -0.757  1.00  0.00     0.089 A 
HETATM    9  C17 UNK     1       3.475   2.325  -3.033  1.00  0.00     0.038 A 
HETATM   10  O1  UNK     1       2.623   0.909   0.275  1.00  0.00    -0.274 OA
HETATM   11  C18 UNK     1       4.543   2.149  -0.451  1.00  0.00     0.040 A 
HETATM   12  C16 UNK     1       1.387   0.305   0.065  1.00  0.00     0.304 A 
HETATM   13  O3  UNK     1       0.796  -0.274   0.970  1.00  0.00    -0.259 OA
HETATM   14  C20 UNK     1       5.245   2.817  -1.451  1.00  0.00     0.026 A 
HETATM   15  C19 UNK     1       4.713   2.905  -2.740  1.00  0.00     0.035 A 
HETATM   16 Cl1  UNK     1       5.585   3.732  -3.972  1.00  0.00    -0.084 Cl
ENDBRANCH   3   5
BRANCH   2  17
HETATM   17  C1  UNK     1      -2.690  -0.768  -0.692  1.00  0.00     0.114 C 
HETATM   18  C5  UNK     1      -3.652   0.317  -1.180  1.00  0.00     0.037 C 
BRANCH  17  19
HETATM   19  C2  UNK     1      -3.146  -1.365   0.627  1.00  0.00    -0.035 A 
HETATM   20  C3  UNK     1      -3.248  -0.546   1.735  1.00  0.00     0.016 A 
HETATM   21  C4  UNK     1      -3.667  -1.095   2.947  1.00  0.00    -0.056 A 
HETATM   22  C11 UNK     1      -3.777  -0.210   4.145  1.00  0.00     0.049 C 
HETATM   23  C7  UNK     1      -3.975  -2.453   3.028  1.00  0.00    -0.056 A 
HETATM   24  C12 UNK     1      -4.426  -3.064   4.314  1.00  0.00     0.049 C 
HETATM   25  C8  UNK     1      -3.865  -3.262   1.897  1.00  0.00     0.008 A 
HETATM   26  C6  UNK     1      -3.447  -2.713   0.685  1.00  0.00     0.010 A 
ENDBRANCH  17  19
ENDBRANCH   2  17
TORSDOF 3
