REMARK  2 active torsions:
REMARK  status: ('A' for Active; 'I' for Inactive)
REMARK       I    between atoms: C14_19  and  N1_5 
REMARK    1  A    between atoms: C15_20  and  N1_5 
REMARK    2  A    between atoms: C14_19  and  C7_12 
ROOT
HETATM    1  O1  UNK     1       1.911   1.163   1.415  1.00  0.00    -0.274 OA
HETATM    2  O2  UNK     1       0.140   0.417   2.648  1.00  0.00    -0.259 OA
HETATM    3  C1  UNK     1       1.801   1.177  -1.031  1.00  0.00     0.010 A 
HETATM    4  C2  UNK     1       2.436   1.464  -2.275  1.00  0.00    -0.013 A 
HETATM    5  C3  UNK     1       3.756   1.996  -2.257  1.00  0.00    -0.025 A 
HETATM    6  C4  UNK     1       2.492   1.427   0.157  1.00  0.00     0.090 A 
HETATM    7  C5  UNK     1       0.448   0.627  -0.904  1.00  0.00     0.038 A 
HETATM    8  C6  UNK     1       4.407   2.229  -1.036  1.00  0.00     0.015 A 
HETATM    9  C7  UNK     1      -0.098   0.378   0.292  1.00  0.00     0.108 A 
HETATM   10  C8  UNK     1       3.780   1.946   0.171  1.00  0.00     0.039 A 
HETATM   11  C9  UNK     1       1.843   1.257  -3.545  1.00  0.00     0.013 A 
HETATM   12  C10 UNK     1       4.417   2.292  -3.460  1.00  0.00     0.012 A 
HETATM   13  C11 UNK     1       0.631   0.642   1.547  1.00  0.00     0.304 A 
HETATM   14  C12 UNK     1       2.515   1.558  -4.732  1.00  0.00     0.001 A 
HETATM   15  C13 UNK     1       3.801   2.075  -4.690  1.00  0.00     0.001 A 
ENDROOT
BRANCH   9  16
HETATM   16  C14 UNK     1      -1.460  -0.171   0.286  1.00  0.00     0.262 C 
HETATM   17  O3  UNK     1      -2.230   0.117  -0.628  1.00  0.00    -0.267 OA
HETATM   18  N1  UNK     1      -1.699  -0.988   1.383  1.00  0.00    -0.323 N 
HETATM   19  H8  UNK     1      -0.943  -1.144   2.045  1.00  0.00     0.169 HD
BRANCH  18  20
HETATM   20  C15 UNK     1      -2.894  -1.679   1.700  1.00  0.00     0.037 A 
HETATM   21  C16 UNK     1      -3.985  -1.566   0.856  1.00  0.00     0.071 A 
HETATM   22  C18 UNK     1      -5.162  -2.247   1.168  1.00  0.00     0.118 A 
HETATM   23  F1  UNK     1      -6.227  -2.149   0.362  1.00  0.00    -0.206 F 
HETATM   24  C20 UNK     1      -5.230  -3.031   2.320  1.00  0.00     0.042 A 
HETATM   25  C19 UNK     1      -4.121  -3.133   3.160  1.00  0.00     0.005 A 
HETATM   26  C17 UNK     1      -2.944  -2.452   2.847  1.00  0.00     0.029 A 
ENDBRANCH  18  20
ENDBRANCH   9  16
TORSDOF 2
