REMARK  5 active torsions:
REMARK  status: ('A' for Active; 'I' for Inactive)
REMARK    1  A    between atoms: C13_20  and  N1_6 
REMARK       I    between atoms: C15_22  and  N1_6 
REMARK       I    between atoms: C14_21  and  N2_7 
REMARK    2  A    between atoms: C1_8  and  C2_9 
REMARK    3  A    between atoms: C2_9  and  C6_13 
REMARK    4  A    between atoms: C11_18  and  C14_21 
REMARK    5  A    between atoms: C15_22  and  C16_23 
ROOT
HETATM    1  S1  UNK     1      -1.693  -0.169  -0.569  1.00  0.00    -0.075 SA
HETATM    2  C1  UNK     1      -4.495  -1.646   2.051  1.00  0.00    -0.002 C 
HETATM    3  C3  UNK     1      -3.481  -2.386   2.951  1.00  0.00     0.010 C 
HETATM    4  C4  UNK     1      -3.904  -1.387   0.646  1.00  0.00     0.052 C 
HETATM    5  C5  UNK     1      -2.199  -1.564   3.158  1.00  0.00     0.041 C 
HETATM    6  C7  UNK     1      -2.496  -0.888   0.748  1.00  0.00    -0.008 A 
HETATM    7  C8  UNK     1      -1.699  -0.981   1.873  1.00  0.00    -0.026 A 
HETATM    8  C11 UNK     1      -0.401  -0.438   1.636  1.00  0.00     0.073 A 
HETATM    9  C13 UNK     1      -0.263   0.037   0.350  1.00  0.00     0.093 A 
ENDROOT
BRANCH   9  10
HETATM   10  N1  UNK     1       0.795   0.628  -0.287  1.00  0.00    -0.316 N 
HETATM   11  C15 UNK     1       0.876   1.097  -1.618  1.00  0.00     0.262 C 
HETATM   12  O2  UNK     1      -0.002   1.065  -2.472  1.00  0.00    -0.267 OA
HETATM   13  H19 UNK     1       1.627   0.716   0.291  1.00  0.00     0.169 HD
BRANCH  11  14
HETATM   14  C16 UNK     1       2.191   1.682  -1.953  1.00  0.00     0.108 A 
HETATM   15  C17 UNK     1       2.578   1.575  -3.230  1.00  0.00     0.037 A 
HETATM   16  C19 UNK     1       3.857   2.119  -3.657  1.00  0.00    -0.001 A 
HETATM   17  C20 UNK     1       4.668   2.749  -2.717  1.00  0.00     0.089 A 
HETATM   18  C21 UNK     1       4.301   2.031  -4.979  1.00  0.00     0.014 A 
HETATM   19  O3  UNK     1       4.255   2.858  -1.375  1.00  0.00    -0.274 OA
HETATM   20  C22 UNK     1       5.905   3.291  -3.061  1.00  0.00     0.038 A 
HETATM   21  C18 UNK     1       3.037   2.348  -0.937  1.00  0.00     0.304 A 
HETATM   22  O4  UNK     1       2.686   2.446   0.234  1.00  0.00    -0.259 OA
HETATM   23  C24 UNK     1       6.339   3.199  -4.381  1.00  0.00     0.003 A 
HETATM   24  C23 UNK     1       5.539   2.570  -5.338  1.00  0.00     0.001 A 
ENDBRANCH  11  14
ENDBRANCH   9  10
BRANCH   8  25
HETATM   25  C14 UNK     1       0.666  -0.369   2.603  1.00  0.00     0.252 C 
HETATM   26  O1  UNK     1       1.519  -1.266   2.739  1.00  0.00    -0.268 OA
HETATM   27  N2  UNK     1       0.741   0.773   3.396  1.00  0.00    -0.366 N 
HETATM   28  H20 UNK     1       0.072   1.532   3.313  1.00  0.00     0.159 HD
HETATM   29  H21 UNK     1       1.475   0.881   4.088  1.00  0.00     0.159 HD
ENDBRANCH   8  25
BRANCH   2  30
HETATM   30  C2  UNK     1      -5.801  -2.430   1.946  1.00  0.00    -0.044 C 
HETATM   31  C10 UNK     1      -6.358  -2.668   3.366  1.00  0.00     0.015 C 
HETATM   32  C9  UNK     1      -6.836  -1.606   1.155  1.00  0.00     0.015 C 
BRANCH  30  33
HETATM   33  C6  UNK     1      -5.580  -3.819   1.283  1.00  0.00     0.004 C 
HETATM   34  C12 UNK     1      -6.818  -4.701   1.172  1.00  0.00     0.006 C 
ENDBRANCH  30  33
ENDBRANCH   2  30
TORSDOF 5
