REMARK  7 active torsions:
REMARK  status: ('A' for Active; 'I' for Inactive)
REMARK    1  A    between atoms: C12_19  and  O2_2 
REMARK    2  A    between atoms: C3_10  and  O2_2 
REMARK    3  A    between atoms: C13_20  and  O4_4 
REMARK    4  A    between atoms: C15_22  and  O4_4 
REMARK       I    between atoms: C10_17  and  N1_7 
REMARK    5  A    between atoms: C11_18  and  N1_7 
REMARK    6  A    between atoms: C10_17  and  C5_12 
REMARK    7  A    between atoms: C11_18  and  C13_20 
ROOT
HETATM    1  O1  UNK     1       1.456   0.648  -0.025  1.00  0.00    -0.271 OA
HETATM    2  O3  UNK     1       0.188  -0.565   1.438  1.00  0.00    -0.259 OA
HETATM    3  C1  UNK     1       0.657   1.010  -2.292  1.00  0.00     0.002 A 
HETATM    4  C2  UNK     1       1.626   1.196  -1.311  1.00  0.00     0.123 A 
HETATM    5  C3  UNK     1       2.789   1.923  -1.557  1.00  0.00     0.103 A 
HETATM    6  C4  UNK     1      -0.533   0.239  -1.969  1.00  0.00     0.037 A 
HETATM    7  C5  UNK     1      -0.690  -0.278  -0.745  1.00  0.00     0.108 A 
HETATM    8  C6  UNK     1       0.861   1.569  -3.556  1.00  0.00     0.014 A 
HETATM    9  C7  UNK     1       2.985   2.477  -2.820  1.00  0.00     0.040 A 
HETATM   10  C8  UNK     1       0.327  -0.093   0.315  1.00  0.00     0.304 A 
HETATM   11  C9  UNK     1       2.023   2.301  -3.817  1.00  0.00     0.004 A 
ENDROOT
BRANCH   7  12
HETATM   12  C10 UNK     1      -1.924  -1.039  -0.515  1.00  0.00     0.258 C 
HETATM   13  O5  UNK     1      -2.958  -0.763  -1.120  1.00  0.00    -0.267 OA
HETATM   14  N1  UNK     1      -1.769  -2.046   0.421  1.00  0.00    -0.347 N 
HETATM   15  H5  UNK     1      -0.866  -2.204   0.858  1.00  0.00     0.163 HD
BRANCH  14  16
HETATM   16  C11 UNK     1      -2.844  -2.927   0.816  1.00  0.00     0.233 C 
BRANCH  16  17
HETATM   17  C13 UNK     1      -3.641  -2.405   1.988  1.00  0.00     0.276 C 
HETATM   18  O6  UNK     1      -4.596  -3.019   2.453  1.00  0.00    -0.263 OA
BRANCH  17  19
HETATM   19  O4  UNK     1      -3.177  -1.208   2.441  1.00  0.00    -0.321 OA
BRANCH  19  20
HETATM   20  C15 UNK     1      -3.883  -0.647   3.553  1.00  0.00     0.174 C 
HETATM   21  C16 UNK     1      -3.243   0.673   3.928  1.00  0.00     0.034 C 
ENDBRANCH  19  20
ENDBRANCH  17  19
ENDBRANCH  16  17
ENDBRANCH  14  16
ENDBRANCH   7  12
BRANCH   5  22
HETATM   22  O2  UNK     1       3.728   2.097  -0.589  1.00  0.00    -0.349 OA
BRANCH  22  23
HETATM   23  C12 UNK     1       5.084   2.234  -1.014  1.00  0.00     0.171 C 
HETATM   24  C14 UNK     1       5.997   1.703   0.070  1.00  0.00     0.034 C 
ENDBRANCH  22  23
ENDBRANCH   5  22
TORSDOF 7
