REMARK  6 active torsions:
REMARK  status: ('A' for Active; 'I' for Inactive)
REMARK    1  A    between atoms: C5_14  and  N1_7 
REMARK    2  A    between atoms: C6_15  and  N2_8 
REMARK    3  A    between atoms: C17_26  and  N3_9 
REMARK       I    between atoms: C9_18  and  N3_9 
REMARK    4  A    between atoms: C5_14  and  C7_16 
REMARK    5  A    between atoms: C6_15  and  C9_18 
REMARK    6  A    between atoms: C21_30  and  C24_33 
ROOT
HETATM    1  N1  UNK     1      -2.142  -0.430   0.294  1.00  0.00     0.096 N 
HETATM    2  N2  UNK     1       0.192  -0.297  -1.407  1.00  0.00     0.100 N 
HETATM    3  C1  UNK     1      -1.204   0.696   0.374  1.00  0.00     0.303 C 
HETATM    4  C2  UNK     1      -2.154  -0.993  -1.062  1.00  0.00     0.303 C 
HETATM    5  C3  UNK     1       0.204   0.263  -0.050  1.00  0.00     0.303 C 
HETATM    6  C4  UNK     1      -0.746  -1.424  -1.487  1.00  0.00     0.303 C 
ENDROOT
BRANCH   2   7
HETATM    7  C6  UNK     1       1.534  -0.710  -1.810  1.00  0.00     0.375 C 
BRANCH   7   8
HETATM    8  C9  UNK     1       2.346   0.515  -2.194  1.00  0.00     0.250 C 
HETATM    9  O2  UNK     1       1.834   1.527  -2.663  1.00  0.00    -0.271 OA
HETATM   10  N3  UNK     1       3.697   0.301  -1.928  1.00  0.00    -0.326 N 
HETATM   11  H15 UNK     1       3.966  -0.600  -1.539  1.00  0.00     0.169 HD
BRANCH  10  12
HETATM   12  C17 UNK     1       4.772   1.196  -2.145  1.00  0.00     0.035 A 
HETATM   13  C19 UNK     1       4.531   2.460  -2.684  1.00  0.00     0.045 A 
HETATM   14  C21 UNK     1       5.591   3.341  -2.897  1.00  0.00     0.050 A 
HETATM   15  C23 UNK     1       6.892   2.958  -2.570  1.00  0.00     0.016 A 
HETATM   16  C22 UNK     1       7.133   1.695  -2.030  1.00  0.00     0.003 A 
HETATM   17  C20 UNK     1       6.073   0.814  -1.818  1.00  0.00     0.029 A 
BRANCH  14  18
HETATM   18  C24 UNK     1       5.334   4.691  -3.474  1.00  0.00     0.417 C 
HETATM   19  F1  UNK     1       6.462   5.446  -3.627  1.00  0.00    -0.166 F 
HETATM   20  F2  UNK     1       4.759   4.657  -4.713  1.00  0.00    -0.166 F 
HETATM   21  F3  UNK     1       4.494   5.441  -2.702  1.00  0.00    -0.166 F 
ENDBRANCH  14  18
ENDBRANCH  10  12
ENDBRANCH   7   8
ENDBRANCH   2   7
BRANCH   1  22
HETATM   22  C5  UNK     1      -3.485  -0.016   0.696  1.00  0.00     0.312 C 
BRANCH  22  23
HETATM   23  C7  UNK     1      -4.315  -1.165   1.154  1.00  0.00    -0.011 A 
HETATM   24  C10 UNK     1      -5.071  -1.861   0.293  1.00  0.00     0.092 A 
HETATM   25  C13 UNK     1      -5.907  -3.003   0.699  1.00  0.00     0.288 A 
HETATM   26  O1  UNK     1      -5.883  -3.346   2.042  1.00  0.00    -0.275 OA
HETATM   27  O3  UNK     1      -6.586  -3.616  -0.117  1.00  0.00    -0.260 OA
HETATM   28  C11 UNK     1      -5.097  -2.634   2.970  1.00  0.00     0.090 A 
HETATM   29  C8  UNK     1      -4.311  -1.553   2.571  1.00  0.00     0.006 A 
HETATM   30  C14 UNK     1      -5.151  -3.067   4.297  1.00  0.00     0.045 A 
HETATM   31  C12 UNK     1      -3.559  -0.897   3.555  1.00  0.00     0.015 A 
HETATM   32  C16 UNK     1      -3.603  -1.320   4.889  1.00  0.00     0.007 A 
HETATM   33  C15 UNK     1      -4.398  -2.403   5.258  1.00  0.00    -0.059 A 
HETATM   34  C18 UNK     1      -4.439  -2.848   6.681  1.00  0.00     0.048 C 
ENDBRANCH  22  23
ENDBRANCH   1  22
TORSDOF 6
