REMARK  5 active torsions:
REMARK  status: ('A' for Active; 'I' for Inactive)
REMARK    1  A    between atoms: C1_9  and  N1_7 
REMARK       I    between atoms: C11_19  and  N1_7 
REMARK       I    between atoms: C12_20  and  N2_8 
REMARK    2  A    between atoms: C2_10  and  N2_8 
REMARK    3  A    between atoms: C1_9  and  C2_10 
REMARK    4  A    between atoms: C11_19  and  C3_11 
REMARK    5  A    between atoms: C12_20  and  C4_12 
ROOT
HETATM    1  C1  UNK     1      -1.288  -0.198  -3.708  1.00  0.00     0.142 C 
ENDROOT
BRANCH   1   2
HETATM    2  N1  UNK     1      -0.192   0.570  -3.165  1.00  0.00    -0.355 N 
HETATM    3  C11 UNK     1       0.895  -0.009  -2.534  1.00  0.00     0.257 C 
HETATM    4  O3  UNK     1       1.074  -1.211  -2.353  1.00  0.00    -0.267 OA
HETATM    5  H5  UNK     1      -0.219   1.574  -3.315  1.00  0.00     0.162 HD
BRANCH   3   6
HETATM    6  C3  UNK     1       1.878   0.978  -2.070  1.00  0.00     0.108 A 
HETATM    7  C13 UNK     1       1.486   2.347  -1.665  1.00  0.00     0.304 A 
HETATM    8  O1  UNK     1       2.509   3.191  -1.243  1.00  0.00    -0.274 OA
HETATM    9  O5  UNK     1       0.319   2.723  -1.696  1.00  0.00    -0.259 OA
HETATM   10  C9  UNK     1       3.852   2.768  -1.202  1.00  0.00     0.089 A 
HETATM   11  C17 UNK     1       4.806   3.685  -0.765  1.00  0.00     0.038 A 
HETATM   12  C5  UNK     1       4.199   1.477  -1.588  1.00  0.00    -0.001 A 
HETATM   13  C21 UNK     1       6.143   3.296  -0.714  1.00  0.00     0.003 A 
HETATM   14  C19 UNK     1       6.510   2.004  -1.098  1.00  0.00     0.001 A 
HETATM   15  C15 UNK     1       5.542   1.095  -1.534  1.00  0.00     0.014 A 
HETATM   16  C7  UNK     1       3.152   0.571  -2.034  1.00  0.00     0.037 A 
ENDBRANCH   3   6
ENDBRANCH   1   2
BRANCH   1  17
HETATM   17  C2  UNK     1      -2.595   0.198  -3.037  1.00  0.00     0.142 C 
BRANCH  17  18
HETATM   18  N2  UNK     1      -2.541  -0.026  -1.618  1.00  0.00    -0.355 N 
HETATM   19  C12 UNK     1      -2.918  -1.221  -1.028  1.00  0.00     0.257 C 
HETATM   20  O4  UNK     1      -3.336  -2.219  -1.604  1.00  0.00    -0.267 OA
HETATM   21  H6  UNK     1      -2.223   0.749  -1.045  1.00  0.00     0.162 HD
BRANCH  19  22
HETATM   22  C4  UNK     1      -2.770  -1.207   0.439  1.00  0.00     0.108 A 
HETATM   23  C14 UNK     1      -1.737  -0.392   1.117  1.00  0.00     0.304 A 
HETATM   24  O2  UNK     1      -1.696  -0.463   2.506  1.00  0.00    -0.274 OA
HETATM   25  O6  UNK     1      -0.953   0.313   0.490  1.00  0.00    -0.259 OA
HETATM   26  C10 UNK     1      -2.592  -1.269   3.236  1.00  0.00     0.089 A 
HETATM   27  C6  UNK     1      -3.556  -2.027   2.579  1.00  0.00    -0.001 A 
HETATM   28  C18 UNK     1      -2.475  -1.274   4.624  1.00  0.00     0.038 A 
HETATM   29  C16 UNK     1      -4.426  -2.814   3.337  1.00  0.00     0.014 A 
HETATM   30  C8  UNK     1      -3.624  -1.975   1.127  1.00  0.00     0.037 A 
HETATM   31  C20 UNK     1      -4.321  -2.830   4.731  1.00  0.00     0.001 A 
HETATM   32  C22 UNK     1      -3.347  -2.061   5.373  1.00  0.00     0.003 A 
ENDBRANCH  19  22
ENDBRANCH  17  18
ENDBRANCH   1  17
TORSDOF 5
