REMARK  5 active torsions:
REMARK  status: ('A' for Active; 'I' for Inactive)
REMARK    1  A    between atoms: C5_11  and  O2_2 
REMARK    2  A    between atoms: C9_15  and  O4_4 
REMARK    3  A    between atoms: C11_17  and  O5_5 
REMARK    4  A    between atoms: C15_21  and  O6_6 
REMARK    5  A    between atoms: C1_7  and  C4_10 
ROOT
HETATM    1  O1  UNK     1      -0.652  -0.369  -0.671  1.00  0.00    -0.306 OA
HETATM    2  O3  UNK     1      -1.126   0.926   3.164  1.00  0.00    -0.284 OA
HETATM    3  C1  UNK     1       0.195   0.577  -0.117  1.00  0.00     0.126 A 
HETATM    4  C2  UNK     1      -1.873  -0.481   1.424  1.00  0.00     0.053 A 
HETATM    5  C3  UNK     1      -1.660  -0.879   0.107  1.00  0.00     0.090 A 
HETATM    6  C5  UNK     1       0.092   1.054   1.137  1.00  0.00     0.152 A 
HETATM    7  C6  UNK     1      -0.985   0.533   2.014  1.00  0.00     0.220 A 
HETATM    8  C7  UNK     1      -2.917  -1.036   2.169  1.00  0.00     0.055 A 
HETATM    9  C8  UNK     1      -2.491  -1.837  -0.476  1.00  0.00     0.041 A 
HETATM   10  C11 UNK     1      -3.746  -1.994   1.585  1.00  0.00     0.066 A 
HETATM   11  C12 UNK     1      -3.533  -2.394   0.265  1.00  0.00     0.039 A 
ENDROOT
BRANCH   3  12
HETATM   12  C4  UNK     1       1.230   1.042  -1.058  1.00  0.00     0.034 A 
HETATM   13  C10 UNK     1       2.459   0.379  -1.096  1.00  0.00     0.020 A 
HETATM   14  C14 UNK     1       3.454   0.800  -1.978  1.00  0.00     0.037 A 
HETATM   15  C15 UNK     1       3.223   1.884  -2.824  1.00  0.00     0.068 A 
HETATM   16  C13 UNK     1       1.997   2.548  -2.789  1.00  0.00     0.074 A 
HETATM   17  C9  UNK     1       1.001   2.127  -1.907  1.00  0.00     0.081 A 
BRANCH  15  18
HETATM   18  O6  UNK     1       4.194   2.294  -3.685  1.00  0.00    -0.361 OA
HETATM   19  H10 UNK     1       3.865   3.055  -4.194  1.00  0.00     0.217 HD
ENDBRANCH  15  18
BRANCH  17  20
HETATM   20  O4  UNK     1      -0.189   2.793  -1.892  1.00  0.00    -0.360 OA
HETATM   21  H8  UNK     1      -0.160   3.513  -2.546  1.00  0.00     0.217 HD
ENDBRANCH  17  20
ENDBRANCH   3  12
BRANCH   6  22
HETATM   22  O2  UNK     1       0.932   2.020   1.647  1.00  0.00    -0.355 OA
HETATM   23  H7  UNK     1       1.584   2.277   0.975  1.00  0.00     0.218 HD
ENDBRANCH   6  22
BRANCH  10  24
HETATM   24  O5  UNK     1      -4.766  -2.539   2.303  1.00  0.00    -0.361 OA
HETATM   25  H9  UNK     1      -4.768  -2.150   3.194  1.00  0.00     0.217 HD
ENDBRANCH  10  24
TORSDOF 5
