REMARK  1 active torsions:
REMARK  status: ('A' for Active; 'I' for Inactive)
REMARK    1  A    between atoms: C2_8  and  S1_2 
ROOT
HETATM    1  O1  UNK     1      -1.629  -0.787   1.885  1.00  0.00    -0.275 OA
HETATM    2  O4  UNK     1      -3.692  -1.724   2.216  1.00  0.00    -0.260 OA
HETATM    3  C1  UNK     1      -0.905  -0.292  -0.386  1.00  0.00    -0.001 A 
HETATM    4  C2  UNK     1       1.277   0.698  -0.723  1.00  0.00     0.075 A 
HETATM    5  C3  UNK     1      -0.663  -0.291   0.985  1.00  0.00     0.089 A 
HETATM    6  C4  UNK     1       0.076   0.208  -1.245  1.00  0.00     0.038 A 
HETATM    7  C5  UNK     1       1.503   0.691   0.655  1.00  0.00     0.027 A 
HETATM    8  C6  UNK     1       0.529   0.194   1.519  1.00  0.00     0.040 A 
HETATM    9  C7  UNK     1      -2.171  -0.813  -0.874  1.00  0.00     0.020 A 
HETATM   10  C8  UNK     1      -3.080  -1.281  -0.015  1.00  0.00     0.083 A 
HETATM   11  C9  UNK     1      -2.847  -1.290   1.441  1.00  0.00     0.288 A 
ENDROOT
BRANCH   4  12
HETATM   12  S1  UNK     1       2.502   1.322  -1.801  1.00  0.00     0.262 S 
HETATM   13 Cl1  UNK     1       2.004   3.303  -1.931  1.00  0.00     0.024 Cl
HETATM   14  O2  UNK     1       2.296   0.767  -3.126  1.00  0.00    -0.206 OA
HETATM   15  O3  UNK     1       3.798   1.301  -1.150  1.00  0.00    -0.206 OA
ENDBRANCH   4  12
TORSDOF 1
