REMARK  3 active torsions:
REMARK  status: ('A' for Active; 'I' for Inactive)
REMARK    1  A    between atoms: C12_18  and  O2_2 
REMARK    2  A    between atoms: C15_21  and  O3_3 
REMARK    3  A    between atoms: C1_7  and  C2_8 
ROOT
HETATM    1  O1  UNK     1       2.625   0.935   0.676  1.00  0.00    -0.274 OA
HETATM    2  O4  UNK     1       1.194  -0.157   2.079  1.00  0.00    -0.259 OA
HETATM    3  C2  UNK     1       0.452   0.164  -0.160  1.00  0.00     0.086 A 
HETATM    4  C5  UNK     1       2.004   1.305  -1.643  1.00  0.00     0.002 A 
HETATM    5  C6  UNK     1       0.735   0.645  -1.380  1.00  0.00     0.035 A 
HETATM    6  C7  UNK     1       2.920   1.437  -0.605  1.00  0.00     0.089 A 
HETATM    7  C9  UNK     1       1.425   0.288   0.959  1.00  0.00     0.302 A 
HETATM    8  C11 UNK     1       2.332   1.815  -2.901  1.00  0.00     0.051 A 
HETATM    9  C13 UNK     1       4.153   2.061  -0.790  1.00  0.00     0.041 A 
HETATM   10  C15 UNK     1       3.565   2.443  -3.102  1.00  0.00     0.069 A 
HETATM   11  C16 UNK     1       4.473   2.566  -2.048  1.00  0.00     0.039 A 
ENDROOT
BRANCH   3  12
HETATM   12  C1  UNK     1      -0.808  -0.474   0.065  1.00  0.00     0.145 A 
HETATM   13  N1  UNK     1      -1.338  -0.389   1.323  1.00  0.00    -0.338 N 
HETATM   14  C3  UNK     1      -2.533  -1.061   1.320  1.00  0.00     0.065 A 
HETATM   15  H1  UNK     1      -0.939   0.089   2.120  1.00  0.00     0.167 HD
HETATM   16  C4  UNK     1      -2.663  -1.530   0.016  1.00  0.00     0.086 A 
HETATM   17  C8  UNK     1      -3.483  -1.292   2.316  1.00  0.00     0.068 A 
HETATM   18  C10 UNK     1      -3.802  -2.275  -0.334  1.00  0.00     0.037 A 
HETATM   19  N2  UNK     1      -1.582  -1.156  -0.749  1.00  0.00    -0.228 NA
HETATM   20  C14 UNK     1      -4.768  -2.519   0.650  1.00  0.00     0.039 A 
HETATM   21  C12 UNK     1      -4.610  -2.035   1.951  1.00  0.00     0.070 A 
BRANCH  21  22
HETATM   22  O2  UNK     1      -5.572  -2.291   2.883  1.00  0.00    -0.356 OA
HETATM   23  C17 UNK     1      -5.357  -1.772   4.193  1.00  0.00     0.210 C 
ENDBRANCH  21  22
ENDBRANCH   3  12
BRANCH  10  24
HETATM   24  O3  UNK     1       3.882   2.938  -4.330  1.00  0.00    -0.356 OA
HETATM   25  C18 UNK     1       5.154   3.567  -4.467  1.00  0.00     0.210 C 
ENDBRANCH  10  24
TORSDOF 3
