REMARK  3 active torsions:
REMARK  status: ('A' for Active; 'I' for Inactive)
REMARK       I    between atoms: C16_22  and  N1_5 
REMARK    1  A    between atoms: N1_5  and  N2_6 
REMARK    2  A    between atoms: C16_22  and  C4_10 
REMARK    3  A    between atoms: C20_26  and  C9_15 
ROOT
HETATM    1  N2  UNK     1       0.139   0.363   0.200  1.00  0.00    -0.183 NA
HETATM    2  C20 UNK     1      -0.009  -0.150   1.379  1.00  0.00     0.156 C 
ENDROOT
BRANCH   1   3
HETATM    3  N1  UNK     1       1.346   0.943  -0.001  1.00  0.00    -0.243 N 
HETATM    4  C16 UNK     1       1.616   1.491  -1.241  1.00  0.00     0.273 C 
HETATM    5  O3  UNK     1       0.837   1.495  -2.191  1.00  0.00    -0.266 OA
HETATM    6  H14 UNK     1       2.016   0.917   0.761  1.00  0.00     0.192 HD
BRANCH   4   7
HETATM    7  C4  UNK     1       2.966   2.092  -1.402  1.00  0.00     0.051 A 
HETATM    8  C13 UNK     1       3.597   2.633  -0.336  1.00  0.00     0.068 A 
HETATM    9  S1  UNK     1       5.118   3.249  -0.794  1.00  0.00    -0.100 SA
HETATM   10  C5  UNK     1       4.901   2.771  -2.437  1.00  0.00     0.016 A 
HETATM   11  C14 UNK     1       5.804   2.955  -3.502  1.00  0.00     0.019 A 
HETATM   12  C2  UNK     1       3.665   2.144  -2.626  1.00  0.00    -0.003 A 
HETATM   13  C19 UNK     1       5.450   2.497  -4.773  1.00  0.00     0.001 A 
HETATM   14  C18 UNK     1       4.230   1.873  -4.985  1.00  0.00     0.001 A 
HETATM   15  C12 UNK     1       3.336   1.692  -3.926  1.00  0.00     0.014 A 
ENDBRANCH   4   7
ENDBRANCH   1   3
BRANCH   2  16
HETATM   16  C9  UNK     1      -1.240  -0.822   1.794  1.00  0.00     0.056 A 
HETATM   17  C15 UNK     1      -1.294  -1.320   3.034  1.00  0.00     0.159 A 
HETATM   18  O1  UNK     1      -2.361  -1.980   3.598  1.00  0.00    -0.321 OA
HETATM   19  C3  UNK     1      -3.483  -2.151   2.824  1.00  0.00     0.089 A 
HETATM   20  C1  UNK     1      -3.574  -1.686   1.511  1.00  0.00     0.049 A 
HETATM   21  C10 UNK     1      -4.560  -2.822   3.404  1.00  0.00     0.039 A 
HETATM   22  C7  UNK     1      -4.741  -1.889   0.771  1.00  0.00     0.025 A 
HETATM   23  C8  UNK     1      -2.422  -0.980   0.919  1.00  0.00     0.198 A 
HETATM   24  C6  UNK     1      -5.817  -2.560   1.354  1.00  0.00    -0.061 A 
HETATM   25  C11 UNK     1      -5.727  -3.025   2.667  1.00  0.00     0.009 A 
HETATM   26  C17 UNK     1      -7.068  -2.782   0.571  1.00  0.00     0.048 C 
HETATM   27  O2  UNK     1      -2.446  -0.551  -0.226  1.00  0.00    -0.286 OA
ENDBRANCH   2  16
TORSDOF 3
