REMARK  6 active torsions:
REMARK  status: ('A' for Active; 'I' for Inactive)
REMARK    1  A    between atoms: C5_11  and  N1_4 
REMARK    2  A    between atoms: C6_12  and  N2_5 
REMARK    3  A    between atoms: C13_19  and  N3_6 
REMARK       I    between atoms: C8_14  and  N3_6 
REMARK    4  A    between atoms: C5_11  and  C7_13 
REMARK    5  A    between atoms: C6_12  and  C8_14 
REMARK    6  A    between atoms: C16_22  and  C20_26 
ROOT
HETATM    1  N1  UNK     1       2.091   0.266  -0.035  1.00  0.00     0.096 N 
HETATM    2  N2  UNK     1      -0.100  -0.466   1.704  1.00  0.00     0.100 N 
HETATM    3  C1  UNK     1       2.296   0.055   1.404  1.00  0.00     0.303 C 
HETATM    4  C2  UNK     1       0.975  -0.556  -0.519  1.00  0.00     0.303 C 
HETATM    5  C3  UNK     1       1.014   0.358   2.188  1.00  0.00     0.303 C 
HETATM    6  C4  UNK     1      -0.306  -0.255   0.266  1.00  0.00     0.303 C 
ENDROOT
BRANCH   2   7
HETATM    7  C6  UNK     1      -1.322  -0.176   2.451  1.00  0.00     0.375 C 
BRANCH   7   8
HETATM    8  C8  UNK     1      -2.265  -1.364   2.358  1.00  0.00     0.250 C 
HETATM    9  N3  UNK     1      -3.589  -0.934   2.428  1.00  0.00    -0.325 N 
HETATM   10  H14 UNK     1      -3.737   0.046   2.209  1.00  0.00     0.169 HD
HETATM   11  O2  UNK     1      -1.865  -2.518   2.243  1.00  0.00    -0.271 OA
BRANCH   9  12
HETATM   12  C13 UNK     1      -4.758  -1.730   2.378  1.00  0.00     0.047 A 
HETATM   13  C16 UNK     1      -5.697  -1.526   1.366  1.00  0.00    -0.031 A 
HETATM   14  C21 UNK     1      -6.849  -2.311   1.316  1.00  0.00     0.009 A 
HETATM   15  C25 UNK     1      -7.063  -3.299   2.277  1.00  0.00     0.001 A 
HETATM   16  C22 UNK     1      -6.124  -3.503   3.288  1.00  0.00     0.009 A 
HETATM   17  C19 UNK     1      -4.972  -2.718   3.338  1.00  0.00    -0.035 A 
HETATM   18  C24 UNK     1      -3.984  -2.961   4.434  1.00  0.00     0.050 C 
BRANCH  13  19
HETATM   19  C20 UNK     1      -5.497  -0.475   0.323  1.00  0.00     0.036 C 
HETATM   20  C26 UNK     1      -4.746  -1.005  -0.894  1.00  0.00     0.010 C 
ENDBRANCH  13  19
ENDBRANCH   9  12
ENDBRANCH   7   8
ENDBRANCH   2   7
BRANCH   1  21
HETATM   21  C5  UNK     1       3.313  -0.025  -0.781  1.00  0.00     0.312 C 
BRANCH  21  22
HETATM   22  C7  UNK     1       3.344   0.666  -2.100  1.00  0.00    -0.011 A 
HETATM   23  C10 UNK     1       2.846   0.084  -3.200  1.00  0.00     0.092 A 
HETATM   24  C14 UNK     1       2.855   0.729  -4.524  1.00  0.00     0.288 A 
HETATM   25  O1  UNK     1       3.412   1.996  -4.596  1.00  0.00    -0.275 OA
HETATM   26  O3  UNK     1       2.389   0.166  -5.509  1.00  0.00    -0.260 OA
HETATM   27  C11 UNK     1       3.944   2.633  -3.457  1.00  0.00     0.090 A 
HETATM   28  C9  UNK     1       3.929   2.010  -2.209  1.00  0.00     0.006 A 
HETATM   29  C15 UNK     1       4.480   3.908  -3.648  1.00  0.00     0.045 A 
HETATM   30  C12 UNK     1       4.478   2.710  -1.126  1.00  0.00     0.015 A 
HETATM   31  C17 UNK     1       5.019   3.989  -1.301  1.00  0.00     0.007 A 
HETATM   32  C18 UNK     1       5.020   4.587  -2.560  1.00  0.00    -0.059 A 
HETATM   33  C23 UNK     1       5.598   5.949  -2.739  1.00  0.00     0.048 C 
ENDBRANCH  21  22
ENDBRANCH   1  21
TORSDOF 6
