REMARK  6 active torsions:
REMARK  status: ('A' for Active; 'I' for Inactive)
REMARK    1  A    between atoms: C2_7  and  O1_3 
REMARK    2  A    between atoms: C3_8  and  O1_3 
REMARK    3  A    between atoms: C5_10  and  O2_4 
REMARK    4  A    between atoms: C1_6  and  C2_7 
REMARK    5  A    between atoms: C12_17  and  C4_9 
REMARK    6  A    between atoms: C15_20  and  C16_21 
ROOT
HETATM    1  N1  UNK     1      -3.239   1.214  -0.043  1.00  0.00    -0.191 NA
HETATM    2  C12 UNK     1      -1.665  -1.593   1.195  1.00  0.00     0.036 C 
HETATM    3  C15 UNK     1      -2.905  -1.035   1.218  1.00  0.00     0.055 C 
HETATM    4  C24 UNK     1      -3.080   0.210   0.517  1.00  0.00     0.100 C 
ENDROOT
BRANCH   3   5
HETATM    5  C16 UNK     1      -4.047  -1.627   1.897  1.00  0.00    -0.015 A 
HETATM    6  C18 UNK     1      -4.879  -2.517   1.217  1.00  0.00     0.016 A 
HETATM    7  C20 UNK     1      -5.974  -3.085   1.868  1.00  0.00     0.043 A 
HETATM    8  C22 UNK     1      -6.237  -2.763   3.199  1.00  0.00     0.116 A 
HETATM    9  C21 UNK     1      -5.405  -1.873   3.880  1.00  0.00     0.043 A 
HETATM   10  F1  UNK     1      -7.290  -3.306   3.824  1.00  0.00    -0.206 F 
HETATM   11  C19 UNK     1      -4.310  -1.305   3.228  1.00  0.00     0.016 A 
ENDBRANCH   3   5
BRANCH   2  12
HETATM   12  C4  UNK     1      -0.486  -1.034   0.517  1.00  0.00    -0.015 A 
HETATM   13  C6  UNK     1       0.313  -0.165   1.249  1.00  0.00     0.052 A 
HETATM   14  C5  UNK     1       1.445   0.395   0.656  1.00  0.00     0.102 A 
HETATM   15  C3  UNK     1       1.767   0.081  -0.664  1.00  0.00     0.103 A 
HETATM   16  C7  UNK     1       0.958  -0.793  -1.391  1.00  0.00     0.059 A 
HETATM   17  C8  UNK     1      -0.173  -1.352  -0.798  1.00  0.00     0.024 A 
HETATM   18 Br1  UNK     1      -1.231  -2.534  -1.844  1.00  0.00    -0.050 Br
BRANCH  14  19
HETATM   19  O2  UNK     1       2.227   1.247   1.376  1.00  0.00    -0.353 OA
HETATM   20  C23 UNK     1       3.297   0.670   2.122  1.00  0.00     0.210 C 
ENDBRANCH  14  19
BRANCH  15  21
HETATM   21  O1  UNK     1       2.869   0.621  -1.255  1.00  0.00    -0.344 OA
BRANCH  21  22
HETATM   22  C2  UNK     1       2.815   0.825  -2.665  1.00  0.00     0.214 C 
BRANCH  22  23
HETATM   23  C1  UNK     1       3.698   1.983  -3.028  1.00  0.00    -0.034 A 
HETATM   24  C9  UNK     1       5.034   1.759  -3.338  1.00  0.00     0.010 A 
HETATM   25  C13 UNK     1       5.855   2.835  -3.675  1.00  0.00     0.007 A 
HETATM   26  C11 UNK     1       5.334   4.129  -3.698  1.00  0.00    -0.062 A 
HETATM   27  C14 UNK     1       3.992   4.346  -3.385  1.00  0.00     0.007 A 
HETATM   28  C17 UNK     1       6.211   5.280  -4.058  1.00  0.00     0.048 C 
HETATM   29  C10 UNK     1       3.171   3.269  -3.049  1.00  0.00     0.010 A 
ENDBRANCH  22  23
ENDBRANCH  21  22
ENDBRANCH  15  21
ENDBRANCH   2  12
TORSDOF 6
