REMARK  2 active torsions:
REMARK  status: ('A' for Active; 'I' for Inactive)
REMARK    1  A    between atoms: C2_8  and  C5_11 
REMARK    2  A    between atoms: C10_16  and  C9_15 
ROOT
HETATM    1  O1  UNK     1       2.691   1.366   0.238  1.00  0.00    -0.274 OA
HETATM    2  O3  UNK     1       1.160   0.513   1.699  1.00  0.00    -0.259 OA
HETATM    3  C1  UNK     1       2.199   1.422  -2.140  1.00  0.00    -0.001 A 
HETATM    4  C2  UNK     1       0.563   0.486  -0.605  1.00  0.00     0.096 A 
HETATM    5  C3  UNK     1       3.059   1.691  -1.081  1.00  0.00     0.089 A 
HETATM    6  C4  UNK     1       0.917   0.796  -1.861  1.00  0.00     0.036 A 
HETATM    7  C6  UNK     1       2.598   1.760  -3.435  1.00  0.00     0.014 A 
HETATM    8  C7  UNK     1       1.467   0.774   0.541  1.00  0.00     0.303 A 
HETATM    9  C8  UNK     1       4.302   2.287  -1.279  1.00  0.00     0.038 A 
HETATM   10  C11 UNK     1       3.842   2.359  -3.650  1.00  0.00     0.001 A 
HETATM   11  C12 UNK     1       4.693   2.622  -2.574  1.00  0.00     0.003 A 
ENDROOT
BRANCH   4  12
HETATM   12  C5  UNK     1      -0.704  -0.136  -0.368  1.00  0.00     0.212 A 
HETATM   13  O2  UNK     1      -1.558  -0.421  -1.393  1.00  0.00    -0.190 OA
HETATM   14  N2  UNK     1      -2.686  -1.017  -0.814  1.00  0.00    -0.105 NA
HETATM   15  C9  UNK     1      -2.379  -1.021   0.487  1.00  0.00     0.196 A 
HETATM   16  N1  UNK     1      -1.165  -0.488   0.812  1.00  0.00    -0.199 NA
BRANCH  15  17
HETATM   17  C10 UNK     1      -3.294  -1.567   1.503  1.00  0.00     0.054 A 
HETATM   18  S1  UNK     1      -2.943  -1.595   3.180  1.00  0.00    -0.098 SA
HETATM   19  C15 UNK     1      -4.442  -2.340   3.539  1.00  0.00     0.050 A 
HETATM   20  C14 UNK     1      -5.193  -2.563   2.406  1.00  0.00     0.009 A 
HETATM   21  C13 UNK     1      -4.529  -2.116   1.228  1.00  0.00     0.023 A 
ENDBRANCH  15  17
ENDBRANCH   4  12
TORSDOF 2
