REMARK  7 active torsions:
REMARK  status: ('A' for Active; 'I' for Inactive)
REMARK    1  A    between atoms: C16_23  and  O3_3 
REMARK    2  A    between atoms: C25_32  and  O3_3 
REMARK    3  A    between atoms: C5_12  and  N1_5 
REMARK    4  A    between atoms: C6_13  and  N2_6 
REMARK    5  A    between atoms: C14_21  and  N3_7 
REMARK       I    between atoms: C9_16  and  N3_7 
REMARK    6  A    between atoms: C5_12  and  C7_14 
REMARK    7  A    between atoms: C6_13  and  C9_16 
ROOT
HETATM    1  N1  UNK     1       1.646  -0.256  -0.833  1.00  0.00     0.096 N 
HETATM    2  N2  UNK     1      -0.194  -1.315   1.129  1.00  0.00     0.100 N 
HETATM    3  C1  UNK     1       0.308  -0.722  -1.216  1.00  0.00     0.303 C 
HETATM    4  C2  UNK     1       2.126  -0.988   0.346  1.00  0.00     0.303 C 
HETATM    5  C3  UNK     1      -0.674  -0.582  -0.048  1.00  0.00     0.303 C 
HETATM    6  C4  UNK     1       1.143  -0.847   1.513  1.00  0.00     0.303 C 
ENDROOT
BRANCH   1   7
HETATM    7  C5  UNK     1       2.583  -0.394  -1.946  1.00  0.00     0.312 C 
BRANCH   7   8
HETATM    8  C7  UNK     1       2.453   0.715  -2.931  1.00  0.00    -0.011 A 
HETATM    9  C10 UNK     1       1.612   0.623  -3.971  1.00  0.00     0.092 A 
HETATM   10  C13 UNK     1       1.450   1.692  -4.970  1.00  0.00     0.288 A 
HETATM   11  O1  UNK     1       2.218   2.832  -4.793  1.00  0.00    -0.275 OA
HETATM   12  O4  UNK     1       0.671   1.572  -5.910  1.00  0.00    -0.260 OA
HETATM   13  C11 UNK     1       3.111   2.959  -3.710  1.00  0.00     0.090 A 
HETATM   14  C8  UNK     1       3.255   1.936  -2.771  1.00  0.00     0.009 A 
HETATM   15  C15 UNK     1       3.834   4.150  -3.632  1.00  0.00     0.041 A 
HETATM   16  C12 UNK     1       4.164   2.139  -1.724  1.00  0.00     0.051 A 
HETATM   17  C16 UNK     1       4.896   3.328  -1.632  1.00  0.00     0.069 A 
HETATM   18  C17 UNK     1       4.731   4.332  -2.585  1.00  0.00     0.039 A 
BRANCH  17  19
HETATM   19  O3  UNK     1       5.775   3.505  -0.607  1.00  0.00    -0.351 OA
BRANCH  19  20
HETATM   20  C25 UNK     1       5.474   2.851   0.625  1.00  0.00     0.171 C 
HETATM   21  C26 UNK     1       6.047   3.663   1.767  1.00  0.00     0.034 C 
ENDBRANCH  19  20
ENDBRANCH  17  19
ENDBRANCH   7   8
ENDBRANCH   1   7
BRANCH   2  22
HETATM   22  C6  UNK     1      -1.131  -1.179   2.243  1.00  0.00     0.375 C 
BRANCH  22  23
HETATM   23  C9  UNK     1      -2.289  -2.143   2.049  1.00  0.00     0.250 C 
HETATM   24  O2  UNK     1      -2.166  -3.216   1.468  1.00  0.00    -0.271 OA
HETATM   25  N3  UNK     1      -3.449  -1.624   2.622  1.00  0.00    -0.325 N 
HETATM   26  H14 UNK     1      -3.369  -0.719   3.077  1.00  0.00     0.169 HD
BRANCH  25  27
HETATM   27  C14 UNK     1      -4.734  -2.214   2.655  1.00  0.00     0.041 A 
HETATM   28  C18 UNK     1      -5.805  -1.567   3.271  1.00  0.00    -0.029 A 
HETATM   29  C20 UNK     1      -7.064  -2.167   3.292  1.00  0.00    -0.054 A 
HETATM   30  C21 UNK     1      -5.609  -0.229   3.911  1.00  0.00     0.051 C 
HETATM   31  C23 UNK     1      -7.252  -3.415   2.697  1.00  0.00     0.007 A 
HETATM   32  C24 UNK     1      -8.228  -1.496   3.944  1.00  0.00     0.049 C 
HETATM   33  C22 UNK     1      -6.181  -4.062   2.081  1.00  0.00     0.003 A 
HETATM   34  C19 UNK     1      -4.922  -3.462   2.060  1.00  0.00     0.030 A 
ENDBRANCH  25  27
ENDBRANCH  22  23
ENDBRANCH   2  22
TORSDOF 7
