REMARK  5 active torsions:
REMARK  status: ('A' for Active; 'I' for Inactive)
REMARK    1  A    between atoms: C10_18  and  O2_3 
REMARK    2  A    between atoms: C13_21  and  O3_4 
REMARK       I    between atoms: C14_22  and  N1_7 
REMARK    3  A    between atoms: C4_12  and  N1_7 
REMARK    4  A    between atoms: C1_9  and  C2_10 
REMARK    5  A    between atoms: C14_22  and  C9_17 
ROOT
HETATM    1  S1  UNK     1      -0.229   1.804   2.310  1.00  0.00    -0.082 SA
HETATM    2  N2  UNK     1      -0.967  -1.646  -1.361  1.00  0.00    -0.191 NA
HETATM    3  C1  UNK     1      -1.932  -0.024   1.712  1.00  0.00     0.004 A 
HETATM    4  C3  UNK     1      -0.952  -0.045   0.679  1.00  0.00     0.090 A 
HETATM    5  C4  UNK     1       0.009   0.892   0.896  1.00  0.00     0.098 A 
HETATM    6  C7  UNK     1      -1.661   0.934   2.664  1.00  0.00     0.065 A 
HETATM    7  C21 UNK     1      -0.960  -0.929  -0.447  1.00  0.00     0.103 C 
ENDROOT
BRANCH   3   8
HETATM    8  C2  UNK     1      -3.101  -0.857   1.841  1.00  0.00    -0.021 A 
HETATM    9  C5  UNK     1      -3.019  -2.064   2.532  1.00  0.00     0.052 A 
HETATM   10  C10 UNK     1      -4.151  -2.869   2.657  1.00  0.00     0.102 A 
HETATM   11  C13 UNK     1      -5.361  -2.465   2.091  1.00  0.00     0.101 A 
HETATM   12  C15 UNK     1      -5.438  -1.256   1.400  1.00  0.00     0.040 A 
HETATM   13  C8  UNK     1      -4.306  -0.451   1.275  1.00  0.00     0.015 A 
BRANCH  10  14
HETATM   14  O2  UNK     1      -4.063  -4.048   3.333  1.00  0.00    -0.353 OA
HETATM   15  C22 UNK     1      -3.714  -5.205   2.576  1.00  0.00     0.210 C 
ENDBRANCH  10  14
BRANCH  11  16
HETATM   16  O3  UNK     1      -6.473  -3.243   2.207  1.00  0.00    -0.353 OA
HETATM   17  C23 UNK     1      -7.669  -2.759   1.601  1.00  0.00     0.210 C 
ENDBRANCH  11  16
ENDBRANCH   3   8
BRANCH   5  18
HETATM   18  N1  UNK     1       1.145   1.219   0.150  1.00  0.00    -0.316 N 
HETATM   19  C14 UNK     1       1.284   1.099  -1.225  1.00  0.00     0.262 C 
HETATM   20  O4  UNK     1       0.464   0.693  -2.047  1.00  0.00    -0.267 OA
HETATM   21  H4  UNK     1       1.823   1.780   0.661  1.00  0.00     0.170 HD
BRANCH  19  22
HETATM   22  C9  UNK     1       2.610   1.532  -1.681  1.00  0.00     0.108 A 
HETATM   23  C12 UNK     1       2.673   2.046  -2.916  1.00  0.00     0.037 A 
HETATM   24  C6  UNK     1       3.943   2.503  -3.456  1.00  0.00    -0.001 A 
HETATM   25  C11 UNK     1       5.086   2.396  -2.671  1.00  0.00     0.089 A 
HETATM   26  C17 UNK     1       4.055   3.047  -4.739  1.00  0.00     0.014 A 
HETATM   27  C18 UNK     1       6.334   2.815  -3.129  1.00  0.00     0.038 A 
HETATM   28  O1  UNK     1       5.014   1.855  -1.373  1.00  0.00    -0.274 OA
HETATM   29  C20 UNK     1       6.436   3.356  -4.409  1.00  0.00     0.003 A 
HETATM   30  C19 UNK     1       5.299   3.471  -5.212  1.00  0.00     0.001 A 
HETATM   31  C16 UNK     1       3.813   1.410  -0.828  1.00  0.00     0.304 A 
HETATM   32  O5  UNK     1       3.760   0.939   0.303  1.00  0.00    -0.259 OA
ENDBRANCH  19  22
ENDBRANCH   5  18
TORSDOF 5
