REMARK  6 active torsions:
REMARK  status: ('A' for Active; 'I' for Inactive)
REMARK    1  A    between atoms: C12_20  and  O2_2 
REMARK    2  A    between atoms: C14_22  and  O5_5 
REMARK    3  A    between atoms: C22_30  and  O5_5 
REMARK    4  A    between atoms: C12_20  and  C2_10 
REMARK    5  A    between atoms: C11_19  and  C6_14 
REMARK    6  A    between atoms: C14_22  and  C8_16 
ROOT
HETATM    1  O1  UNK     1      -1.875   1.238   1.723  1.00  0.00    -0.292 OA
HETATM    2  N1  UNK     1      -1.171  -2.104  -1.550  1.00  0.00    -0.362 N 
HETATM    3  C1  UNK     1      -1.797  -2.405   2.153  1.00  0.00     0.008 C 
HETATM    4  C2  UNK     1      -2.339  -0.997   2.432  1.00  0.00     0.164 C 
HETATM    5  C3  UNK     1      -1.962  -2.776   0.673  1.00  0.00     0.063 C 
HETATM    6  C4  UNK     1      -1.389  -0.402   0.084  1.00  0.00     0.025 C 
HETATM    7  C5  UNK     1      -1.493  -1.700  -0.269  1.00  0.00     0.020 C 
HETATM    8  C6  UNK     1      -0.870   0.642  -0.901  1.00  0.00     0.104 C 
HETATM    9  C7  UNK     1      -1.844   0.040   1.438  1.00  0.00     0.172 C 
HETATM   10  C8  UNK     1      -0.691   0.084  -2.314  1.00  0.00     0.052 C 
HETATM   11  C9  UNK     1      -0.332  -2.528   2.599  1.00  0.00     0.011 C 
HETATM   12  C10 UNK     1      -0.820  -1.238  -2.574  1.00  0.00     0.018 C 
HETATM   13  C13 UNK     1      -0.615  -1.888  -3.915  1.00  0.00     0.069 C 
HETATM   14  H9  UNK     1      -1.267  -3.087  -1.776  1.00  0.00     0.165 HD
ENDROOT
BRANCH   8  15
HETATM   15  C11 UNK     1       0.425   1.226  -0.405  1.00  0.00     0.029 A 
HETATM   16  C15 UNK     1       1.593   0.324  -0.241  1.00  0.00     0.194 A 
HETATM   17  O7  UNK     1       1.533  -0.872  -0.496  1.00  0.00    -0.287 OA
HETATM   18  C17 UNK     1       2.836   0.947   0.250  1.00  0.00     0.048 A 
HETATM   19  C18 UNK     1       2.847   2.314   0.526  1.00  0.00     0.089 A 
HETATM   20  C19 UNK     1       3.990   0.182   0.439  1.00  0.00     0.018 A 
HETATM   21  O3  UNK     1       1.743   3.113   0.359  1.00  0.00    -0.321 OA
HETATM   22  C21 UNK     1       4.012   2.925   0.991  1.00  0.00     0.038 A 
HETATM   23  C16 UNK     1       0.592   2.519  -0.098  1.00  0.00     0.154 A 
HETATM   24  C24 UNK     1       5.165   2.163   1.179  1.00  0.00     0.003 A 
HETATM   25  C23 UNK     1       5.154   0.795   0.904  1.00  0.00     0.001 A 
ENDBRANCH   8  15
BRANCH  10  26
HETATM   26  C14 UNK     1      -0.423   1.064  -3.380  1.00  0.00     0.292 C 
HETATM   27  O6  UNK     1      -1.302   1.634  -4.000  1.00  0.00    -0.259 OA
BRANCH  26  28
HETATM   28  O5  UNK     1       0.919   1.192  -3.515  1.00  0.00    -0.318 OA
BRANCH  28  29
HETATM   29  C22 UNK     1       1.341   2.118  -4.521  1.00  0.00     0.174 C 
HETATM   30  C25 UNK     1       2.854   2.153  -4.556  1.00  0.00     0.034 C 
ENDBRANCH  28  29
ENDBRANCH  26  28
ENDBRANCH  10  26
BRANCH   4  31
HETATM   31  C12 UNK     1      -3.837  -1.029   2.500  1.00  0.00     0.270 C 
HETATM   32  O4  UNK     1      -4.570  -0.353   1.791  1.00  0.00    -0.264 OA
BRANCH  31  33
HETATM   33  O2  UNK     1      -4.231  -1.915   3.459  1.00  0.00    -0.326 OA
HETATM   34  C20 UNK     1      -5.645  -2.046   3.632  1.00  0.00     0.213 C 
ENDBRANCH  31  33
ENDBRANCH   4  31
TORSDOF 6
