REMARK  4 active torsions:
REMARK  status: ('A' for Active; 'I' for Inactive)
REMARK    1  A    between atoms: C2_7  and  N1_5 
REMARK       I    between atoms: C6_11  and  N1_5 
REMARK    2  A    between atoms: C1_6  and  C2_7 
REMARK    3  A    between atoms: C1_6  and  C3_8 
REMARK    4  A    between atoms: C4_9  and  C6_11 
ROOT
HETATM    1  O2  UNK     1       1.125   1.415   2.381  1.00  0.00    -0.267 OA
HETATM    2  N1  UNK     1       0.138  -0.587   1.707  1.00  0.00    -0.356 N 
HETATM    3  C6  UNK     1       0.912   0.547   1.537  1.00  0.00     0.257 C 
HETATM    4  H5  UNK     1      -0.000  -1.231   0.935  1.00  0.00     0.162 HD
ENDROOT
BRANCH   3   5
HETATM    5  C4  UNK     1       1.498   0.642   0.194  1.00  0.00     0.108 A 
HETATM    6  C11 UNK     1       1.840  -0.559  -0.601  1.00  0.00     0.304 A 
HETATM    7  O1  UNK     1       2.391  -0.339  -1.860  1.00  0.00    -0.274 OA
HETATM    8  O3  UNK     1       1.651  -1.693  -0.175  1.00  0.00    -0.259 OA
HETATM    9  C8  UNK     1       2.612   0.960  -2.358  1.00  0.00     0.089 A 
HETATM   10  C13 UNK     1       3.167   1.079  -3.631  1.00  0.00     0.038 A 
HETATM   11  C5  UNK     1       2.283   2.075  -1.595  1.00  0.00    -0.001 A 
HETATM   12  C17 UNK     1       3.398   2.351  -4.150  1.00  0.00     0.003 A 
HETATM   13  C16 UNK     1       3.075   3.483  -3.398  1.00  0.00     0.001 A 
HETATM   14  C12 UNK     1       2.518   3.347  -2.123  1.00  0.00     0.014 A 
HETATM   15  C7  UNK     1       1.707   1.879  -0.274  1.00  0.00     0.037 A 
ENDBRANCH   3   5
BRANCH   2  16
HETATM   16  C2  UNK     1      -0.539  -0.900   2.944  1.00  0.00     0.127 C 
BRANCH  16  17
HETATM   17  C1  UNK     1      -1.949  -0.318   3.004  1.00  0.00     0.058 C 
BRANCH  17  18
HETATM   18  C3  UNK     1      -2.851  -0.849   1.917  1.00  0.00    -0.057 A 
HETATM   19  C10 UNK     1      -3.600  -1.991   2.152  1.00  0.00     0.010 A 
HETATM   20  C15 UNK     1      -4.433  -2.482   1.147  1.00  0.00     0.043 A 
HETATM   21  C18 UNK     1      -4.507  -1.824  -0.080  1.00  0.00     0.116 A 
HETATM   22  C14 UNK     1      -3.749  -0.675  -0.303  1.00  0.00     0.043 A 
HETATM   23  F1  UNK     1      -5.307  -2.296  -1.046  1.00  0.00    -0.206 F 
HETATM   24  C9  UNK     1      -2.915  -0.184   0.702  1.00  0.00     0.010 A 
ENDBRANCH  17  18
ENDBRANCH  16  17
ENDBRANCH   2  16
TORSDOF 4
