REMARK  6 active torsions:
REMARK  status: ('A' for Active; 'I' for Inactive)
REMARK    1  A    between atoms: C1_7  and  O1_4 
REMARK    2  A    between atoms: C4_10  and  O1_4 
REMARK    3  A    between atoms: C3_9  and  O2_5 
REMARK    4  A    between atoms: C2_8  and  C9_15 
REMARK    5  A    between atoms: C4_10  and  C6_12 
REMARK    6  A    between atoms: C10_16  and  C11_17 
ROOT
HETATM    1  N1  UNK     1      -3.008   1.596   1.908  1.00  0.00    -0.191 NA
HETATM    2  C9  UNK     1      -1.685  -1.394   0.813  1.00  0.00     0.036 C 
HETATM    3  C10 UNK     1      -2.792  -0.958   1.471  1.00  0.00     0.055 C 
HETATM    4  C23 UNK     1      -2.903   0.457   1.709  1.00  0.00     0.100 C 
ENDROOT
BRANCH   3   5
HETATM    5  C11 UNK     1      -3.856  -1.835   1.934  1.00  0.00    -0.015 A 
HETATM    6  C16 UNK     1      -4.936  -2.122   1.099  1.00  0.00     0.014 A 
HETATM    7  C19 UNK     1      -5.957  -2.963   1.544  1.00  0.00     0.024 A 
HETATM    8  C21 UNK     1      -5.898  -3.516   2.823  1.00  0.00     0.034 A 
HETATM    9  C20 UNK     1      -4.818  -3.228   3.658  1.00  0.00     0.024 A 
HETATM   10 Cl2  UNK     1      -7.157  -4.552   3.372  1.00  0.00    -0.084 Cl
HETATM   11  C17 UNK     1      -3.797  -2.387   3.214  1.00  0.00     0.014 A 
ENDBRANCH   3   5
BRANCH   2  12
HETATM   12  C2  UNK     1      -0.590  -0.545   0.322  1.00  0.00    -0.015 A 
HETATM   13  C5  UNK     1      -0.701  -0.053  -0.972  1.00  0.00     0.052 A 
HETATM   14  C3  UNK     1       0.309   0.758  -1.490  1.00  0.00     0.102 A 
HETATM   15  C1  UNK     1       1.422   1.070  -0.709  1.00  0.00     0.103 A 
HETATM   16  C7  UNK     1       1.525   0.571   0.590  1.00  0.00     0.059 A 
HETATM   17  C8  UNK     1       0.515  -0.240   1.107  1.00  0.00     0.024 A 
HETATM   18 Br1  UNK     1       0.717  -0.886   2.883  1.00  0.00    -0.050 Br
BRANCH  14  19
HETATM   19  O2  UNK     1       0.197   1.239  -2.759  1.00  0.00    -0.353 OA
HETATM   20  C22 UNK     1      -0.971   0.874  -3.491  1.00  0.00     0.210 C 
ENDBRANCH  14  19
BRANCH  15  21
HETATM   21  O1  UNK     1       2.414   1.861  -1.203  1.00  0.00    -0.344 OA
BRANCH  21  22
HETATM   22  C4  UNK     1       3.721   1.295  -1.273  1.00  0.00     0.216 C 
BRANCH  22  23
HETATM   23  C6  UNK     1       4.474   1.936  -2.401  1.00  0.00    -0.012 A 
HETATM   24  C12 UNK     1       5.240   3.082  -2.204  1.00  0.00     0.042 A 
HETATM   25 Cl1  UNK     1       5.367   3.827  -0.652  1.00  0.00    -0.084 Cl
HETATM   26  C14 UNK     1       5.926   3.649  -3.278  1.00  0.00     0.024 A 
HETATM   27  C18 UNK     1       5.843   3.070  -4.544  1.00  0.00     0.002 A 
HETATM   28  C15 UNK     1       5.074   1.922  -4.736  1.00  0.00     0.001 A 
HETATM   29  C13 UNK     1       4.388   1.354  -3.663  1.00  0.00     0.011 A 
ENDBRANCH  22  23
ENDBRANCH  21  22
ENDBRANCH  15  21
ENDBRANCH   2  12
TORSDOF 6
