REMARK  2 active torsions:
REMARK  status: ('A' for Active; 'I' for Inactive)
REMARK    1  A    between atoms: C14_21  and  N1_6 
REMARK    2  A    between atoms: C11_18  and  C4_11 
ROOT
HETATM    1  O1  UNK     1       1.877   2.392  -3.433  1.00  0.00    -0.332 OA
HETATM    2  O2  UNK     1       2.065   0.338   0.975  1.00  0.00    -0.274 OA
HETATM    3  O3  UNK     1      -0.333  -0.462  -3.530  1.00  0.00    -0.289 OA
HETATM    4  O4  UNK     1       2.253  -0.637   3.039  1.00  0.00    -0.260 OA
HETATM    5  C1  UNK     1       1.363   1.195  -4.022  1.00  0.00     0.125 C 
HETATM    6  C2  UNK     1       1.847   1.372  -1.219  1.00  0.00     0.048 A 
HETATM    7  C3  UNK     1       0.476   0.356  -3.097  1.00  0.00     0.196 C 
HETATM    8  C4  UNK     1       0.685   0.570  -1.633  1.00  0.00     0.044 C 
HETATM    9  C5  UNK     1       2.370   2.270  -2.160  1.00  0.00     0.084 A 
HETATM   10  C6  UNK     1       2.524   0.331  -4.530  1.00  0.00     0.055 C 
HETATM   11  C7  UNK     1       0.520   1.661  -5.216  1.00  0.00     0.055 C 
HETATM   12  C8  UNK     1       2.489   1.304   0.030  1.00  0.00     0.103 A 
HETATM   13  C9  UNK     1       3.559   2.142   0.363  1.00  0.00    -0.001 A 
HETATM   14  C10 UNK     1       3.423   3.131  -1.833  1.00  0.00     0.039 A 
HETATM   15  C12 UNK     1       4.015   3.069  -0.574  1.00  0.00     0.017 A 
HETATM   16  C13 UNK     1       4.176   2.028   1.675  1.00  0.00     0.020 A 
HETATM   17  C15 UNK     1       3.744   1.120   2.553  1.00  0.00     0.083 A 
HETATM   18  C16 UNK     1       2.640   0.201   2.233  1.00  0.00     0.288 A 
ENDROOT
BRANCH   8  19
HETATM   19  C11 UNK     1      -0.274   0.112  -0.813  1.00  0.00     0.104 C 
HETATM   20  N1  UNK     1      -1.359  -0.626  -1.141  1.00  0.00    -0.365 N 
HETATM   21  H10 UNK     1      -1.468  -0.869  -2.119  1.00  0.00     0.165 HD
BRANCH  20  22
HETATM   22  C14 UNK     1      -2.377  -1.116  -0.302  1.00  0.00     0.033 A 
HETATM   23  C17 UNK     1      -2.332  -0.848   1.071  1.00  0.00     0.050 A 
HETATM   24  C18 UNK     1      -3.359  -1.351   1.886  1.00  0.00     0.037 A 
HETATM   25  S1  UNK     1      -3.573  -1.188   3.589  1.00  0.00    -0.073 SA
HETATM   26  C20 UNK     1      -4.415  -2.104   1.362  1.00  0.00     0.075 A 
HETATM   27  C22 UNK     1      -5.011  -2.108   3.486  1.00  0.00     0.072 A 
HETATM   28  N2  UNK     1      -5.353  -2.530   2.292  1.00  0.00    -0.245 NA
HETATM   29  C23 UNK     1      -5.783  -2.378   4.719  1.00  0.00     0.079 C 
HETATM   30  C21 UNK     1      -4.441  -2.362  -0.025  1.00  0.00     0.035 A 
HETATM   31  C19 UNK     1      -3.421  -1.865  -0.842  1.00  0.00     0.032 A 
ENDBRANCH  20  22
ENDBRANCH   8  19
TORSDOF 2
