REMARK  2 active torsions:
REMARK  status: ('A' for Active; 'I' for Inactive)
REMARK    1  A    between atoms: C7_12  and  O4_4 
REMARK    2  A    between atoms: C1_6  and  C2_7 
ROOT
HETATM    1  O1  UNK     1       0.096   0.439  -1.173  1.00  0.00    -0.306 OA
HETATM    2  O5  UNK     1       2.432   2.858   1.128  1.00  0.00    -0.284 OA
HETATM    3  C2  UNK     1      -0.220   0.703   0.150  1.00  0.00     0.123 A 
HETATM    4  C3  UNK     1       2.053   1.861  -0.975  1.00  0.00     0.051 A 
HETATM    5  C4  UNK     1       1.215   1.023  -1.707  1.00  0.00     0.091 A 
HETATM    6  C7  UNK     1       0.509   1.485   0.967  1.00  0.00     0.152 A 
HETATM    7  C9  UNK     1       1.730   2.135   0.433  1.00  0.00     0.220 A 
HETATM    8  C11 UNK     1       1.501   0.745  -3.044  1.00  0.00     0.045 A 
HETATM    9  C12 UNK     1       2.627   1.309  -3.645  1.00  0.00    -0.059 A 
HETATM   10  C14 UNK     1       3.181   2.428  -1.573  1.00  0.00     0.019 A 
HETATM   11  C15 UNK     1       3.465   2.149  -2.910  1.00  0.00     0.008 A 
HETATM   12  C17 UNK     1       2.936   1.014  -5.074  1.00  0.00     0.048 C 
ENDROOT
BRANCH   3  13
HETATM   13  C1  UNK     1      -1.444   0.014   0.597  1.00  0.00     0.004 A 
HETATM   14  C6  UNK     1      -1.359  -1.272   1.137  1.00  0.00     0.054 A 
HETATM   15  C5  UNK     1      -2.531  -1.878   1.541  1.00  0.00     0.105 A 
HETATM   16  O2  UNK     1      -2.642  -3.120   2.084  1.00  0.00    -0.323 OA
HETATM   17  C8  UNK     1      -3.749  -1.248   1.422  1.00  0.00     0.105 A 
HETATM   18  C16 UNK     1      -4.066  -3.202   2.296  1.00  0.00     0.352 A 
HETATM   19  O3  UNK     1      -4.775  -2.017   1.878  1.00  0.00    -0.323 OA
HETATM   20  C13 UNK     1      -3.862   0.022   0.894  1.00  0.00     0.040 A 
HETATM   21  C10 UNK     1      -2.689   0.657   0.477  1.00  0.00     0.017 A 
ENDBRANCH   3  13
BRANCH   6  22
HETATM   22  O4  UNK     1       0.185   1.701   2.289  1.00  0.00    -0.355 OA
HETATM   23  H12 UNK     1      -0.628   1.220   2.512  1.00  0.00     0.218 HD
ENDBRANCH   6  22
TORSDOF 2
