REMARK  3 active torsions:
REMARK  status: ('A' for Active; 'I' for Inactive)
REMARK    1  A    between atoms: C1_7  and  C3_9 
REMARK    2  A    between atoms: C3_9  and  C9_15 
REMARK    3  A    between atoms: C11_17  and  C7_13 
ROOT
HETATM    1 Br1  UNK     1       3.898   0.843   2.428  1.00  0.00    -0.048 Br
HETATM    2  O1  UNK     1       1.039  -0.260   2.201  1.00  0.00    -0.273 OA
HETATM    3  O2  UNK     1      -0.441  -1.621   3.281  1.00  0.00    -0.259 OA
HETATM    4  C1  UNK     1       1.974   2.316  -0.948  1.00  0.00    -0.052 A 
HETATM    5  C2  UNK     1       0.381   0.860   0.148  1.00  0.00     0.001 A 
HETATM    6  C4  UNK     1       0.709   1.725  -0.899  1.00  0.00     0.021 A 
HETATM    7  C5  UNK     1       1.332   0.604   1.129  1.00  0.00     0.107 A 
HETATM    8  C6  UNK     1      -0.919   0.218   0.246  1.00  0.00     0.035 A 
HETATM    9  C7  UNK     1      -1.203  -0.605   1.267  1.00  0.00     0.076 A 
HETATM   10  C8  UNK     1       2.917   2.048   0.047  1.00  0.00     0.029 A 
HETATM   11  C10 UNK     1       2.598   1.187   1.095  1.00  0.00     0.046 A 
HETATM   12  C12 UNK     1      -0.200  -0.884   2.330  1.00  0.00     0.301 A 
ENDROOT
BRANCH   9  13
HETATM   13  C11 UNK     1      -2.490  -1.225   1.329  1.00  0.00     0.115 A 
HETATM   14  S1  UNK     1      -2.693  -2.748   0.568  1.00  0.00    -0.067 SA
HETATM   15  C13 UNK     1      -4.344  -2.774   1.065  1.00  0.00     0.035 A 
HETATM   16  C14 UNK     1      -4.623  -1.607   1.782  1.00  0.00     0.075 A 
HETATM   17  C17 UNK     1      -5.321  -3.756   0.836  1.00  0.00     0.021 A 
HETATM   18  N1  UNK     1      -3.556  -0.732   1.925  1.00  0.00    -0.239 NA
HETATM   19  C18 UNK     1      -5.928  -1.418   2.287  1.00  0.00     0.033 A 
HETATM   20  C23 UNK     1      -6.906  -2.392   2.063  1.00  0.00     0.002 A 
HETATM   21  C22 UNK     1      -6.604  -3.545   1.347  1.00  0.00     0.002 A 
ENDBRANCH   9  13
BRANCH   4  22
HETATM   22  C3  UNK     1       2.319   3.239  -2.069  1.00  0.00     0.078 C 
BRANCH  22  23
HETATM   23  C9  UNK     1       2.934   2.546  -3.268  1.00  0.00    -0.032 A 
HETATM   24  C15 UNK     1       4.304   2.379  -3.367  1.00  0.00     0.040 A 
HETATM   25 Cl1  UNK     1       5.387   2.943  -2.147  1.00  0.00    -0.084 Cl
HETATM   26  C19 UNK     1       4.834   1.736  -4.486  1.00  0.00     0.024 A 
HETATM   27  C21 UNK     1       3.984   1.270  -5.489  1.00  0.00     0.002 A 
HETATM   28  C20 UNK     1       2.606   1.446  -5.373  1.00  0.00     0.001 A 
HETATM   29  C16 UNK     1       2.076   2.088  -4.254  1.00  0.00     0.009 A 
ENDBRANCH  22  23
ENDBRANCH   4  22
TORSDOF 3
