REMARK  4 active torsions:
REMARK  status: ('A' for Active; 'I' for Inactive)
REMARK    1  A    between atoms: N1_4  and  N2_5 
REMARK       I    between atoms: C6_11  and  N2_5 
REMARK    2  A    between atoms: C6_11  and  C7_12 
REMARK    3  A    between atoms: C11_16  and  C14_19 
REMARK    4  A    between atoms: C14_19  and  C17_22 
ROOT
HETATM    1  O1  UNK     1       1.451   1.458  -0.122  1.00  0.00    -0.273 OA
HETATM    2  O3  UNK     1      -0.069   0.944   1.504  1.00  0.00    -0.259 OA
HETATM    3  C7  UNK     1      -0.594   0.246  -0.698  1.00  0.00     0.109 A 
HETATM    4  C8  UNK     1       1.020   0.794  -2.421  1.00  0.00    -0.000 A 
HETATM    5  C9  UNK     1       1.834   1.411  -1.476  1.00  0.00     0.096 A 
HETATM    6  C10 UNK     1      -0.234   0.198  -1.987  1.00  0.00     0.037 A 
HETATM    7  C11 UNK     1       3.048   2.000  -1.827  1.00  0.00    -0.020 A 
HETATM    8  C12 UNK     1       0.256   0.898   0.323  1.00  0.00     0.304 A 
HETATM    9  C13 UNK     1       1.435   0.768  -3.754  1.00  0.00     0.014 A 
HETATM   10  C15 UNK     1       3.454   1.969  -3.159  1.00  0.00     0.010 A 
HETATM   11  C16 UNK     1       2.650   1.355  -4.121  1.00  0.00     0.002 A 
ENDROOT
BRANCH   3  12
HETATM   12  C6  UNK     1      -1.876  -0.382  -0.359  1.00  0.00     0.272 C 
HETATM   13  O2  UNK     1      -2.794  -0.425  -1.176  1.00  0.00    -0.266 OA
HETATM   14  N2  UNK     1      -1.897  -0.885   0.927  1.00  0.00    -0.285 N 
HETATM   15  H11 UNK     1      -1.098  -0.842   1.552  1.00  0.00     0.184 HD
BRANCH  14  16
HETATM   16  N1  UNK     1      -3.043  -1.508   1.387  1.00  0.00    -0.229 NA
HETATM   17  C4  UNK     1      -2.747  -2.896   1.758  1.00  0.00     0.113 C 
HETATM   18  C2  UNK     1      -4.008  -3.617   2.236  1.00  0.00     0.016 C 
HETATM   19  C1  UNK     1      -4.672  -2.869   3.388  1.00  0.00     0.002 C 
HETATM   20  C3  UNK     1      -4.895  -1.407   3.018  1.00  0.00     0.016 C 
HETATM   21  C5  UNK     1      -3.605  -0.757   2.515  1.00  0.00     0.113 C 
ENDBRANCH  14  16
ENDBRANCH   3  12
BRANCH   7  22
HETATM   22  C14 UNK     1       3.914   2.660  -0.807  1.00  0.00     0.067 C 
BRANCH  22  23
HETATM   23  C17 UNK     1       4.907   1.717  -0.178  1.00  0.00    -0.032 C 
HETATM   24  C18 UNK     1       4.930   1.408   1.123  1.00  0.00     0.007 C 
ENDBRANCH  22  23
ENDBRANCH   7  22
TORSDOF 4
