REMARK  1 active torsions:
REMARK  status: ('A' for Active; 'I' for Inactive)
REMARK    1  A    between atoms: C1_5  and  C5_9 
ROOT
HETATM    1  O1  UNK     1      -0.479  -0.952   0.138  1.00  0.00    -0.315 OA
HETATM    2  O2  UNK     1      -0.413  -0.311   4.403  1.00  0.00    -0.247 OA
HETATM    3  N1  UNK     1      -0.090  -1.408   2.411  1.00  0.00    -0.306 N 
HETATM    4  N2  UNK     1       0.964   0.649   2.834  1.00  0.00    -0.334 N 
HETATM    5  C1  UNK     1       0.493  -1.498   1.059  1.00  0.00     0.174 C 
HETATM    6  C2  UNK     1       1.819  -0.720   1.013  1.00  0.00     0.097 C 
HETATM    7  C3  UNK     1       1.490   0.694   1.475  1.00  0.00     0.127 C 
HETATM    8  C4  UNK     1       0.453   1.264   0.545  1.00  0.00    -0.002 A 
HETATM    9  C6  UNK     1      -0.477   0.406  -0.056  1.00  0.00     0.080 A 
HETATM   10  C7  UNK     1       0.113  -0.351   3.289  1.00  0.00     0.319 C 
HETATM   11  C8  UNK     1       0.376   2.640   0.303  1.00  0.00     0.012 A 
HETATM   12  C9  UNK     1      -1.459   0.917  -0.906  1.00  0.00     0.037 A 
HETATM   13  C12 UNK     1      -0.607   3.149  -0.545  1.00  0.00     0.001 A 
HETATM   14  C13 UNK     1      -1.523   2.288  -1.150  1.00  0.00     0.003 A 
HETATM   15  H4  UNK     1      -0.756  -2.122   2.693  1.00  0.00     0.167 HD
HETATM   16  H5  UNK     1       1.141   1.441   3.445  1.00  0.00     0.165 HD
ENDROOT
BRANCH   5  17
HETATM   17  C5  UNK     1       0.760  -2.956   0.680  1.00  0.00    -0.003 A 
HETATM   18  C10 UNK     1       1.078  -3.887   1.668  1.00  0.00     0.012 A 
HETATM   19  C14 UNK     1       1.322  -5.216   1.323  1.00  0.00     0.001 A 
HETATM   20  C16 UNK     1       1.246  -5.615  -0.012  1.00  0.00     0.000 A 
HETATM   21  C15 UNK     1       0.927  -4.684  -1.001  1.00  0.00     0.001 A 
HETATM   22  C11 UNK     1       0.684  -3.355  -0.655  1.00  0.00     0.012 A 
ENDBRANCH   5  17
TORSDOF 1
