REMARK  8 active torsions:
REMARK  status: ('A' for Active; 'I' for Inactive)
REMARK    1  A    between atoms: C13_16  and  O2_2 
REMARK    2  A    between atoms: C17_20  and  O2_2 
REMARK    3  A    between atoms: C1_4  and  C2_5 
REMARK    4  A    between atoms: C1_4  and  C3_6 
REMARK    5  A    between atoms: C2_5  and  C4_7 
REMARK    6  A    between atoms: C4_7  and  C7_10 
REMARK    7  A    between atoms: C16_19  and  C17_20 
REMARK    8  A    between atoms: C16_19  and  C18_21 
ROOT
HETATM    1  O1  UNK     1      -0.750  -0.132  -1.399  1.00  0.00    -0.274 OA
HETATM    2  O3  UNK     1      -2.931  -0.753  -1.496  1.00  0.00    -0.259 OA
HETATM    3  C3  UNK     1      -2.073  -0.250   0.669  1.00  0.00     0.024 A 
HETATM    4  C5  UNK     1      -1.001   0.102   1.411  1.00  0.00    -0.037 A 
HETATM    5  C6  UNK     1       0.281   0.398   0.739  1.00  0.00     0.005 A 
HETATM    6  C8  UNK     1       0.362   0.269  -0.644  1.00  0.00     0.092 A 
HETATM    7  C9  UNK     1      -1.975  -0.400  -0.812  1.00  0.00     0.295 A 
HETATM    8  C10 UNK     1      -1.022   0.200   2.916  1.00  0.00     0.050 C 
HETATM    9  C11 UNK     1       1.440   0.818   1.411  1.00  0.00     0.017 A 
HETATM   10  C12 UNK     1       1.536   0.530  -1.356  1.00  0.00     0.075 A 
HETATM   11  C13 UNK     1       2.673   0.938  -0.670  1.00  0.00     0.071 A 
HETATM   12  C15 UNK     1       2.624   1.084   0.714  1.00  0.00     0.038 A 
ENDROOT
BRANCH   3  13
HETATM   13  C1  UNK     1      -3.451  -0.517   1.218  1.00  0.00     0.045 C 
BRANCH  13  14
HETATM   14  C2  UNK     1      -3.667  -1.977   1.602  1.00  0.00     0.005 C 
BRANCH  14  15
HETATM   15  C4  UNK     1      -5.037  -2.240   2.234  1.00  0.00    -0.000 C 
BRANCH  15  16
HETATM   16  C7  UNK     1      -5.192  -3.709   2.628  1.00  0.00    -0.005 C 
HETATM   17  C14 UNK     1      -6.534  -3.969   3.294  1.00  0.00     0.005 C 
ENDBRANCH  15  16
ENDBRANCH  14  15
ENDBRANCH  13  14
ENDBRANCH   3  13
BRANCH  11  18
HETATM   18  O2  UNK     1       3.824   1.197  -1.345  1.00  0.00    -0.351 OA
BRANCH  18  19
HETATM   19  C17 UNK     1       3.700   1.672  -2.685  1.00  0.00     0.175 C 
BRANCH  19  20
HETATM   20  C16 UNK     1       4.899   2.552  -3.008  1.00  0.00     0.026 C 
BRANCH  20  21
HETATM   21  C18 UNK     1       4.823   3.110  -4.427  1.00  0.00    -0.002 C 
HETATM   22  C19 UNK     1       6.000   4.023  -4.731  1.00  0.00     0.005 C 
ENDBRANCH  20  21
ENDBRANCH  19  20
ENDBRANCH  18  19
ENDBRANCH  11  18
TORSDOF 8
