REMARK  1 active torsions:
REMARK  status: ('A' for Active; 'I' for Inactive)
REMARK    1  A    between atoms: C5_8  and  N1_3 
ROOT
HETATM    1  O1  UNK     1       0.082   0.031   1.329  1.00  0.00    -0.273 OA
HETATM    2  O2  UNK     1      -1.714  -0.926   2.358  1.00  0.00    -0.257 OA
HETATM    3  C1  UNK     1       0.088   0.310  -1.081  1.00  0.00     0.000 A 
HETATM    4  C2  UNK     1       0.716   0.462   0.149  1.00  0.00     0.089 A 
HETATM    5  C3  UNK     1      -1.229  -0.300  -1.122  1.00  0.00     0.049 A 
HETATM    6  C4  UNK     1       0.745   0.750  -2.233  1.00  0.00     0.014 A 
HETATM    7  C5  UNK     1      -1.846  -0.715  -0.006  1.00  0.00     0.103 A 
HETATM    8  C6  UNK     1       1.979   1.039   0.263  1.00  0.00     0.038 A 
HETATM    9  C7  UNK     1       2.013   1.331  -2.136  1.00  0.00     0.001 A 
HETATM   10  C8  UNK     1      -1.180  -0.557   1.316  1.00  0.00     0.314 A 
HETATM   11  C9  UNK     1       2.628   1.475  -0.890  1.00  0.00     0.003 A 
ENDROOT
BRANCH   7  12
HETATM   12  N1  UNK     1      -3.082  -1.295   0.014  1.00  0.00    -0.394 N 
HETATM   13  H6  UNK     1      -3.591  -1.433  -0.850  1.00  0.00     0.156 HD
HETATM   14  H7  UNK     1      -3.489  -1.586   0.894  1.00  0.00     0.156 HD
ENDBRANCH   7  12
TORSDOF 1
