REMARK  3 active torsions:
REMARK  status: ('A' for Active; 'I' for Inactive)
REMARK    1  A    between atoms: C7_11  and  N1_3 
REMARK    2  A    between atoms: C1_5  and  C3_7 
REMARK    3  A    between atoms: C2_6  and  C4_8 
ROOT
HETATM    1  N2  UNK     1      -3.826  -2.706  -0.885  1.00  0.00    -0.191 NA
HETATM    2  C3  UNK     1      -1.380  -0.359  -1.517  1.00  0.00     0.035 C 
HETATM    3  C4  UNK     1      -1.925  -0.988  -0.442  1.00  0.00     0.055 C 
HETATM    4  C15 UNK     1      -2.977  -1.937  -0.697  1.00  0.00     0.100 C 
ENDROOT
BRANCH   3   5
HETATM    5  C2  UNK     1      -1.501  -0.760   0.930  1.00  0.00    -0.015 A 
HETATM    6  C10 UNK     1      -0.478  -1.530   1.482  1.00  0.00     0.013 A 
HETATM    7  C12 UNK     1      -0.071  -1.311   2.798  1.00  0.00     0.001 A 
HETATM    8  C14 UNK     1      -0.688  -0.320   3.562  1.00  0.00     0.000 A 
HETATM    9  C13 UNK     1      -1.711   0.451   3.011  1.00  0.00     0.001 A 
HETATM   10  C11 UNK     1      -2.118   0.231   1.695  1.00  0.00     0.013 A 
ENDBRANCH   3   5
BRANCH   2  11
HETATM   11  C1  UNK     1      -0.317   0.654  -1.469  1.00  0.00    -0.032 A 
HETATM   12  C5  UNK     1       1.011   0.254  -1.521  1.00  0.00     0.047 A 
HETATM   13  C7  UNK     1       2.019   1.217  -1.475  1.00  0.00     0.103 A 
HETATM   14  C9  UNK     1       1.689   2.569  -1.376  1.00  0.00     0.036 A 
HETATM   15  C8  UNK     1       0.350   2.958  -1.324  1.00  0.00     0.003 A 
HETATM   16  C6  UNK     1      -0.658   1.995  -1.370  1.00  0.00     0.011 A 
BRANCH  13  17
HETATM   17  N1  UNK     1       3.382   0.822  -1.528  1.00  0.00    -0.116 N 
HETATM   18  O1  UNK     1       4.273   1.704  -1.486  1.00  0.00    -0.532 OA
HETATM   19  O2  UNK     1       3.658  -0.399  -1.617  1.00  0.00    -0.532 OA
ENDBRANCH  13  17
ENDBRANCH   2  11
TORSDOF 3
