REMARK  4 active torsions:
REMARK  status: ('A' for Active; 'I' for Inactive)
REMARK    1  A    between atoms: C10_13  and  O2_2 
REMARK    2  A    between atoms: C13_16  and  O2_2 
REMARK    3  A    between atoms: C3_6  and  C5_8 
REMARK    4  A    between atoms: C13_16  and  C14_17 
ROOT
HETATM    1  O1  UNK     1      -1.610  -0.049  -1.076  1.00  0.00    -0.274 OA
HETATM    2  O3  UNK     1      -3.637  -1.070  -1.049  1.00  0.00    -0.259 OA
HETATM    3  C1  UNK     1      -1.316  -0.691   1.666  1.00  0.00    -0.037 A 
HETATM    4  C2  UNK     1      -0.262   0.054   0.947  1.00  0.00     0.005 A 
HETATM    5  C3  UNK     1      -2.446  -1.037   1.014  1.00  0.00     0.024 A 
HETATM    6  C4  UNK     1      -0.446   0.348  -0.401  1.00  0.00     0.092 A 
HETATM    7  C6  UNK     1       0.928   0.503   1.543  1.00  0.00     0.017 A 
HETATM    8  C7  UNK     1      -2.631  -0.731  -0.434  1.00  0.00     0.295 A 
HETATM    9  C8  UNK     1      -1.044  -1.034   3.110  1.00  0.00     0.050 C 
HETATM   10  C9  UNK     1       0.500   1.047  -1.155  1.00  0.00     0.075 A 
HETATM   11  C10 UNK     1       1.674   1.476  -0.545  1.00  0.00     0.071 A 
HETATM   12  C11 UNK     1       1.887   1.206   0.803  1.00  0.00     0.038 A 
ENDROOT
BRANCH  11  13
HETATM   13  O2  UNK     1       2.607   2.159  -1.261  1.00  0.00    -0.347 OA
BRANCH  13  14
HETATM   14  C13 UNK     1       2.702   1.865  -2.655  1.00  0.00     0.202 C 
BRANCH  14  15
HETATM   15  C14 UNK     1       4.098   2.136  -3.108  1.00  0.00    -0.011 C 
HETATM   16  C15 UNK     1       4.902   1.212  -3.644  1.00  0.00     0.009 C 
ENDBRANCH  14  15
ENDBRANCH  13  14
ENDBRANCH  11  13
BRANCH   5  17
HETATM   17  C5  UNK     1      -3.623  -1.740   1.642  1.00  0.00     0.041 C 
HETATM   18  C12 UNK     1      -3.484  -3.243   1.545  1.00  0.00     0.010 C 
ENDBRANCH   5  17
TORSDOF 4
