REMARK  4 active torsions:
REMARK  status: ('A' for Active; 'I' for Inactive)
REMARK    1  A    between atoms: C5_13  and  O1_1 
REMARK    2  A    between atoms: C7_15  and  O1_1 
REMARK    3  A    between atoms: C17_25  and  O6_6 
REMARK       I    between atoms: C5_13  and  N1_7 
REMARK       I    between atoms: C6_14  and  N2_8 
REMARK    4  A    between atoms: C6_14  and  C8_16 
ROOT
HETATM    1  O2  UNK     1       4.665   2.619  -1.822  1.00  0.00    -0.238 OA
HETATM    2  O3  UNK     1       0.893   0.048   3.202  1.00  0.00    -0.267 OA
HETATM    3  N1  UNK     1       2.902   1.288  -1.103  1.00  0.00    -0.325 N 
HETATM    4  N2  UNK     1       1.071   0.794   1.006  1.00  0.00    -0.345 N 
HETATM    5  C1  UNK     1       1.664   0.555  -1.386  1.00  0.00     0.148 C 
HETATM    6  C2  UNK     1       3.398   1.156   0.265  1.00  0.00     0.148 C 
HETATM    7  C3  UNK     1       0.573   0.907  -0.375  1.00  0.00     0.146 C 
HETATM    8  C4  UNK     1       2.312   1.532   1.267  1.00  0.00     0.146 C 
HETATM    9  C5  UNK     1       3.626   2.004  -2.058  1.00  0.00     0.363 C 
HETATM   10  C6  UNK     1       0.448   0.123   2.055  1.00  0.00     0.260 C 
ENDROOT
BRANCH  10  11
HETATM   11  C8  UNK     1      -0.840  -0.543   1.778  1.00  0.00     0.108 A 
HETATM   12  C12 UNK     1      -1.940   0.197   1.963  1.00  0.00     0.037 A 
HETATM   13  C14 UNK     1      -3.256  -0.372   1.716  1.00  0.00     0.002 A 
HETATM   14  C15 UNK     1      -3.349  -1.692   1.287  1.00  0.00     0.123 A 
HETATM   15  C16 UNK     1      -4.431   0.363   1.896  1.00  0.00     0.014 A 
HETATM   16  O4  UNK     1      -2.188  -2.465   1.094  1.00  0.00    -0.271 OA
HETATM   17  C17 UNK     1      -4.579  -2.296   1.033  1.00  0.00     0.102 A 
HETATM   18  C13 UNK     1      -0.915  -1.949   1.321  1.00  0.00     0.304 A 
HETATM   19  O5  UNK     1       0.090  -2.629   1.149  1.00  0.00    -0.259 OA
HETATM   20  C19 UNK     1      -5.745  -1.556   1.214  1.00  0.00     0.040 A 
HETATM   21  C18 UNK     1      -5.672  -0.229   1.645  1.00  0.00     0.004 A 
BRANCH  17  22
HETATM   22  O6  UNK     1      -4.655  -3.587   0.614  1.00  0.00    -0.353 OA
HETATM   23  C20 UNK     1      -4.633  -3.817  -0.795  1.00  0.00     0.210 C 
ENDBRANCH  17  22
ENDBRANCH  10  11
BRANCH   9  24
HETATM   24  O1  UNK     1       3.057   1.951  -3.302  1.00  0.00    -0.294 OA
BRANCH  24  25
HETATM   25  C7  UNK     1       3.741   2.660  -4.341  1.00  0.00     0.061 C 
HETATM   26  C10 UNK     1       2.949   2.464  -5.632  1.00  0.00     0.046 C 
HETATM   27  C11 UNK     1       3.797   4.140  -3.965  1.00  0.00     0.046 C 
HETATM   28  C9  UNK     1       5.148   2.080  -4.480  1.00  0.00     0.046 C 
ENDBRANCH  24  25
ENDBRANCH   9  24
TORSDOF 4
