REMARK  9 active torsions:
REMARK  status: ('A' for Active; 'I' for Inactive)
REMARK    1  A    between atoms: C14_17  and  O2_2 
REMARK    2  A    between atoms: C15_18  and  O2_2 
REMARK    3  A    between atoms: C1_4  and  C2_5 
REMARK    4  A    between atoms: C1_4  and  C3_6 
REMARK    5  A    between atoms: C2_5  and  C4_7 
REMARK    6  A    between atoms: C4_7  and  C7_10 
REMARK    7  A    between atoms: C10_13  and  C11_14 
REMARK    8  A    between atoms: C10_13  and  C14_17 
REMARK    9  A    between atoms: C11_14  and  C17_20 
ROOT
HETATM    1  O1  UNK     1       0.444  -1.214   0.548  1.00  0.00    -0.274 OA
HETATM    2  O3  UNK     1      -0.425  -2.476   2.223  1.00  0.00    -0.259 OA
HETATM    3  C3  UNK     1      -1.986  -1.563   0.672  1.00  0.00     0.024 A 
HETATM    4  C5  UNK     1      -2.185  -0.785  -0.413  1.00  0.00    -0.037 A 
HETATM    5  C6  UNK     1      -1.020  -0.198  -1.108  1.00  0.00     0.005 A 
HETATM    6  C8  UNK     1       0.254  -0.432  -0.601  1.00  0.00     0.092 A 
HETATM    7  C9  UNK     1      -0.618  -1.800   1.217  1.00  0.00     0.295 A 
HETATM    8  C12 UNK     1      -3.548  -0.454  -0.967  1.00  0.00     0.050 C 
HETATM    9  C13 UNK     1      -1.113   0.585  -2.269  1.00  0.00     0.017 A 
HETATM   10  C15 UNK     1       1.292   0.863  -2.343  1.00  0.00     0.071 A 
HETATM   11  C16 UNK     1       1.408   0.086  -1.197  1.00  0.00     0.075 A 
HETATM   12  C18 UNK     1       0.032   1.112  -2.880  1.00  0.00     0.038 A 
ENDROOT
BRANCH  10  13
HETATM   13  O2  UNK     1       2.402   1.376  -2.938  1.00  0.00    -0.351 OA
BRANCH  13  14
HETATM   14  C14 UNK     1       3.513   1.675  -2.094  1.00  0.00     0.175 C 
BRANCH  14  15
HETATM   15  C10 UNK     1       4.300   2.825  -2.706  1.00  0.00     0.027 C 
BRANCH  15  16
HETATM   16  C11 UNK     1       5.500   3.210  -1.843  1.00  0.00     0.002 C 
BRANCH  16  17
HETATM   17  C17 UNK     1       6.260   4.392  -2.442  1.00  0.00    -0.004 C 
HETATM   18  C20 UNK     1       7.436   4.800  -1.568  1.00  0.00     0.005 C 
ENDBRANCH  16  17
ENDBRANCH  15  16
ENDBRANCH  14  15
ENDBRANCH  13  14
ENDBRANCH  10  13
BRANCH   3  19
HETATM   19  C1  UNK     1      -3.076  -2.273   1.435  1.00  0.00     0.045 C 
BRANCH  19  20
HETATM   20  C2  UNK     1      -3.654  -1.433   2.567  1.00  0.00     0.005 C 
BRANCH  20  21
HETATM   21  C4  UNK     1      -4.815  -2.117   3.296  1.00  0.00    -0.000 C 
BRANCH  21  22
HETATM   22  C7  UNK     1      -5.379  -1.222   4.401  1.00  0.00    -0.005 C 
HETATM   23  C19 UNK     1      -6.559  -1.878   5.101  1.00  0.00     0.005 C 
ENDBRANCH  21  22
ENDBRANCH  20  21
ENDBRANCH  19  20
ENDBRANCH   3  19
TORSDOF 9
