REMARK  5 active torsions:
REMARK  status: ('A' for Active; 'I' for Inactive)
REMARK    1  A    between atoms: C5_9  and  N1_3 
REMARK    2  A    between atoms: C6_10  and  N2_4 
REMARK    3  A    between atoms: C5_9  and  C7_11 
REMARK    4  A    between atoms: C6_10  and  C8_12 
REMARK    5  A    between atoms: C17_21  and  C23_27 
ROOT
HETATM    1  N1  UNK     1      -0.241  -0.765  -0.441  1.00  0.00     0.096 N 
HETATM    2  N2  UNK     1       1.412   0.894  -2.137  1.00  0.00     0.096 N 
HETATM    3  C1  UNK     1       0.948  -0.084   0.085  1.00  0.00     0.303 C 
HETATM    4  C2  UNK     1      -0.070  -1.066  -1.868  1.00  0.00     0.303 C 
HETATM    5  C3  UNK     1       1.242   1.193  -0.710  1.00  0.00     0.303 C 
HETATM    6  C4  UNK     1       0.222   0.212  -2.663  1.00  0.00     0.303 C 
ENDROOT
BRANCH   1   7
HETATM    7  C5  UNK     1      -0.519  -1.984   0.316  1.00  0.00     0.312 C 
BRANCH   7   8
HETATM    8  C7  UNK     1      -1.219  -1.700   1.600  1.00  0.00    -0.011 A 
HETATM    9  C12 UNK     1      -0.532  -1.469   2.727  1.00  0.00     0.092 A 
HETATM   10  C19 UNK     1      -1.179  -1.185   4.019  1.00  0.00     0.288 A 
HETATM   11  O1  UNK     1      -2.565  -1.163   4.030  1.00  0.00    -0.275 OA
HETATM   12  O2  UNK     1      -0.517  -0.979   5.030  1.00  0.00    -0.260 OA
HETATM   13  C13 UNK     1      -3.315  -1.401   2.861  1.00  0.00     0.090 A 
HETATM   14  C9  UNK     1      -2.687  -1.670   1.643  1.00  0.00     0.007 A 
HETATM   15  C21 UNK     1      -4.704  -1.354   2.989  1.00  0.00     0.039 A 
HETATM   16  C14 UNK     1      -3.504  -1.896   0.527  1.00  0.00     0.022 A 
HETATM   17  C17 UNK     1      -4.898  -1.853   0.640  1.00  0.00    -0.058 A 
HETATM   18  C22 UNK     1      -5.497  -1.582   1.869  1.00  0.00     0.010 A 
BRANCH  17  19
HETATM   19  C23 UNK     1      -5.748  -2.097  -0.562  1.00  0.00     0.034 C 
HETATM   20  C25 UNK     1      -6.059  -0.812  -1.323  1.00  0.00     0.010 C 
ENDBRANCH  17  19
ENDBRANCH   7   8
ENDBRANCH   1   7
BRANCH   2  21
HETATM   21  C6  UNK     1       1.688   2.113  -2.894  1.00  0.00     0.311 C 
BRANCH  21  22
HETATM   22  C8  UNK     1       3.131   2.470  -2.742  1.00  0.00    -0.024 A 
HETATM   23  C10 UNK     1       4.088   1.984  -3.633  1.00  0.00    -0.054 A 
HETATM   24  C16 UNK     1       5.430   2.330  -3.473  1.00  0.00     0.008 A 
HETATM   25  C18 UNK     1       3.700   1.091  -4.766  1.00  0.00     0.049 C 
HETATM   26  C20 UNK     1       5.815   3.163  -2.422  1.00  0.00     0.007 A 
HETATM   27  C15 UNK     1       4.858   3.649  -1.531  1.00  0.00    -0.061 A 
HETATM   28  C11 UNK     1       3.516   3.303  -1.692  1.00  0.00     0.016 A 
HETATM   29  C24 UNK     1       5.269   4.540  -0.408  1.00  0.00     0.048 C 
ENDBRANCH  21  22
ENDBRANCH   2  21
TORSDOF 5
