REMARK  11 active torsions:
REMARK  status: ('A' for Active; 'I' for Inactive)
REMARK    1  A    between atoms: C13_26  and  O2_7 
REMARK    2  A    between atoms: C19_32  and  O2_7 
REMARK    3  A    between atoms: C17_30  and  O3_8 
REMARK    4  A    between atoms: C20_33  and  O3_8 
REMARK    5  A    between atoms: C14_27  and  N1_12 
REMARK    6  A    between atoms: C4_17  and  N1_12 
REMARK    7  A    between atoms: C14_27  and  N2_13 
REMARK    8  A    between atoms: C7_20  and  N2_13 
REMARK    9  A    between atoms: C13_26  and  C2_15 
REMARK   10  A    between atoms: C17_30  and  C6_19 
REMARK   11  A    between atoms: C16_29  and  C8_21 
ROOT
HETATM    1  S2  UNK     1       1.888  -1.543   1.931  1.00  0.00    -0.040 SA
HETATM    2  C14 UNK     1       1.709  -0.518   0.607  1.00  0.00     0.177 C 
ENDROOT
BRANCH   2   3
HETATM    3  N1  UNK     1       2.828   0.012   0.026  1.00  0.00    -0.326 N 
HETATM    4  H4  UNK     1       3.677  -0.026   0.585  1.00  0.00     0.169 HD
BRANCH   3   5
HETATM    5  C4  UNK     1       2.886   0.858  -1.088  1.00  0.00     0.094 A 
HETATM    6  C2  UNK     1       3.646   1.979  -1.342  1.00  0.00     0.080 A 
HETATM    7  C1  UNK     1       3.371   2.532  -2.626  1.00  0.00    -0.020 A 
HETATM    8  C6  UNK     1       2.412   1.813  -3.304  1.00  0.00     0.089 A 
HETATM    9  C12 UNK     1       4.041   3.741  -3.169  1.00  0.00     0.051 C 
HETATM   10  S1  UNK     1       1.846   0.478  -2.394  1.00  0.00    -0.065 SA
BRANCH   6  11
HETATM   11  C13 UNK     1       4.598   2.500  -0.392  1.00  0.00     0.296 C 
HETATM   12  O4  UNK     1       5.630   3.108  -0.711  1.00  0.00    -0.259 OA
BRANCH  11  13
HETATM   13  O2  UNK     1       4.262   2.262   0.923  1.00  0.00    -0.318 OA
BRANCH  13  14
HETATM   14  C19 UNK     1       5.166   2.753   1.920  1.00  0.00     0.174 C 
HETATM   15  C21 UNK     1       4.629   2.398   3.290  1.00  0.00     0.034 C 
ENDBRANCH  13  14
ENDBRANCH  11  13
ENDBRANCH   6  11
BRANCH   8  16
HETATM   16  C17 UNK     1       1.864   2.038  -4.604  1.00  0.00     0.300 C 
HETATM   17  O5  UNK     1       2.197   2.976  -5.356  1.00  0.00    -0.259 OA
BRANCH  16  18
HETATM   18  O3  UNK     1       0.906   1.117  -4.989  1.00  0.00    -0.317 OA
BRANCH  18  19
HETATM   19  C20 UNK     1       0.315   1.284  -6.283  1.00  0.00     0.174 C 
HETATM   20  C22 UNK     1      -0.699   0.183  -6.507  1.00  0.00     0.034 C 
ENDBRANCH  18  19
ENDBRANCH  16  18
ENDBRANCH   8  16
ENDBRANCH   3   5
ENDBRANCH   2   3
BRANCH   2  21
HETATM   21  N2  UNK     1       0.440  -0.254   0.120  1.00  0.00    -0.333 N 
HETATM   22  H8  UNK     1       0.432   0.050  -0.850  1.00  0.00     0.168 HD
BRANCH  21  23
HETATM   23  C7  UNK     1      -0.808  -0.691   0.564  1.00  0.00     0.036 A 
HETATM   24  C11 UNK     1      -1.712  -1.252  -0.336  1.00  0.00     0.030 A 
HETATM   25  C10 UNK     1      -2.966  -1.692   0.103  1.00  0.00     0.017 A 
HETATM   26  C3  UNK     1      -3.334  -1.577   1.450  1.00  0.00     0.013 A 
HETATM   27  C5  UNK     1      -2.409  -1.011   2.328  1.00  0.00     0.092 A 
HETATM   28  C8  UNK     1      -4.631  -2.016   1.982  1.00  0.00     0.066 A 
HETATM   29  O1  UNK     1      -2.702  -0.859   3.698  1.00  0.00    -0.275 OA
HETATM   30  C9  UNK     1      -1.154  -0.568   1.905  1.00  0.00     0.067 A 
HETATM   31  C18 UNK     1      -3.918  -1.264   4.228  1.00  0.00     0.289 A 
HETATM   32  C15 UNK     1      -4.883  -1.859   3.290  1.00  0.00     0.099 A 
HETATM   33  O6  UNK     1      -4.183  -1.137   5.418  1.00  0.00    -0.260 OA
BRANCH  28  34
HETATM   34  C16 UNK     1      -5.648  -2.629   1.064  1.00  0.00     0.418 C 
HETATM   35  F1  UNK     1      -5.181  -2.686  -0.198  1.00  0.00    -0.166 F 
HETATM   36  F2  UNK     1      -5.953  -3.883   1.452  1.00  0.00    -0.166 F 
HETATM   37  F3  UNK     1      -6.787  -1.908   1.054  1.00  0.00    -0.166 F 
ENDBRANCH  28  34
ENDBRANCH  21  23
ENDBRANCH   2  21
TORSDOF 11
