REMARK  1 active torsions:
REMARK  status: ('A' for Active; 'I' for Inactive)
REMARK    1  A    between atoms: C7_12  and  C8_13 
ROOT
HETATM    1  O1  UNK     1      -2.292  -0.104  -2.329  1.00  0.00    -0.332 OA
HETATM    2  O2  UNK     1      -0.256  -0.531   2.071  1.00  0.00    -0.274 OA
HETATM    3  O3  UNK     1       1.274   0.196  -2.809  1.00  0.00    -0.289 OA
HETATM    4  O4  UNK     1       0.656  -0.819   4.152  1.00  0.00    -0.260 OA
HETATM    5  C6  UNK     1      -1.061  -0.422  -2.982  1.00  0.00     0.125 C 
HETATM    6  C7  UNK     1       0.036   0.252  -0.769  1.00  0.00     0.044 C 
HETATM    7  C9  UNK     1      -1.214  -0.209  -0.144  1.00  0.00     0.048 A 
HETATM    8  C10 UNK     1       0.196   0.040  -2.239  1.00  0.00     0.196 C 
HETATM    9  C11 UNK     1      -2.333  -0.340  -0.979  1.00  0.00     0.084 A 
HETATM   10  C12 UNK     1      -1.121   0.300  -4.335  1.00  0.00     0.055 C 
HETATM   11  C13 UNK     1      -0.980  -1.935  -3.221  1.00  0.00     0.055 C 
HETATM   12  C14 UNK     1      -1.381  -0.545   1.211  1.00  0.00     0.103 A 
HETATM   13  C15 UNK     1      -2.621  -0.926   1.735  1.00  0.00    -0.001 A 
HETATM   14  C16 UNK     1      -3.584  -0.696  -0.464  1.00  0.00     0.039 A 
HETATM   15  C17 UNK     1      -3.729  -0.986   0.891  1.00  0.00     0.017 A 
HETATM   16  C18 UNK     1      -2.730  -1.253   3.148  1.00  0.00     0.020 A 
HETATM   17  C19 UNK     1      -1.656  -1.215   3.940  1.00  0.00     0.083 A 
HETATM   18  C20 UNK     1      -0.329  -0.846   3.423  1.00  0.00     0.288 A 
ENDROOT
BRANCH   6  19
HETATM   19  C8  UNK     1       0.997   0.957  -0.152  1.00  0.00     0.101 C 
HETATM   20  N1  UNK     1       2.171   1.408  -0.682  1.00  0.00    -0.389 N 
HETATM   21  C1  UNK     1       2.263   2.674  -1.411  1.00  0.00     0.122 C 
HETATM   22  C2  UNK     1       3.399   0.612  -0.649  1.00  0.00     0.122 C 
HETATM   23  C3  UNK     1       3.383   3.532  -0.825  1.00  0.00     0.020 C 
HETATM   24  C5  UNK     1       4.704   2.767  -0.781  1.00  0.00     0.003 C 
HETATM   25  C4  UNK     1       4.537   1.437  -0.049  1.00  0.00     0.020 C 
ENDBRANCH   6  19
TORSDOF 1
