REMARK  2 active torsions:
REMARK  status: ('A' for Active; 'I' for Inactive)
REMARK    1  A    between atoms: C3_7  and  N1_3 
REMARK    2  A    between atoms: C2_6  and  C3_7 
ROOT
HETATM    1  O1  UNK     1      -0.044   0.432  -2.673  1.00  0.00    -0.275 OA
HETATM    2  O2  UNK     1      -2.107  -0.510  -2.963  1.00  0.00    -0.260 OA
HETATM    3  C1  UNK     1       0.886   0.604  -0.421  1.00  0.00     0.012 A 
HETATM    4  C2  UNK     1      -0.330  -0.034   0.103  1.00  0.00    -0.021 A 
HETATM    5  C4  UNK     1       1.958   1.014   0.383  1.00  0.00    -0.048 A 
HETATM    6  C5  UNK     1       0.990   0.817  -1.796  1.00  0.00     0.091 A 
HETATM    7  C6  UNK     1       3.164   1.816  -1.560  1.00  0.00    -0.059 A 
HETATM    8  C7  UNK     1       3.088   1.616  -0.183  1.00  0.00     0.014 A 
HETATM    9  C8  UNK     1       2.110   1.416  -2.376  1.00  0.00     0.045 A 
HETATM   10  C9  UNK     1      -1.297  -0.389  -0.755  1.00  0.00     0.092 A 
HETATM   11  C10 UNK     1       2.015   0.861   1.870  1.00  0.00     0.049 C 
HETATM   12  C11 UNK     1      -1.202  -0.171  -2.208  1.00  0.00     0.288 A 
HETATM   13  C12 UNK     1       4.371   2.456  -2.157  1.00  0.00     0.048 C 
ENDROOT
BRANCH   4  14
HETATM   14  C3  UNK     1      -0.549  -0.306   1.564  1.00  0.00     0.168 C 
BRANCH  14  15
HETATM   15  N1  UNK     1      -1.835  -0.944   1.799  1.00  0.00    -0.346 N 
HETATM   16  C13 UNK     1      -2.069  -2.283   1.814  1.00  0.00     0.111 A 
HETATM   17  C15 UNK     1      -3.415  -2.391   2.074  1.00  0.00     0.135 A 
HETATM   18  N2  UNK     1      -3.994  -1.155   2.214  1.00  0.00    -0.255 NA
HETATM   19  C14 UNK     1      -3.009  -0.302   2.043  1.00  0.00     0.209 A 
ENDBRANCH  14  15
ENDBRANCH   4  14
TORSDOF 2
