REMARK  3 active torsions:
REMARK  status: ('A' for Active; 'I' for Inactive)
REMARK    1  A    between atoms: C12_16  and  O2_2 
REMARK    2  A    between atoms: C6_10  and  O2_2 
REMARK    3  A    between atoms: C11_15  and  C12_16 
ROOT
HETATM    1  O1  UNK     1      -2.320  -0.612  -0.751  1.00  0.00    -0.275 OA
HETATM    2  O3  UNK     1      -4.197  -1.908  -0.589  1.00  0.00    -0.260 OA
HETATM    3  C1  UNK     1      -0.876  -0.350   1.203  1.00  0.00     0.004 A 
HETATM    4  C2  UNK     1      -1.173  -0.074  -0.132  1.00  0.00     0.092 A 
HETATM    5  C3  UNK     1      -1.787  -1.220   1.961  1.00  0.00    -0.043 A 
HETATM    6  C4  UNK     1       0.282   0.223   1.743  1.00  0.00     0.017 A 
HETATM    7  C5  UNK     1      -0.362   0.741  -0.923  1.00  0.00     0.075 A 
HETATM    8  C6  UNK     1       0.784   1.301  -0.368  1.00  0.00     0.082 A 
HETATM    9  C7  UNK     1       1.106   1.042   0.963  1.00  0.00     0.038 A 
HETATM   10  C8  UNK     1      -2.870  -1.717   1.347  1.00  0.00     0.090 A 
HETATM   11  C9  UNK     1      -1.496  -1.536   3.398  1.00  0.00     0.049 C 
HETATM   12  C10 UNK     1      -3.196  -1.435  -0.061  1.00  0.00     0.288 A 
ENDROOT
BRANCH   8  13
HETATM   13  O2  UNK     1       1.589   2.099  -1.122  1.00  0.00    -0.279 OA
BRANCH  13  14
HETATM   14  C12 UNK     1       2.609   1.410  -1.806  1.00  0.00     0.263 C 
HETATM   15  O4  UNK     1       2.798   0.202  -1.762  1.00  0.00    -0.265 OA
BRANCH  14  16
HETATM   16  C11 UNK     1       3.432   2.396  -2.604  1.00  0.00     0.107 C 
HETATM   17  C13 UNK     1       4.541   1.713  -3.385  1.00  0.00     0.015 C 
ENDBRANCH  14  16
ENDBRANCH  13  14
ENDBRANCH   8  13
TORSDOF 3
