REMARK  8 active torsions:
REMARK  status: ('A' for Active; 'I' for Inactive)
REMARK    1  A    between atoms: C2_7  and  O1_1 
REMARK    2  A    between atoms: C8_13  and  O1_1 
REMARK    3  A    between atoms: C3_8  and  O2_2 
REMARK    4  A    between atoms: C12_17  and  N1_5 
REMARK       I    between atoms: C21_26  and  N1_5 
REMARK    5  A    between atoms: C1_6  and  C2_7 
REMARK    6  A    between atoms: C5_10  and  C9_14 
REMARK    7  A    between atoms: C15_20  and  C16_21 
REMARK    8  A    between atoms: C16_21  and  C17_22 
ROOT
HETATM    1  C1  UNK     1      -1.872  -0.599  -1.036  1.00  0.00     0.000 A 
HETATM    2  C3  UNK     1      -1.726  -1.986  -1.085  1.00  0.00     0.076 A 
HETATM    3  C4  UNK     1      -2.891  -0.032  -0.271  1.00  0.00     0.023 A 
HETATM    4  C5  UNK     1      -3.764  -0.851   0.445  1.00  0.00    -0.035 A 
HETATM    5  C6  UNK     1      -2.599  -2.805  -0.369  1.00  0.00     0.038 A 
HETATM    6  C7  UNK     1      -3.618  -2.237   0.396  1.00  0.00     0.014 A 
ENDROOT
BRANCH   1   7
HETATM    7  C2  UNK     1      -0.946   0.292  -1.797  1.00  0.00     0.217 C 
BRANCH   7   8
HETATM    8  O1  UNK     1       0.309   0.345  -1.131  1.00  0.00    -0.347 OA
BRANCH   8   9
HETATM    9  C8  UNK     1       1.267   1.154  -1.684  1.00  0.00     0.069 A 
HETATM   10  C10 UNK     1       0.987   1.877  -2.843  1.00  0.00     0.039 A 
HETATM   11  C13 UNK     1       1.962   2.701  -3.405  1.00  0.00     0.032 A 
HETATM   12  C12 UNK     1       3.218   2.803  -2.806  1.00  0.00     0.034 A 
HETATM   13  C14 UNK     1       3.498   2.080  -1.647  1.00  0.00     0.032 A 
HETATM   14  C11 UNK     1       2.523   1.256  -1.085  1.00  0.00     0.039 A 
BRANCH  12  15
HETATM   15  N1  UNK     1       4.193   3.627  -3.367  1.00  0.00    -0.328 N 
HETATM   16  C21 UNK     1       5.499   3.856  -2.913  1.00  0.00     0.218 C 
HETATM   17  O4  UNK     1       6.042   3.367  -1.928  1.00  0.00    -0.274 OA
HETATM   18  C25 UNK     1       6.240   4.820  -3.805  1.00  0.00     0.117 C 
HETATM   19  H12 UNK     1       3.911   4.121  -4.212  1.00  0.00     0.169 HD
ENDBRANCH  12  15
ENDBRANCH   8   9
ENDBRANCH   7   8
ENDBRANCH   1   7
BRANCH   2  20
HETATM   20  O2  UNK     1      -0.736  -2.556  -1.828  1.00  0.00    -0.355 OA
HETATM   21  C18 UNK     1      -0.661  -3.981  -1.820  1.00  0.00     0.210 C 
ENDBRANCH   2  20
BRANCH   4  22
HETATM   22  C9  UNK     1      -4.842  -0.253   1.253  1.00  0.00     0.015 C 
HETATM   23  C15 UNK     1      -4.646   0.595   2.273  1.00  0.00     0.056 C 
BRANCH  23  24
HETATM   24  C16 UNK     1      -3.255   1.005   2.672  1.00  0.00     0.182 C 
HETATM   25  O3  UNK     1      -2.918   2.198   2.641  1.00  0.00    -0.288 OA
BRANCH  24  26
HETATM   26  C17 UNK     1      -2.329  -0.021   3.122  1.00  0.00     0.014 A 
HETATM   27  C19 UNK     1      -2.809  -1.161   3.767  1.00  0.00     0.015 A 
HETATM   28  C22 UNK     1      -1.920  -2.146   4.197  1.00  0.00     0.001 A 
HETATM   29  C24 UNK     1      -0.551  -1.991   3.982  1.00  0.00     0.000 A 
HETATM   30  C23 UNK     1      -0.070  -0.852   3.337  1.00  0.00     0.001 A 
HETATM   31  C20 UNK     1      -0.959   0.133   2.907  1.00  0.00     0.015 A 
ENDBRANCH  24  26
ENDBRANCH  23  24
ENDBRANCH   4  22
TORSDOF 8
