REMARK  7 active torsions:
REMARK  status: ('A' for Active; 'I' for Inactive)
REMARK    1  A    between atoms: C11_20  and  O3_4 
REMARK       I    between atoms: C4_13  and  N1_8 
REMARK    2  A    between atoms: C5_14  and  N1_8 
REMARK    3  A    between atoms: C6_15  and  N1_8 
REMARK       I    between atoms: C12_21  and  N2_9 
REMARK    4  A    between atoms: C7_16  and  N2_9 
REMARK    5  A    between atoms: C1_10  and  C4_13 
REMARK    6  A    between atoms: C11_20  and  C3_12 
REMARK    7  A    between atoms: C12_21  and  C13_22 
ROOT
HETATM    1  S1  UNK     1      -2.201  -0.092  -0.087  1.00  0.00    -0.065 SA
HETATM    2  C1  UNK     1      -2.983  -0.800   1.263  1.00  0.00     0.082 A 
HETATM    3  C2  UNK     1      -2.127  -0.962   2.330  1.00  0.00    -0.020 A 
HETATM    4  C3  UNK     1      -0.812  -0.499   2.036  1.00  0.00     0.080 A 
HETATM    5  C7  UNK     1      -0.735  -0.013   0.770  1.00  0.00     0.094 A 
HETATM    6  C8  UNK     1      -2.528  -1.549   3.633  1.00  0.00     0.051 C 
ENDROOT
BRANCH   5   7
HETATM    7  N2  UNK     1       0.346   0.535   0.073  1.00  0.00    -0.316 N 
HETATM    8  C12 UNK     1       0.323   1.009  -1.232  1.00  0.00     0.262 C 
HETATM    9  O5  UNK     1      -0.622   1.045  -2.018  1.00  0.00    -0.267 OA
HETATM   10  H8  UNK     1       1.218   0.554   0.593  1.00  0.00     0.169 HD
BRANCH   8  11
HETATM   11  C13 UNK     1       1.634   1.516  -1.653  1.00  0.00     0.108 A 
HETATM   12  C15 UNK     1       1.918   1.413  -2.956  1.00  0.00     0.037 A 
HETATM   13  C14 UNK     1       3.193   1.887  -3.469  1.00  0.00    -0.001 A 
HETATM   14  C16 UNK     1       4.109   2.447  -2.584  1.00  0.00     0.089 A 
HETATM   15  C18 UNK     1       3.531   1.800  -4.822  1.00  0.00     0.014 A 
HETATM   16  O2  UNK     1       3.805   2.553  -1.213  1.00  0.00    -0.274 OA
HETATM   17  C19 UNK     1       5.348   2.920  -3.011  1.00  0.00     0.038 A 
HETATM   18  C17 UNK     1       2.593   2.108  -0.692  1.00  0.00     0.304 A 
HETATM   19  O6  UNK     1       2.337   2.204   0.503  1.00  0.00    -0.259 OA
HETATM   20  C21 UNK     1       5.677   2.829  -4.361  1.00  0.00     0.003 A 
HETATM   21  C20 UNK     1       4.771   2.270  -5.265  1.00  0.00     0.001 A 
ENDBRANCH   8  11
ENDBRANCH   5   7
BRANCH   4  22
HETATM   22  C11 UNK     1       0.309  -0.531   2.943  1.00  0.00     0.296 C 
HETATM   23  O4  UNK     1       0.249  -0.973   4.099  1.00  0.00    -0.259 OA
BRANCH  22  24
HETATM   24  O3  UNK     1       1.473  -0.021   2.411  1.00  0.00    -0.322 OA
HETATM   25  C22 UNK     1       2.627  -0.023   3.259  1.00  0.00     0.213 C 
ENDBRANCH  22  24
ENDBRANCH   4  22
BRANCH   2  26
HETATM   26  C4  UNK     1      -4.367  -1.133   1.155  1.00  0.00     0.261 C 
HETATM   27  N1  UNK     1      -4.726  -2.429   0.685  1.00  0.00    -0.348 N 
HETATM   28  O1  UNK     1      -5.262  -0.317   1.464  1.00  0.00    -0.267 OA
BRANCH  27  29
HETATM   29  C5  UNK     1      -3.754  -3.443   0.277  1.00  0.00     0.121 C 
HETATM   30  C9  UNK     1      -3.428  -3.337  -1.198  1.00  0.00     0.026 C 
ENDBRANCH  27  29
BRANCH  27  31
HETATM   31  C6  UNK     1      -6.125  -2.816   0.560  1.00  0.00     0.121 C 
HETATM   32  C10 UNK     1      -6.643  -3.447   1.836  1.00  0.00     0.026 C 
ENDBRANCH  27  31
ENDBRANCH   2  26
TORSDOF 7
