REMARK  3 active torsions:
REMARK  status: ('A' for Active; 'I' for Inactive)
REMARK    1  A    between atoms: C10_14  and  O3_3 
REMARK    2  A    between atoms: C13_17  and  O4_4 
REMARK    3  A    between atoms: C3_7  and  C4_8 
ROOT
HETATM    1  O1  UNK     1      -0.259   0.827   0.433  1.00  0.00    -0.309 OA
HETATM    2  O2  UNK     1      -2.082  -2.377  -1.302  1.00  0.00    -0.287 OA
HETATM    3  C1  UNK     1      -1.930  -0.932   0.561  1.00  0.00     0.051 A 
HETATM    4  C2  UNK     1      -1.265   0.171   1.096  1.00  0.00     0.090 A 
HETATM    5  C3  UNK     1       0.116   0.366  -0.820  1.00  0.00     0.090 A 
HETATM    6  C5  UNK     1      -1.540  -1.417  -0.771  1.00  0.00     0.187 A 
HETATM    7  C6  UNK     1      -0.451  -0.679  -1.442  1.00  0.00     0.093 A 
HETATM    8  C7  UNK     1      -2.947  -1.561   1.282  1.00  0.00     0.054 A 
HETATM    9  C8  UNK     1      -1.616   0.652   2.357  1.00  0.00     0.041 A 
HETATM   10  C10 UNK     1      -3.296  -1.078   2.544  1.00  0.00     0.066 A 
HETATM   11  C12 UNK     1      -2.632   0.027   3.080  1.00  0.00     0.039 A 
ENDROOT
BRANCH   5  12
HETATM   12  C4  UNK     1       1.202   1.147  -1.445  1.00  0.00     0.001 A 
HETATM   13  C11 UNK     1       1.266   1.271  -2.835  1.00  0.00     0.014 A 
HETATM   14  C14 UNK     1       2.291   2.009  -3.427  1.00  0.00     0.004 A 
HETATM   15  C15 UNK     1       3.256   2.625  -2.630  1.00  0.00     0.036 A 
HETATM   16  C13 UNK     1       3.196   2.503  -1.242  1.00  0.00     0.066 A 
HETATM   17  C9  UNK     1       2.171   1.766  -0.651  1.00  0.00     0.050 A 
BRANCH  16  18
HETATM   18  O4  UNK     1       4.138   3.104  -0.465  1.00  0.00    -0.361 OA
HETATM   19  H10 UNK     1       4.769   3.571  -1.040  1.00  0.00     0.217 HD
ENDBRANCH  16  18
ENDBRANCH   5  12
BRANCH  10  20
HETATM   20  O3  UNK     1      -4.287  -1.685   3.254  1.00  0.00    -0.361 OA
HETATM   21  H9  UNK     1      -4.637  -2.429   2.734  1.00  0.00     0.217 HD
ENDBRANCH  10  20
TORSDOF 3
