REMARK  2 active torsions:
REMARK  status: ('A' for Active; 'I' for Inactive)
REMARK    1  A    between atoms: C6_12  and  S1_1 
REMARK    2  A    between atoms: N1_6  and  S1_1 
ROOT
HETATM    1  O3  UNK     1       3.215   0.618  -1.717  1.00  0.00    -0.275 OA
HETATM    2  O4  UNK     1       4.991   2.064  -1.755  1.00  0.00    -0.260 OA
HETATM    3  C6  UNK     1      -0.817  -0.095  -0.986  1.00  0.00     0.075 A 
HETATM    4  C7  UNK     1      -0.319   1.185  -0.778  1.00  0.00     0.039 A 
HETATM    5  C8  UNK     1      -0.005  -1.129  -1.429  1.00  0.00     0.027 A 
HETATM    6  C9  UNK     1       1.033   1.440  -1.020  1.00  0.00    -0.001 A 
HETATM    7  C10 UNK     1       1.846   0.400  -1.464  1.00  0.00     0.089 A 
HETATM    8  C11 UNK     1       1.345  -0.883  -1.672  1.00  0.00     0.040 A 
HETATM    9  C12 UNK     1       1.622   2.754  -0.824  1.00  0.00     0.020 A 
HETATM   10  C13 UNK     1       2.920   2.952  -1.067  1.00  0.00     0.083 A 
HETATM   11  C14 UNK     1       3.800   1.867  -1.537  1.00  0.00     0.288 A 
ENDROOT
BRANCH   3  12
HETATM   12  S1  UNK     1      -2.526  -0.413  -0.679  1.00  0.00     0.243 S 
HETATM   13  O1  UNK     1      -3.238   0.841  -0.791  1.00  0.00    -0.206 OA
HETATM   14  O2  UNK     1      -2.913  -1.564  -1.465  1.00  0.00    -0.206 OA
BRANCH  12  15
HETATM   15  N1  UNK     1      -2.452  -0.868   0.972  1.00  0.00    -0.206 NA
HETATM   16  C1  UNK     1      -1.908   0.172   1.895  1.00  0.00     0.107 C 
HETATM   17  C3  UNK     1      -2.216  -0.214   3.339  1.00  0.00     0.015 C 
HETATM   18  C5  UNK     1      -1.670  -1.600   3.671  1.00  0.00     0.002 C 
HETATM   19  C4  UNK     1      -2.176  -2.635   2.670  1.00  0.00     0.015 C 
HETATM   20  C2  UNK     1      -1.868  -2.215   1.236  1.00  0.00     0.107 C 
ENDBRANCH  12  15
ENDBRANCH   3  12
TORSDOF 2
