REMARK  4 active torsions:
REMARK  status: ('A' for Active; 'I' for Inactive)
REMARK    1  A    between atoms: C5_10  and  O2_2 
REMARK    2  A    between atoms: C11_16  and  O3_3 
REMARK    3  A    between atoms: C12_17  and  O4_4 
REMARK    4  A    between atoms: C1_6  and  C2_7 
ROOT
HETATM    1  O1  UNK     1      -0.865   0.377  -0.209  1.00  0.00    -0.309 OA
HETATM    2  O5  UNK     1       0.436  -1.089   3.362  1.00  0.00    -0.287 OA
HETATM    3  C1  UNK     1       0.397   0.673   0.282  1.00  0.00     0.093 A 
HETATM    4  C3  UNK     1      -1.307  -0.958   1.771  1.00  0.00     0.048 A 
HETATM    5  C4  UNK     1      -1.688  -0.424   0.541  1.00  0.00     0.093 A 
HETATM    6  C6  UNK     1       0.881   0.215   1.448  1.00  0.00     0.094 A 
HETATM    7  C7  UNK     1       0.035  -0.652   2.292  1.00  0.00     0.187 A 
HETATM    8  C8  UNK     1      -2.954  -0.699   0.024  1.00  0.00     0.075 A 
HETATM    9  C10 UNK     1      -2.186  -1.768   2.493  1.00  0.00     0.021 A 
HETATM   10  C12 UNK     1      -3.835  -1.509   0.741  1.00  0.00     0.070 A 
HETATM   11  C13 UNK     1      -3.452  -2.042   1.973  1.00  0.00     0.038 A 
ENDROOT
BRANCH   3  12
HETATM   12  C2  UNK     1       1.200   1.536  -0.607  1.00  0.00     0.034 A 
HETATM   13  C5  UNK     1       2.019   0.993  -1.602  1.00  0.00     0.114 A 
HETATM   14  C11 UNK     1       2.768   1.830  -2.430  1.00  0.00     0.102 A 
HETATM   15  C15 UNK     1       2.702   3.213  -2.266  1.00  0.00     0.040 A 
HETATM   16  C14 UNK     1       1.886   3.760  -1.275  1.00  0.00     0.004 A 
HETATM   17  C9  UNK     1       1.137   2.923  -0.448  1.00  0.00     0.017 A 
BRANCH  13  18
HETATM   18  O2  UNK     1       2.094  -0.359  -1.773  1.00  0.00    -0.352 OA
HETATM   19  C16 UNK     1       1.704  -0.872  -3.044  1.00  0.00     0.210 C 
ENDBRANCH  13  18
BRANCH  14  20
HETATM   20  O3  UNK     1       3.569   1.310  -3.401  1.00  0.00    -0.353 OA
HETATM   21  C17 UNK     1       4.916   1.012  -3.040  1.00  0.00     0.210 C 
ENDBRANCH  14  20
ENDBRANCH   3  12
BRANCH  10  22
HETATM   22  O4  UNK     1      -5.072  -1.778   0.240  1.00  0.00    -0.356 OA
HETATM   23  C18 UNK     1      -5.923  -2.612   1.024  1.00  0.00     0.210 C 
ENDBRANCH  10  22
TORSDOF 4
