REMARK  4 active torsions:
REMARK  status: ('A' for Active; 'I' for Inactive)
REMARK    1  A    between atoms: C10_17  and  O1_2 
REMARK       I    between atoms: C11_18  and  N1_7 
REMARK    2  A    between atoms: C9_16  and  N1_7 
REMARK    3  A    between atoms: C10_17  and  C8_15 
REMARK    4  A    between atoms: C11_18  and  C12_19 
ROOT
HETATM    1  O3  UNK     1      -0.321  -0.032  -2.547  1.00  0.00    -0.267 OA
HETATM    2  N1  UNK     1      -0.041   0.021  -0.198  1.00  0.00    -0.316 N 
HETATM    3  C11 UNK     1       0.318   0.232  -1.536  1.00  0.00     0.262 C 
HETATM    4  H11 UNK     1       0.602   0.316   0.532  1.00  0.00     0.169 HD
ENDROOT
BRANCH   2   5
HETATM    5  C9  UNK     1      -1.205  -0.535   0.259  1.00  0.00     0.094 A 
HETATM    6  C8  UNK     1      -1.655  -0.786   1.537  1.00  0.00     0.080 A 
HETATM    7  C5  UNK     1      -2.949  -1.388   1.545  1.00  0.00    -0.026 A 
HETATM    8  C4  UNK     1      -3.743  -1.775   2.753  1.00  0.00     0.041 C 
HETATM    9  C6  UNK     1      -3.430  -1.563   0.262  1.00  0.00    -0.008 A 
HETATM   10  C2  UNK     1      -4.897  -2.727   2.397  1.00  0.00     0.009 C 
HETATM   11  C1  UNK     1      -5.669  -2.246   1.149  1.00  0.00    -0.014 C 
HETATM   12  C3  UNK     1      -4.744  -2.190  -0.089  1.00  0.00     0.051 C 
HETATM   13  C7  UNK     1      -6.872  -3.145   0.876  1.00  0.00     0.010 C 
HETATM   14  S1  UNK     1      -2.339  -1.022  -0.929  1.00  0.00    -0.075 SA
BRANCH   6  15
HETATM   15  C10 UNK     1      -0.878  -0.458   2.707  1.00  0.00     0.296 C 
HETATM   16  O2  UNK     1       0.359  -0.439   2.774  1.00  0.00    -0.259 OA
BRANCH  15  17
HETATM   17  O1  UNK     1      -1.681  -0.156   3.782  1.00  0.00    -0.322 OA
HETATM   18  C16 UNK     1      -1.020   0.188   5.005  1.00  0.00     0.213 C 
ENDBRANCH  15  17
ENDBRANCH   6  15
ENDBRANCH   2   5
BRANCH   3  19
HETATM   19  C12 UNK     1       1.651   0.856  -1.671  1.00  0.00     0.108 A 
HETATM   20  C13 UNK     1       1.832   1.638  -2.742  1.00  0.00     0.037 A 
HETATM   21  C14 UNK     1       3.111   2.295  -2.962  1.00  0.00    -0.001 A 
HETATM   22  C17 UNK     1       4.137   2.097  -2.043  1.00  0.00     0.089 A 
HETATM   23  C18 UNK     1       3.345   3.120  -4.065  1.00  0.00     0.014 A 
HETATM   24  O4  UNK     1       3.940   1.273  -0.917  1.00  0.00    -0.274 OA
HETATM   25  C19 UNK     1       5.385   2.697  -2.195  1.00  0.00     0.038 A 
HETATM   26  C15 UNK     1       2.728   0.631  -0.680  1.00  0.00     0.304 A 
HETATM   27  O5  UNK     1       2.566  -0.085   0.302  1.00  0.00    -0.259 OA
HETATM   28  C21 UNK     1       5.610   3.518  -3.299  1.00  0.00     0.003 A 
HETATM   29  C20 UNK     1       4.592   3.729  -4.232  1.00  0.00     0.001 A 
ENDBRANCH   3  19
TORSDOF 4
