REMARK  4 active torsions:
REMARK  status: ('A' for Active; 'I' for Inactive)
REMARK    1  A    between atoms: C5_11  and  O2_2 
REMARK       I    between atoms: C7_13  and  N1_5 
REMARK    2  A    between atoms: C8_14  and  N1_5 
REMARK    3  A    between atoms: C3_9  and  C7_13 
REMARK    4  A    between atoms: C12_18  and  C8_14 
ROOT
HETATM    1  O1  UNK     1       0.913   0.899  -2.071  1.00  0.00    -0.271 OA
HETATM    2  O4  UNK     1      -0.918  -0.358  -1.534  1.00  0.00    -0.259 OA
HETATM    3  C1  UNK     1       2.537   1.451  -0.349  1.00  0.00     0.002 A 
HETATM    4  C2  UNK     1       2.108   1.526  -1.670  1.00  0.00     0.123 A 
HETATM    5  C3  UNK     1       0.596   0.120   0.225  1.00  0.00     0.108 A 
HETATM    6  C4  UNK     1       1.731   0.715   0.612  1.00  0.00     0.037 A 
HETATM    7  C5  UNK     1       2.834   2.217  -2.639  1.00  0.00     0.102 A 
HETATM    8  C6  UNK     1       3.728   2.086   0.010  1.00  0.00     0.014 A 
HETATM    9  C9  UNK     1       0.121   0.186  -1.175  1.00  0.00     0.304 A 
HETATM   10  C10 UNK     1       4.020   2.847  -2.273  1.00  0.00     0.040 A 
HETATM   11  C11 UNK     1       4.467   2.783  -0.951  1.00  0.00     0.004 A 
ENDROOT
BRANCH   5  12
HETATM   12  C7  UNK     1      -0.147  -0.599   1.267  1.00  0.00     0.258 C 
HETATM   13  O3  UNK     1      -0.098  -0.237   2.441  1.00  0.00    -0.267 OA
HETATM   14  N1  UNK     1      -0.863  -1.674   0.772  1.00  0.00    -0.351 N 
HETATM   15  H5  UNK     1      -0.826  -1.902  -0.217  1.00  0.00     0.163 HD
BRANCH  14  16
HETATM   16  C8  UNK     1      -1.670  -2.535   1.607  1.00  0.00     0.182 C 
BRANCH  16  17
HETATM   17  C12 UNK     1      -3.095  -2.069   1.683  1.00  0.00     0.051 A 
HETATM   18  N2  UNK     1      -3.388  -1.206   2.676  1.00  0.00    -0.264 NA
HETATM   19  C15 UNK     1      -4.673  -0.789   2.739  1.00  0.00     0.117 A 
HETATM   20  C16 UNK     1      -5.664  -1.195   1.861  1.00  0.00     0.019 A 
HETATM   21  C14 UNK     1      -5.315  -2.087   0.852  1.00  0.00     0.003 A 
HETATM   22  C13 UNK     1      -4.004  -2.538   0.754  1.00  0.00     0.029 A 
ENDBRANCH  16  17
ENDBRANCH  14  16
ENDBRANCH   5  12
BRANCH   7  23
HETATM   23  O2  UNK     1       2.403   2.282  -3.927  1.00  0.00    -0.353 OA
HETATM   24  C17 UNK     1       2.843   1.254  -4.814  1.00  0.00     0.210 C 
ENDBRANCH   7  23
TORSDOF 4
