REMARK  4 active torsions:
REMARK  status: ('A' for Active; 'I' for Inactive)
REMARK    1  A    between atoms: C17_23  and  O4_4 
REMARK    2  A    between atoms: C5_11  and  N1_6 
REMARK       I    between atoms: C6_12  and  N1_6 
REMARK    3  A    between atoms: C2_8  and  C6_12 
REMARK    4  A    between atoms: C17_23  and  C7_13 
ROOT
HETATM    1  O2  UNK     1      -1.380   0.264  -2.377  1.00  0.00    -0.267 OA
HETATM    2  N1  UNK     1      -1.176  -0.340  -0.110  1.00  0.00    -0.322 N 
HETATM    3  C6  UNK     1      -0.768   0.224  -1.311  1.00  0.00     0.262 C 
HETATM    4  H2  UNK     1      -0.530  -0.301   0.672  1.00  0.00     0.169 HD
ENDROOT
BRANCH   3   5
HETATM    5  C2  UNK     1       0.567   0.826  -1.215  1.00  0.00     0.108 A 
HETATM    6  C9  UNK     1       1.080   1.401   0.049  1.00  0.00     0.304 A 
HETATM    7  O1  UNK     1       2.362   1.944   0.014  1.00  0.00    -0.274 OA
HETATM    8  O3  UNK     1       0.414   1.400   1.079  1.00  0.00    -0.259 OA
HETATM    9  C3  UNK     1       3.135   1.949  -1.163  1.00  0.00     0.089 A 
HETATM   10  C1  UNK     1       2.633   1.405  -2.341  1.00  0.00    -0.001 A 
HETATM   11  C10 UNK     1       4.407   2.515  -1.099  1.00  0.00     0.038 A 
HETATM   12  C8  UNK     1       3.431   1.428  -3.488  1.00  0.00     0.014 A 
HETATM   13  C4  UNK     1       1.297   0.829  -2.337  1.00  0.00     0.037 A 
HETATM   14  C12 UNK     1       4.709   1.993  -3.439  1.00  0.00     0.001 A 
HETATM   15  C14 UNK     1       5.195   2.535  -2.248  1.00  0.00     0.003 A 
ENDBRANCH   3   5
BRANCH   2  16
HETATM   16  C5  UNK     1      -2.398  -1.002   0.162  1.00  0.00     0.051 A 
HETATM   17  C11 UNK     1      -3.323  -1.123  -0.863  1.00  0.00     0.030 A 
HETATM   18  C15 UNK     1      -4.534  -1.770  -0.617  1.00  0.00     0.002 A 
HETATM   19  C16 UNK     1      -4.803  -2.289   0.649  1.00  0.00     0.001 A 
HETATM   20  C13 UNK     1      -3.862  -2.160   1.670  1.00  0.00     0.020 A 
HETATM   21  C7  UNK     1      -2.651  -1.512   1.425  1.00  0.00     0.066 A 
BRANCH  21  22
HETATM   22  C17 UNK     1      -1.689  -1.396   2.514  1.00  0.00     0.295 C 
HETATM   23  O5  UNK     1      -0.463  -1.355   2.359  1.00  0.00    -0.259 OA
BRANCH  22  24
HETATM   24  O4  UNK     1      -2.314  -1.336   3.728  1.00  0.00    -0.322 OA
HETATM   25  C18 UNK     1      -1.472  -1.218   4.880  1.00  0.00     0.213 C 
ENDBRANCH  22  24
ENDBRANCH  21  22
ENDBRANCH   2  16
TORSDOF 4
