REMARK  3 active torsions:
REMARK  status: ('A' for Active; 'I' for Inactive)
REMARK    1  A    between atoms: C14_19  and  O4_4 
REMARK    2  A    between atoms: C1_6  and  N1_5 
REMARK       I    between atoms: C6_11  and  N1_5 
REMARK    3  A    between atoms: C6_11  and  C7_12 
ROOT
HETATM    1  O2  UNK     1      -0.079   0.107  -2.132  1.00  0.00    -0.274 OA
HETATM    2  O3  UNK     1      -1.836  -1.006  -1.188  1.00  0.00    -0.259 OA
HETATM    3  C7  UNK     1      -0.172  -0.199   0.293  1.00  0.00     0.108 A 
HETATM    4  C8  UNK     1       0.986   0.454   0.447  1.00  0.00     0.037 A 
HETATM    5  C9  UNK     1       1.690   0.981  -0.711  1.00  0.00     0.002 A 
HETATM    6  C10 UNK     1      -0.775  -0.409  -1.042  1.00  0.00     0.304 A 
HETATM    7  C11 UNK     1       1.140   0.795  -1.976  1.00  0.00     0.089 A 
HETATM    8  C12 UNK     1       2.901   1.670  -0.597  1.00  0.00     0.051 A 
HETATM    9  C13 UNK     1       1.764   1.276  -3.125  1.00  0.00     0.041 A 
HETATM   10  C14 UNK     1       3.538   2.158  -1.742  1.00  0.00     0.069 A 
HETATM   11  C15 UNK     1       2.971   1.961  -3.003  1.00  0.00     0.039 A 
ENDROOT
BRANCH   3  12
HETATM   12  C6  UNK     1      -0.806  -0.694   1.520  1.00  0.00     0.258 C 
HETATM   13  O1  UNK     1      -0.129  -1.018   2.494  1.00  0.00    -0.267 OA
HETATM   14  N1  UNK     1      -2.186  -0.743   1.431  1.00  0.00    -0.352 N 
HETATM   15  H10 UNK     1      -2.647  -0.459   0.572  1.00  0.00     0.163 HD
BRANCH  14  16
HETATM   16  C1  UNK     1      -3.028  -1.197   2.510  1.00  0.00     0.084 C 
HETATM   17  C2  UNK     1      -3.329  -2.686   2.399  1.00  0.00     0.025 C 
HETATM   18  C4  UNK     1      -4.477  -2.772   1.396  1.00  0.00     0.002 C 
HETATM   19  C5  UNK     1      -5.198  -1.425   1.463  1.00  0.00     0.002 C 
HETATM   20  C3  UNK     1      -4.414  -0.567   2.453  1.00  0.00     0.025 C 
ENDBRANCH  14  16
ENDBRANCH   3  12
BRANCH  10  21
HETATM   21  O4  UNK     1       4.718   2.827  -1.627  1.00  0.00    -0.356 OA
HETATM   22  C16 UNK     1       5.317   3.298  -2.833  1.00  0.00     0.210 C 
ENDBRANCH  10  21
TORSDOF 3
