REMARK  8 active torsions:
REMARK  status: ('A' for Active; 'I' for Inactive)
REMARK    1  A    between atoms: C11_18  and  O2_3 
REMARK    2  A    between atoms: C15_22  and  O2_3 
REMARK    3  A    between atoms: C14_21  and  O4_5 
REMARK    4  A    between atoms: C16_23  and  O4_5 
REMARK    5  A    between atoms: C2_9  and  C4_11 
REMARK    6  A    between atoms: C4_11  and  C7_14 
REMARK    7  A    between atoms: C14_21  and  C7_14 
REMARK    8  A    between atoms: C15_22  and  C17_24 
ROOT
HETATM    1  O1  UNK     1      -0.133  -1.571  -0.710  1.00  0.00    -0.274 OA
HETATM    2  O3  UNK     1      -1.417  -3.273   0.069  1.00  0.00    -0.259 OA
HETATM    3  C1  UNK     1      -2.246   0.217  -0.116  1.00  0.00    -0.037 A 
HETATM    4  C2  UNK     1      -2.400  -1.104   0.116  1.00  0.00     0.025 A 
HETATM    5  C3  UNK     1      -0.987   0.707  -0.713  1.00  0.00     0.005 A 
HETATM    6  C5  UNK     1       0.027  -0.205  -0.988  1.00  0.00     0.099 A 
HETATM    7  C6  UNK     1       1.248   0.175  -1.553  1.00  0.00     0.007 A 
HETATM    8  C8  UNK     1      -1.304  -2.074  -0.169  1.00  0.00     0.295 A 
HETATM    9  C9  UNK     1      -0.744   2.051  -1.038  1.00  0.00     0.017 A 
HETATM   10  C10 UNK     1      -3.292   1.252   0.217  1.00  0.00     0.050 C 
HETATM   11  C11 UNK     1       1.469   1.512  -1.860  1.00  0.00     0.088 A 
HETATM   12  C12 UNK     1       0.473   2.450  -1.604  1.00  0.00     0.039 A 
HETATM   13  C13 UNK     1       2.309  -0.842  -1.827  1.00  0.00     0.054 C 
ENDROOT
BRANCH  11  14
HETATM   14  O2  UNK     1       2.646   1.920  -2.411  1.00  0.00    -0.274 OA
BRANCH  14  15
HETATM   15  C15 UNK     1       3.643   2.291  -1.485  1.00  0.00     0.305 C 
HETATM   16  O6  UNK     1       3.478   2.253  -0.270  1.00  0.00    -0.258 OA
BRANCH  15  17
HETATM   17  C17 UNK     1       4.875   2.718  -2.152  1.00  0.00     0.080 A 
HETATM   18  S1  UNK     1       6.180   3.196  -1.183  1.00  0.00    -0.096 SA
HETATM   19  C21 UNK     1       7.127   3.509  -2.575  1.00  0.00     0.050 A 
HETATM   20  C20 UNK     1       6.438   3.245  -3.738  1.00  0.00     0.009 A 
HETATM   21  C19 UNK     1       5.115   2.781  -3.484  1.00  0.00     0.025 A 
ENDBRANCH  15  17
ENDBRANCH  14  15
ENDBRANCH  11  14
BRANCH   4  22
HETATM   22  C4  UNK     1      -3.652  -1.744   0.660  1.00  0.00     0.055 C 
BRANCH  22  23
HETATM   23  C7  UNK     1      -3.627  -1.804   2.180  1.00  0.00     0.116 C 
BRANCH  23  24
HETATM   24  C14 UNK     1      -4.884  -2.443   2.727  1.00  0.00     0.259 C 
HETATM   25  O5  UNK     1      -5.822  -2.845   2.052  1.00  0.00    -0.265 OA
BRANCH  24  26
HETATM   26  O4  UNK     1      -4.797  -2.493   4.089  1.00  0.00    -0.322 OA
BRANCH  26  27
HETATM   27  C16 UNK     1      -5.922  -3.075   4.757  1.00  0.00     0.174 C 
HETATM   28  C18 UNK     1      -5.672  -3.056   6.250  1.00  0.00     0.034 C 
ENDBRANCH  26  27
ENDBRANCH  24  26
ENDBRANCH  23  24
ENDBRANCH  22  23
ENDBRANCH   4  22
TORSDOF 8
