REMARK  4 active torsions:
REMARK  status: ('A' for Active; 'I' for Inactive)
REMARK    1  A    between atoms: C15_24  and  O3_3 
REMARK    2  A    between atoms: C13_22  and  N3_9 
REMARK    3  A    between atoms: C2_11  and  C5_14 
REMARK    4  A    between atoms: C10_19  and  C8_17 
ROOT
HETATM    1  O4  UNK     1      -3.117   0.813   1.850  1.00  0.00    -0.265 OA
HETATM    2  N1  UNK     1      -1.016  -0.128   2.089  1.00  0.00    -0.306 N 
HETATM    3  N2  UNK     1      -0.339  -1.985   0.774  1.00  0.00    -0.205 NA
HETATM    4  C8  UNK     1      -0.107  -1.095   1.691  1.00  0.00     0.133 A 
HETATM    5  C13 UNK     1      -2.513  -1.044   0.496  1.00  0.00     0.223 A 
HETATM    6  C14 UNK     1      -2.279  -0.023   1.532  1.00  0.00     0.284 A 
HETATM    7  C15 UNK     1      -1.577  -1.947   0.170  1.00  0.00     0.203 A 
HETATM    8  H7  UNK     1      -0.760   0.536   2.815  1.00  0.00     0.170 HD
ENDROOT
BRANCH   4   9
HETATM    9  C10 UNK     1       1.167  -1.031   2.404  1.00  0.00     0.051 C 
HETATM   10  C5  UNK     1       2.139  -0.273   1.896  1.00  0.00     0.021 C 
BRANCH  10  11
HETATM   11  C2  UNK     1       1.983   0.484   0.677  1.00  0.00     0.041 A 
HETATM   12  C4  UNK     1       2.296  -0.059  -0.508  1.00  0.00     0.032 A 
HETATM   13  C1  UNK     1       2.144   0.687  -1.746  1.00  0.00    -0.001 A 
HETATM   14  C3  UNK     1       1.664   1.990  -1.687  1.00  0.00     0.089 A 
HETATM   15  C6  UNK     1       2.465   0.142  -2.992  1.00  0.00     0.014 A 
HETATM   16  O1  UNK     1       1.333   2.570  -0.449  1.00  0.00    -0.274 OA
HETATM   17  C9  UNK     1       1.495   2.763  -2.834  1.00  0.00     0.038 A 
HETATM   18  C7  UNK     1       1.468   1.880   0.754  1.00  0.00     0.298 A 
HETATM   19  O2  UNK     1       1.172   2.412   1.819  1.00  0.00    -0.259 OA
HETATM   20  C12 UNK     1       1.815   2.212  -4.073  1.00  0.00     0.003 A 
HETATM   21  C11 UNK     1       2.300   0.904  -4.152  1.00  0.00     0.001 A 
ENDBRANCH  10  11
ENDBRANCH   4   9
BRANCH   7  22
HETATM   22  O3  UNK     1      -1.760  -2.923  -0.798  1.00  0.00    -0.343 OA
HETATM   23  H9  UNK     1      -0.927  -3.426  -0.823  1.00  0.00     0.219 HD
ENDBRANCH   7  22
BRANCH   5  24
HETATM   24  N3  UNK     1      -3.776  -1.045  -0.156  1.00  0.00    -0.105 N 
HETATM   25  O5  UNK     1      -3.964  -1.907  -1.027  1.00  0.00    -0.531 OA
HETATM   26  O6  UNK     1      -4.596  -0.184   0.192  1.00  0.00    -0.531 OA
ENDBRANCH   5  24
TORSDOF 4
