REMARK  3 active torsions:
REMARK  status: ('A' for Active; 'I' for Inactive)
REMARK    1  A    between atoms: C12_18  and  N1_5 
REMARK       I    between atoms: C13_19  and  N1_5 
REMARK    2  A    between atoms: C3_9  and  C8_14 
REMARK    3  A    between atoms: C11_17  and  C13_19 
ROOT
HETATM    1  N2  UNK     1       0.808   0.701   2.068  1.00  0.00    -0.191 NA
HETATM    2  C8  UNK     1      -0.140   0.593  -1.289  1.00  0.00     0.045 C 
HETATM    3  C11 UNK     1      -0.562   0.200  -0.070  1.00  0.00     0.113 C 
HETATM    4  C19 UNK     1       0.197   0.479   1.107  1.00  0.00     0.105 C 
ENDROOT
BRANCH   3   5
HETATM    5  C13 UNK     1      -1.873  -0.556  -0.009  1.00  0.00     0.266 C 
HETATM    6  O3  UNK     1      -2.508  -0.782  -1.036  1.00  0.00    -0.267 OA
HETATM    7  N1  UNK     1      -2.238  -0.933   1.279  1.00  0.00    -0.322 N 
HETATM    8  H7  UNK     1      -1.627  -0.684   2.052  1.00  0.00     0.169 HD
BRANCH   7   9
HETATM    9  C12 UNK     1      -3.399  -1.647   1.672  1.00  0.00     0.036 A 
HETATM   10  C14 UNK     1      -3.596  -1.930   3.011  1.00  0.00     0.053 A 
HETATM   11  C16 UNK     1      -4.738  -2.633   3.396  1.00  0.00     0.036 A 
HETATM   12 Cl1  UNK     1      -5.006  -2.997   5.057  1.00  0.00    -0.084 Cl
HETATM   13  C18 UNK     1      -5.663  -3.042   2.435  1.00  0.00     0.024 A 
HETATM   14  C17 UNK     1      -5.446  -2.747   1.089  1.00  0.00     0.004 A 
HETATM   15  C15 UNK     1      -4.305  -2.044   0.704  1.00  0.00     0.029 A 
ENDBRANCH   7   9
ENDBRANCH   3   5
BRANCH   2  16
HETATM   16  C3  UNK     1       1.067   1.316  -1.588  1.00  0.00     0.039 A 
HETATM   17  C4  UNK     1       2.328   0.587  -1.889  1.00  0.00     0.197 A 
HETATM   18  C1  UNK     1       3.511   1.418  -2.186  1.00  0.00     0.049 A 
HETATM   19  O2  UNK     1       2.396  -0.636  -1.895  1.00  0.00    -0.286 OA
HETATM   20  C2  UNK     1       3.386   2.807  -2.168  1.00  0.00     0.089 A 
HETATM   21  C5  UNK     1       4.741   0.826  -2.483  1.00  0.00     0.018 A 
HETATM   22  O1  UNK     1       2.203   3.440  -1.884  1.00  0.00    -0.321 OA
HETATM   23  C6  UNK     1       4.490   3.612  -2.449  1.00  0.00     0.038 A 
HETATM   24  C7  UNK     1       1.110   2.655  -1.610  1.00  0.00     0.158 A 
HETATM   25  C10 UNK     1       5.720   3.024  -2.745  1.00  0.00     0.003 A 
HETATM   26  C9  UNK     1       5.845   1.634  -2.763  1.00  0.00     0.001 A 
ENDBRANCH   2  16
TORSDOF 3
