REMARK  5 active torsions:
REMARK  status: ('A' for Active; 'I' for Inactive)
REMARK    1  A    between atoms: C9_16  and  O2_2 
REMARK    2  A    between atoms: C18_25  and  O5_5 
REMARK    3  A    between atoms: C2_9  and  N1_7 
REMARK       I    between atoms: C7_14  and  N1_7 
REMARK    4  A    between atoms: C4_11  and  C7_14 
REMARK    5  A    between atoms: C11_18  and  C18_25 
ROOT
HETATM    1  O3  UNK     1      -1.531   0.041  -1.258  1.00  0.00    -0.267 OA
HETATM    2  N1  UNK     1      -0.466  -0.212   0.827  1.00  0.00    -0.322 N 
HETATM    3  C7  UNK     1      -0.568   0.169  -0.503  1.00  0.00     0.262 C 
HETATM    4  H2  UNK     1       0.420  -0.050   1.295  1.00  0.00     0.169 HD
ENDROOT
BRANCH   3   5
HETATM    5  C4  UNK     1       0.665   0.794  -0.996  1.00  0.00     0.108 A 
HETATM    6  C13 UNK     1       1.569   1.557  -0.106  1.00  0.00     0.304 A 
HETATM    7  O1  UNK     1       2.709   2.101  -0.691  1.00  0.00    -0.271 OA
HETATM    8  O4  UNK     1       1.331   1.704   1.088  1.00  0.00    -0.259 OA
HETATM    9  C3  UNK     1       2.991   1.939  -2.061  1.00  0.00     0.123 A 
HETATM   10  C1  UNK     1       2.128   1.219  -2.880  1.00  0.00     0.002 A 
HETATM   11  C9  UNK     1       4.156   2.522  -2.556  1.00  0.00     0.102 A 
HETATM   12  C6  UNK     1       0.929   0.636  -2.299  1.00  0.00     0.037 A 
HETATM   13  C10 UNK     1       2.442   1.080  -4.235  1.00  0.00     0.014 A 
HETATM   14  C17 UNK     1       3.607   1.659  -4.745  1.00  0.00     0.004 A 
HETATM   15  C16 UNK     1       4.462   2.378  -3.907  1.00  0.00     0.040 A 
BRANCH  11  16
HETATM   16  O2  UNK     1       4.992   3.223  -1.744  1.00  0.00    -0.353 OA
HETATM   17  C19 UNK     1       6.034   2.493  -1.097  1.00  0.00     0.210 C 
ENDBRANCH  11  16
ENDBRANCH   3   5
BRANCH   2  18
HETATM   18  C2  UNK     1      -1.455  -0.839   1.624  1.00  0.00     0.042 A 
HETATM   19  C5  UNK     1      -1.187  -1.153   2.947  1.00  0.00    -0.035 A 
HETATM   20  C12 UNK     1      -2.174  -1.769   3.717  1.00  0.00     0.010 A 
HETATM   21  C15 UNK     1       0.134  -0.849   3.576  1.00  0.00     0.050 C 
HETATM   22  C14 UNK     1      -3.416  -2.062   3.154  1.00  0.00     0.018 A 
HETATM   23  C11 UNK     1      -3.671  -1.740   1.821  1.00  0.00     0.041 A 
HETATM   24  C8  UNK     1      -2.684  -1.124   1.051  1.00  0.00     0.047 A 
BRANCH  23  25
HETATM   25  C18 UNK     1      -4.966  -2.047   1.235  1.00  0.00     0.293 C 
HETATM   26  O6  UNK     1      -5.495  -1.394   0.326  1.00  0.00    -0.259 OA
BRANCH  25  27
HETATM   27  O5  UNK     1      -5.530  -3.152   1.811  1.00  0.00    -0.323 OA
HETATM   28  C20 UNK     1      -6.811  -3.557   1.316  1.00  0.00     0.213 C 
ENDBRANCH  25  27
ENDBRANCH  23  25
ENDBRANCH   2  18
TORSDOF 5
