REMARK  6 active torsions:
REMARK  status: ('A' for Active; 'I' for Inactive)
REMARK    1  A    between atoms: C14_21  and  O3_3 
REMARK    2  A    between atoms: C21_28  and  O3_3 
REMARK    3  A    between atoms: C30_37  and  O6_6 
REMARK    4  A    between atoms: C12_19  and  C6_13 
REMARK    5  A    between atoms: C10_17  and  C14_21 
REMARK    6  A    between atoms: C21_28  and  C24_31 
ROOT
HETATM    1  O1  UNK     1      -2.354  -0.272   3.301  1.00  0.00    -0.293 OA
HETATM    2  N1  UNK     1      -3.209  -2.193  -0.942  1.00  0.00    -0.362 N 
HETATM    3  C1  UNK     1      -4.419  -3.144   2.500  1.00  0.00    -0.036 C 
HETATM    4  C2  UNK     1      -3.892  -3.415   1.076  1.00  0.00     0.067 C 
HETATM    5  C3  UNK     1      -3.320  -2.457   3.323  1.00  0.00     0.092 C 
HETATM    6  C4  UNK     1      -3.217  -2.226   0.439  1.00  0.00     0.021 C 
HETATM    7  C5  UNK     1      -2.677  -1.212   1.146  1.00  0.00     0.024 C 
HETATM    8  C6  UNK     1      -1.999  -0.034   0.448  1.00  0.00     0.104 C 
HETATM    9  C7  UNK     1      -2.765  -1.225   2.639  1.00  0.00     0.159 C 
HETATM   10  C8  UNK     1      -4.788  -4.482   3.165  1.00  0.00     0.015 C 
HETATM   11  C9  UNK     1      -5.687  -2.266   2.454  1.00  0.00     0.015 C 
HETATM   12  C10 UNK     1      -2.242  -0.037  -1.064  1.00  0.00     0.052 C 
HETATM   13  C11 UNK     1      -2.791  -1.103  -1.690  1.00  0.00     0.018 C 
HETATM   14  C13 UNK     1      -3.013  -1.225  -3.173  1.00  0.00     0.069 C 
HETATM   15  H12 UNK     1      -3.624  -2.974  -1.438  1.00  0.00     0.165 HD
ENDROOT
BRANCH   8  16
HETATM   16  C12 UNK     1      -0.518  -0.026   0.736  1.00  0.00     0.029 A 
HETATM   17  C15 UNK     1       0.059   1.136   1.457  1.00  0.00     0.194 A 
HETATM   18  O5  UNK     1      -0.628   2.082   1.822  1.00  0.00    -0.287 OA
HETATM   19  C17 UNK     1       1.510   1.092   1.712  1.00  0.00     0.049 A 
HETATM   20  C18 UNK     1       2.243  -0.011   1.273  1.00  0.00     0.089 A 
HETATM   21  C19 UNK     1       2.148   2.139   2.384  1.00  0.00     0.025 A 
HETATM   22  O2  UNK     1       1.669  -1.066   0.610  1.00  0.00    -0.321 OA
HETATM   23  C20 UNK     1       3.618  -0.073   1.504  1.00  0.00     0.039 A 
HETATM   24  C16 UNK     1       0.316  -1.011   0.379  1.00  0.00     0.154 A 
HETATM   25  C23 UNK     1       4.257   0.970   2.174  1.00  0.00     0.009 A 
HETATM   26  C22 UNK     1       3.523   2.073   2.613  1.00  0.00    -0.061 A 
HETATM   27  C25 UNK     1       4.212   3.186   3.330  1.00  0.00     0.048 C 
ENDBRANCH   8  16
BRANCH  12  28
HETATM   28  C14 UNK     1      -1.903   1.198  -1.792  1.00  0.00     0.292 C 
HETATM   29  O4  UNK     1      -2.678   2.125  -1.933  1.00  0.00    -0.259 OA
BRANCH  28  30
HETATM   30  O3  UNK     1      -0.630   1.092  -2.242  1.00  0.00    -0.313 OA
BRANCH  30  31
HETATM   31  C21 UNK     1      -0.150   2.224  -2.975  1.00  0.00     0.217 C 
BRANCH  31  32
HETATM   32  C24 UNK     1       1.264   1.965  -3.407  1.00  0.00    -0.034 A 
HETATM   33  C27 UNK     1       2.315   2.339  -2.578  1.00  0.00     0.012 A 
HETATM   34  C29 UNK     1       3.629   2.097  -2.978  1.00  0.00     0.037 A 
HETATM   35  C30 UNK     1       3.883   1.483  -4.205  1.00  0.00     0.068 A 
HETATM   36  C28 UNK     1       2.822   1.111  -5.031  1.00  0.00     0.037 A 
HETATM   37  C26 UNK     1       1.508   1.352  -4.630  1.00  0.00     0.012 A 
BRANCH  35  38
HETATM   38  O6  UNK     1       5.165   1.248  -4.597  1.00  0.00    -0.356 OA
HETATM   39  C31 UNK     1       6.202   1.654  -3.704  1.00  0.00     0.210 C 
ENDBRANCH  35  38
ENDBRANCH  31  32
ENDBRANCH  30  31
ENDBRANCH  28  30
ENDBRANCH  12  28
TORSDOF 6
