REMARK  4 active torsions:
REMARK  status: ('A' for Active; 'I' for Inactive)
REMARK    1  A    between atoms: C7_12  and  O2_2 
REMARK    2  A    between atoms: C1_6  and  N1_5 
REMARK       I    between atoms: C8_13  and  N1_5 
REMARK    3  A    between atoms: C1_6  and  C2_7 
REMARK    4  A    between atoms: C4_9  and  C8_13 
ROOT
HETATM    1  O3  UNK     1       0.919   0.057   1.905  1.00  0.00    -0.267 OA
HETATM    2  N1  UNK     1      -0.310  -1.221   0.392  1.00  0.00    -0.352 N 
HETATM    3  C8  UNK     1       0.593  -0.239   0.758  1.00  0.00     0.258 C 
HETATM    4  H3  UNK     1      -0.474  -1.420  -0.590  1.00  0.00     0.163 HD
ENDROOT
BRANCH   3   5
HETATM    5  C4  UNK     1       1.171   0.463  -0.395  1.00  0.00     0.108 A 
HETATM    6  C10 UNK     1       0.424   0.641  -1.661  1.00  0.00     0.304 A 
HETATM    7  O1  UNK     1       1.079   1.325  -2.681  1.00  0.00    -0.274 OA
HETATM    8  O4  UNK     1      -0.715   0.211  -1.808  1.00  0.00    -0.259 OA
HETATM    9  C6  UNK     1       2.386   1.824  -2.522  1.00  0.00     0.089 A 
HETATM   10  C12 UNK     1       2.959   2.496  -3.600  1.00  0.00     0.038 A 
HETATM   11  C3  UNK     1       3.070   1.645  -1.324  1.00  0.00    -0.001 A 
HETATM   12  C17 UNK     1       4.251   3.001  -3.473  1.00  0.00     0.003 A 
HETATM   13  C16 UNK     1       4.953   2.830  -2.278  1.00  0.00     0.001 A 
HETATM   14  C11 UNK     1       4.366   2.154  -1.205  1.00  0.00     0.014 A 
HETATM   15  C5  UNK     1       2.413   0.935  -0.238  1.00  0.00     0.037 A 
ENDBRANCH   3   5
BRANCH   2  16
HETATM   16  C1  UNK     1      -1.007  -2.048   1.351  1.00  0.00     0.164 C 
BRANCH  16  17
HETATM   17  C2  UNK     1      -2.485  -1.881   1.178  1.00  0.00    -0.007 A 
HETATM   18  C7  UNK     1      -3.174  -0.897   1.882  1.00  0.00     0.076 A 
HETATM   19  C13 UNK     1      -4.551  -0.756   1.709  1.00  0.00     0.037 A 
HETATM   20  C15 UNK     1      -5.234  -1.598   0.831  1.00  0.00     0.003 A 
HETATM   21  C14 UNK     1      -4.540  -2.582   0.127  1.00  0.00     0.001 A 
HETATM   22  C9  UNK     1      -3.163  -2.724   0.301  1.00  0.00     0.011 A 
BRANCH  18  23
HETATM   23  O2  UNK     1      -2.523  -0.066   2.744  1.00  0.00    -0.355 OA
HETATM   24  C18 UNK     1      -2.418  -0.493   4.100  1.00  0.00     0.210 C 
ENDBRANCH  18  23
ENDBRANCH  16  17
ENDBRANCH   2  16
TORSDOF 4
