REMARK  7 active torsions:
REMARK  status: ('A' for Active; 'I' for Inactive)
REMARK    1  A    between atoms: C21_28  and  O3_3 
REMARK    2  A    between atoms: C23_30  and  O3_3 
REMARK    3  A    between atoms: C11_18  and  N1_5 
REMARK    4  A    between atoms: C13_20  and  N2_6 
REMARK    5  A    between atoms: C1_8  and  N3_7 
REMARK       I    between atoms: C12_19  and  N3_7 
REMARK    6  A    between atoms: C11_18  and  C12_19 
REMARK    7  A    between atoms: C13_20  and  C14_21 
ROOT
HETATM    1  N1  UNK     1      -2.204  -1.689  -0.912  1.00  0.00     0.100 N 
HETATM    2  N2  UNK     1       0.498  -0.703  -1.205  1.00  0.00     0.096 N 
HETATM    3  C7  UNK     1      -1.716  -1.175  -2.197  1.00  0.00     0.303 C 
HETATM    4  C8  UNK     1      -1.507  -1.031   0.200  1.00  0.00     0.303 C 
HETATM    5  C9  UNK     1      -0.199  -1.359  -2.318  1.00  0.00     0.303 C 
HETATM    6  C10 UNK     1       0.009  -1.216   0.080  1.00  0.00     0.303 C 
ENDROOT
BRANCH   2   7
HETATM    7  C13 UNK     1       1.944  -0.884  -1.320  1.00  0.00     0.312 C 
BRANCH   7   8
HETATM    8  C14 UNK     1       2.701   0.125  -0.527  1.00  0.00    -0.011 A 
HETATM    9  C15 UNK     1       3.091   1.400  -1.144  1.00  0.00     0.009 A 
HETATM   10  C17 UNK     1       3.799   2.325  -0.376  1.00  0.00     0.090 A 
HETATM   11  C18 UNK     1       2.792   1.748  -2.468  1.00  0.00     0.051 A 
HETATM   12  O2  UNK     1       4.138   2.052   0.964  1.00  0.00    -0.275 OA
HETATM   13  C20 UNK     1       4.208   3.560  -0.884  1.00  0.00     0.041 A 
HETATM   14  C19 UNK     1       3.783   0.858   1.573  1.00  0.00     0.288 A 
HETATM   15  C16 UNK     1       3.036  -0.108   0.750  1.00  0.00     0.092 A 
HETATM   16  O4  UNK     1       4.072   0.611   2.739  1.00  0.00    -0.260 OA
HETATM   17  C22 UNK     1       3.902   3.886  -2.201  1.00  0.00     0.039 A 
HETATM   18  C21 UNK     1       3.194   2.982  -2.992  1.00  0.00     0.069 A 
BRANCH  18  19
HETATM   19  O3  UNK     1       2.893   3.301  -4.281  1.00  0.00    -0.351 OA
BRANCH  19  20
HETATM   20  C23 UNK     1       3.801   4.163  -4.965  1.00  0.00     0.171 C 
HETATM   21  C24 UNK     1       3.785   3.825  -6.440  1.00  0.00     0.034 C 
ENDBRANCH  19  20
ENDBRANCH  18  19
ENDBRANCH   7   8
ENDBRANCH   2   7
BRANCH   1  22
HETATM   22  C11 UNK     1      -3.650  -1.510  -0.797  1.00  0.00     0.374 C 
BRANCH  22  23
HETATM   23  C12 UNK     1      -4.175  -2.459   0.261  1.00  0.00     0.246 C 
HETATM   24  N3  UNK     1      -4.790  -1.782   1.304  1.00  0.00    -0.355 N 
HETATM   25  H20 UNK     1      -4.790  -0.767   1.296  1.00  0.00     0.162 HD
HETATM   26  O1  UNK     1      -4.038  -3.679   0.194  1.00  0.00    -0.272 OA
BRANCH  24  27
HETATM   27  C1  UNK     1      -5.354  -2.446   2.458  1.00  0.00     0.084 C 
HETATM   28  C2  UNK     1      -6.568  -1.681   2.996  1.00  0.00     0.025 C 
HETATM   29  C4  UNK     1      -6.177  -0.374   3.685  1.00  0.00     0.002 C 
HETATM   30  C6  UNK     1      -5.132  -0.602   4.773  1.00  0.00     0.000 C 
HETATM   31  C5  UNK     1      -3.909  -1.339   4.237  1.00  0.00     0.002 C 
HETATM   32  C3  UNK     1      -4.297  -2.648   3.548  1.00  0.00     0.025 C 
ENDBRANCH  24  27
ENDBRANCH  22  23
ENDBRANCH   1  22
TORSDOF 7
