REMARK  3 active torsions:
REMARK  status: ('A' for Active; 'I' for Inactive)
REMARK       I    between atoms: C5_15  and  N1_6 
REMARK    1  A    between atoms: C6_16  and  N2_7 
REMARK    2  A    between atoms: C14_24  and  N5_10 
REMARK    3  A    between atoms: C5_15  and  C7_17 
ROOT
HETATM    1  O2  UNK     1       2.747   2.668   0.442  1.00  0.00    -0.274 OA
HETATM    2  O3  UNK     1       2.190   2.068   2.575  1.00  0.00    -0.259 OA
HETATM    3  C7  UNK     1       1.726   0.488   0.870  1.00  0.00     0.108 A 
HETATM    4  C8  UNK     1       1.769   0.182  -0.432  1.00  0.00     0.037 A 
HETATM    5  C9  UNK     1       2.317   1.129  -1.390  1.00  0.00     0.001 A 
HETATM    6  C10 UNK     1       2.228   1.783   1.382  1.00  0.00     0.304 A 
HETATM    7  C11 UNK     1       2.795   2.352  -0.930  1.00  0.00     0.089 A 
HETATM    8  C12 UNK     1       2.381   0.852  -2.758  1.00  0.00     0.050 A 
HETATM    9  C13 UNK     1       3.333   3.302  -1.795  1.00  0.00     0.041 A 
HETATM   10  C14 UNK     1       2.918   1.796  -3.638  1.00  0.00     0.103 A 
HETATM   11  C17 UNK     1       3.393   3.018  -3.158  1.00  0.00     0.039 A 
ENDROOT
BRANCH   3  12
HETATM   12  C5  UNK     1       1.151  -0.537   1.763  1.00  0.00     0.260 C 
HETATM   13  O1  UNK     1       1.920  -1.374   2.240  1.00  0.00    -0.267 OA
HETATM   14  N1  UNK     1      -0.217  -0.494   2.003  1.00  0.00    -0.345 N 
HETATM   15  C1  UNK     1      -1.174   0.487   1.483  1.00  0.00     0.146 C 
HETATM   16  C2  UNK     1      -0.833  -1.492   2.875  1.00  0.00     0.146 C 
HETATM   17  C3  UNK     1      -2.286  -0.214   0.706  1.00  0.00     0.161 C 
HETATM   18  N2  UNK     1      -2.885  -1.279   1.523  1.00  0.00    -0.211 N 
HETATM   19  C4  UNK     1      -1.946  -2.234   2.136  1.00  0.00     0.161 C 
BRANCH  18  20
HETATM   20  C6  UNK     1      -4.173  -1.737   1.223  1.00  0.00     0.724 A 
HETATM   21  N3  UNK     1      -4.704  -2.723   2.005  1.00  0.00    -0.075 NA
HETATM   22  C15 UNK     1      -5.947  -3.140   1.687  1.00  0.00     0.138 A 
HETATM   23  C18 UNK     1      -6.683  -2.629   0.638  1.00  0.00     0.040 A 
HETATM   24  C16 UNK     1      -6.065  -1.637  -0.096  1.00  0.00     0.138 A 
HETATM   25  N4  UNK     1      -4.826  -1.172   0.165  1.00  0.00    -0.075 NA
ENDBRANCH  18  20
ENDBRANCH   3  12
BRANCH  10  26
HETATM   26  N5  UNK     1       2.982   1.510  -5.028  1.00  0.00    -0.116 N 
HETATM   27  O4  UNK     1       3.468   2.369  -5.803  1.00  0.00    -0.532 OA
HETATM   28  O5  UNK     1       2.551   0.407  -5.442  1.00  0.00    -0.532 OA
ENDBRANCH  10  26
TORSDOF 3
