REMARK  6 active torsions:
REMARK  status: ('A' for Active; 'I' for Inactive)
REMARK    1  A    between atoms: C10_16  and  O1_2 
REMARK    2  A    between atoms: C12_18  and  N1_5 
REMARK    3  A    between atoms: C8_14  and  N1_5 
REMARK    4  A    between atoms: C12_18  and  N2_6 
REMARK    5  A    between atoms: C13_19  and  N2_6 
REMARK    6  A    between atoms: C1_7  and  C2_8 
ROOT
HETATM    1  S1  UNK     1      -1.900   0.092  -3.051  1.00  0.00    -0.041 SA
HETATM    2  C12 UNK     1      -0.517   0.471  -2.164  1.00  0.00     0.176 C 
ENDROOT
BRANCH   2   3
HETATM    3  N1  UNK     1       0.484   1.155  -2.837  1.00  0.00    -0.331 N 
HETATM    4  H13 UNK     1       0.310   1.271  -3.833  1.00  0.00     0.168 HD
BRANCH   3   5
HETATM    5  C8  UNK     1       1.774   1.522  -2.430  1.00  0.00     0.068 A 
HETATM    6  C10 UNK     1       2.791   1.680  -3.367  1.00  0.00     0.095 A 
HETATM    7  C9  UNK     1       4.070   2.046  -2.947  1.00  0.00     0.039 A 
HETATM    8  C7  UNK     1       4.327   2.251  -1.592  1.00  0.00     0.011 A 
HETATM    9  C2  UNK     1       3.305   2.092  -0.656  1.00  0.00    -0.048 A 
HETATM   10  C6  UNK     1       2.026   1.727  -1.076  1.00  0.00     0.040 A 
BRANCH   6  11
HETATM   11  O1  UNK     1       2.560   1.486  -4.696  1.00  0.00    -0.354 OA
HETATM   12  C21 UNK     1       2.758   0.167  -5.202  1.00  0.00     0.210 C 
ENDBRANCH   6  11
BRANCH   9  13
HETATM   13  C1  UNK     1       3.581   2.313   0.793  1.00  0.00    -0.024 C 
HETATM   14  C3  UNK     1       4.071   3.770   1.059  1.00  0.00     0.019 C 
HETATM   15  C4  UNK     1       4.686   1.342   1.314  1.00  0.00     0.019 C 
HETATM   16  C5  UNK     1       2.359   2.104   1.748  1.00  0.00     0.019 C 
ENDBRANCH   9  13
ENDBRANCH   3   5
ENDBRANCH   2   3
BRANCH   2  17
HETATM   17  N2  UNK     1      -0.242   0.057  -0.858  1.00  0.00    -0.333 N 
HETATM   18  H14 UNK     1       0.748  -0.095  -0.690  1.00  0.00     0.168 HD
BRANCH  17  19
HETATM   19  C13 UNK     1      -1.009  -0.636   0.078  1.00  0.00     0.036 A 
HETATM   20  C16 UNK     1      -2.377  -0.404   0.170  1.00  0.00     0.067 A 
HETATM   21  C14 UNK     1      -3.126  -1.110   1.114  1.00  0.00     0.092 A 
HETATM   22  C11 UNK     1      -2.550  -2.046   1.973  1.00  0.00     0.004 A 
HETATM   23  O2  UNK     1      -4.507  -0.831   1.159  1.00  0.00    -0.275 OA
HETATM   24  C15 UNK     1      -3.415  -2.743   2.935  1.00  0.00    -0.043 A 
HETATM   25  C17 UNK     1      -1.170  -2.266   1.864  1.00  0.00     0.017 A 
HETATM   26  C19 UNK     1      -4.724  -2.458   2.956  1.00  0.00     0.090 A 
HETATM   27  C20 UNK     1      -2.826  -3.756   3.873  1.00  0.00     0.049 C 
HETATM   28  C22 UNK     1      -5.346  -1.473   2.056  1.00  0.00     0.288 A 
HETATM   29  O3  UNK     1      -6.549  -1.238   2.104  1.00  0.00    -0.260 OA
HETATM   30  C18 UNK     1      -0.406  -1.566   0.924  1.00  0.00     0.030 A 
ENDBRANCH  17  19
ENDBRANCH   2  17
TORSDOF 6
