REMARK  3 active torsions:
REMARK  status: ('A' for Active; 'I' for Inactive)
REMARK    1  A    between atoms: C11_15  and  C8_12 
REMARK    2  A    between atoms: C11_15  and  C12_16 
REMARK    3  A    between atoms: C13_17  and  C14_18 
ROOT
HETATM    1  O1  UNK     1       3.082   1.194  -3.092  1.00  0.00    -0.348 OA
HETATM    2  O2  UNK     1       3.247   3.436  -1.149  1.00  0.00    -0.348 OA
HETATM    3  C1  UNK     1       4.952   2.589  -3.695  1.00  0.00     0.029 C 
HETATM    4  C2  UNK     1       5.286   3.388  -2.433  1.00  0.00     0.029 C 
HETATM    5  C3  UNK     1       3.466   2.313  -3.894  1.00  0.00     0.176 C 
HETATM    6  C4  UNK     1       4.576   2.906  -1.174  1.00  0.00     0.176 C 
HETATM    7  C5  UNK     1       2.163   1.459  -2.116  1.00  0.00     0.102 A 
HETATM    8  C6  UNK     1       2.245   2.509  -1.197  1.00  0.00     0.102 A 
HETATM    9  C7  UNK     1       1.099   0.552  -2.037  1.00  0.00     0.055 A 
HETATM   10  C8  UNK     1       0.091   0.726  -1.089  1.00  0.00     0.017 A 
HETATM   11  C9  UNK     1       1.216   2.694  -0.266  1.00  0.00     0.040 A 
HETATM   12  C10 UNK     1       0.144   1.803  -0.210  1.00  0.00     0.018 A 
ENDROOT
BRANCH  10  13
HETATM   13  C11 UNK     1      -1.019  -0.211  -1.026  1.00  0.00     0.182 C 
HETATM   14  O3  UNK     1      -1.417  -0.847  -2.012  1.00  0.00    -0.288 OA
BRANCH  13  15
HETATM   15  C12 UNK     1      -1.692  -0.451   0.301  1.00  0.00     0.056 C 
HETATM   16  C13 UNK     1      -2.707  -1.323   0.415  1.00  0.00     0.015 C 
BRANCH  16  17
HETATM   17  C14 UNK     1      -3.436  -1.662   1.615  1.00  0.00    -0.036 A 
HETATM   18  C15 UNK     1      -3.420  -0.801   2.719  1.00  0.00     0.014 A 
HETATM   19  C17 UNK     1      -4.123  -1.128   3.878  1.00  0.00     0.043 A 
HETATM   20  C19 UNK     1      -4.848  -2.318   3.941  1.00  0.00     0.116 A 
HETATM   21  C18 UNK     1      -4.870  -3.181   2.846  1.00  0.00     0.043 A 
HETATM   22  F1  UNK     1      -5.523  -2.633   5.055  1.00  0.00    -0.206 F 
HETATM   23  C16 UNK     1      -4.166  -2.854   1.687  1.00  0.00     0.014 A 
ENDBRANCH  16  17
ENDBRANCH  13  15
ENDBRANCH  10  13
TORSDOF 3
