REMARK  7 active torsions:
REMARK  status: ('A' for Active; 'I' for Inactive)
REMARK    1  A    between atoms: C12_15  and  O2_2 
REMARK    2  A    between atoms: C15_18  and  O2_2 
REMARK    3  A    between atoms: C1_4  and  C2_5 
REMARK    4  A    between atoms: C1_4  and  C3_6 
REMARK    5  A    between atoms: C3_6  and  C6_9 
REMARK    6  A    between atoms: C14_17  and  C15_18 
REMARK    7  A    between atoms: C14_17  and  C17_20 
ROOT
HETATM    1  O1  UNK     1      -1.049  -0.339  -1.235  1.00  0.00    -0.274 OA
HETATM    2  O3  UNK     1      -3.219  -0.994  -1.344  1.00  0.00    -0.259 OA
HETATM    3  C2  UNK     1      -2.378  -0.489   0.827  1.00  0.00     0.024 A 
HETATM    4  C4  UNK     1      -1.315  -0.124   1.575  1.00  0.00    -0.037 A 
HETATM    5  C5  UNK     1      -0.035   0.197   0.911  1.00  0.00     0.005 A 
HETATM    6  C7  UNK     1       0.054   0.076  -0.473  1.00  0.00     0.092 A 
HETATM    7  C8  UNK     1      -2.272  -0.629  -0.654  1.00  0.00     0.295 A 
HETATM    8  C9  UNK     1       1.114   0.631   1.590  1.00  0.00     0.017 A 
HETATM    9  C10 UNK     1      -1.343  -0.033   3.081  1.00  0.00     0.050 C 
HETATM   10  C11 UNK     1       1.226   0.359  -1.179  1.00  0.00     0.075 A 
HETATM   11  C12 UNK     1       2.353   0.782  -0.486  1.00  0.00     0.071 A 
HETATM   12  C13 UNK     1       2.297   0.920   0.898  1.00  0.00     0.038 A 
ENDROOT
BRANCH  11  13
HETATM   13  O2  UNK     1       3.504   1.063  -1.155  1.00  0.00    -0.351 OA
BRANCH  13  14
HETATM   14  C15 UNK     1       3.377   1.542  -2.493  1.00  0.00     0.175 C 
BRANCH  14  15
HETATM   15  C14 UNK     1       4.564   2.443  -2.806  1.00  0.00     0.026 C 
BRANCH  15  16
HETATM   16  C17 UNK     1       4.485   3.006  -4.222  1.00  0.00    -0.002 C 
HETATM   17  C18 UNK     1       5.648   3.940  -4.517  1.00  0.00     0.005 C 
ENDBRANCH  15  16
ENDBRANCH  14  15
ENDBRANCH  13  14
ENDBRANCH  11  13
BRANCH   3  18
HETATM   18  C1  UNK     1      -3.754  -0.780   1.368  1.00  0.00     0.045 C 
BRANCH  18  19
HETATM   19  C3  UNK     1      -3.907  -2.252   1.731  1.00  0.00     0.004 C 
BRANCH  19  20
HETATM   20  C6  UNK     1      -5.297  -2.525   2.307  1.00  0.00    -0.004 C 
HETATM   21  C16 UNK     1      -5.456  -3.983   2.710  1.00  0.00     0.005 C 
ENDBRANCH  19  20
ENDBRANCH  18  19
ENDBRANCH   3  18
TORSDOF 7
