REMARK  2 active torsions:
REMARK  status: ('A' for Active; 'I' for Inactive)
REMARK    1  A    between atoms: C6_11  and  N1_4 
REMARK    2  A    between atoms: C8_13  and  N1_4 
ROOT
HETATM    1  S1  UNK     1      -2.376  -0.848  -2.840  1.00  0.00    -0.061 SA
HETATM    2  O1  UNK     1       3.008   0.743  -0.039  1.00  0.00    -0.274 OA
HETATM    3  O2  UNK     1       1.312  -0.680   0.497  1.00  0.00    -0.259 OA
HETATM    4  N2  UNK     1      -1.058  -0.350  -0.673  1.00  0.00    -0.223 NA
HETATM    5  C1  UNK     1       1.020   0.610  -1.488  1.00  0.00     0.070 A 
HETATM    6  C2  UNK     1       2.879   2.089  -2.052  1.00  0.00    -0.001 A 
HETATM    7  C3  UNK     1       1.570   1.515  -2.314  1.00  0.00     0.034 A 
HETATM    8  C4  UNK     1       3.569   1.690  -0.915  1.00  0.00     0.089 A 
HETATM    9  C5  UNK     1      -0.280   0.041  -1.740  1.00  0.00     0.082 A 
HETATM   10  C7  UNK     1       1.763   0.164  -0.271  1.00  0.00     0.301 A 
HETATM   11  C8  UNK     1      -2.189  -0.835  -1.134  1.00  0.00     0.171 A 
HETATM   12  C9  UNK     1       3.466   3.029  -2.902  1.00  0.00     0.014 A 
HETATM   13  C10 UNK     1       4.826   2.202  -0.601  1.00  0.00     0.038 A 
HETATM   14  C11 UNK     1      -0.818  -0.146  -2.991  1.00  0.00     0.086 A 
HETATM   15  C15 UNK     1       4.727   3.553  -2.602  1.00  0.00     0.001 A 
HETATM   16  C18 UNK     1       5.405   3.140  -1.453  1.00  0.00     0.003 A 
ENDROOT
BRANCH  11  17
HETATM   17  N1  UNK     1      -3.193  -1.315  -0.353  1.00  0.00    -0.335 N 
HETATM   18  H3  UNK     1      -4.010  -1.658  -0.854  1.00  0.00     0.168 HD
BRANCH  17  19
HETATM   19  C6  UNK     1      -3.377  -1.455   1.072  1.00  0.00     0.034 A 
HETATM   20  C13 UNK     1      -4.555  -1.998   1.539  1.00  0.00     0.030 A 
HETATM   21  C16 UNK     1      -4.734  -2.133   2.916  1.00  0.00     0.009 A 
HETATM   22  C12 UNK     1      -3.730  -1.722   3.793  1.00  0.00    -0.062 A 
HETATM   23  C17 UNK     1      -2.548  -1.175   3.293  1.00  0.00     0.009 A 
HETATM   24  C19 UNK     1      -3.921  -1.865   5.265  1.00  0.00     0.048 C 
HETATM   25  C14 UNK     1      -2.369  -1.040   1.916  1.00  0.00     0.030 A 
ENDBRANCH  17  19
ENDBRANCH  11  17
TORSDOF 2
