REMARK  7 active torsions:
REMARK  status: ('A' for Active; 'I' for Inactive)
REMARK    1  A    between atoms: C9_17  and  O2_2 
REMARK    2  A    between atoms: C10_18  and  O3_3 
REMARK    3  A    between atoms: C11_19  and  O4_4 
REMARK    4  A    between atoms: C5_13  and  O5_5 
REMARK    5  A    between atoms: C12_20  and  O6_6 
REMARK    6  A    between atoms: C14_22  and  O8_8 
REMARK    7  A    between atoms: C1_9  and  C2_10 
ROOT
HETATM    1  O1  UNK     1       0.344  -2.069   1.679  1.00  0.00    -0.306 OA
HETATM    2  O7  UNK     1       1.699  -3.711  -1.796  1.00  0.00    -0.284 OA
HETATM    3  C1  UNK     1       0.471  -1.314   0.523  1.00  0.00     0.123 A 
HETATM    4  C3  UNK     1       1.138  -4.021   0.474  1.00  0.00     0.084 A 
HETATM    5  C4  UNK     1       0.672  -3.399   1.630  1.00  0.00     0.096 A 
HETATM    6  C5  UNK     1       0.918  -1.789  -0.653  1.00  0.00     0.152 A 
HETATM    7  C6  UNK     1       1.289  -3.222  -0.752  1.00  0.00     0.223 A 
HETATM    8  C12 UNK     1       1.458  -5.380   0.484  1.00  0.00     0.085 A 
HETATM    9  C13 UNK     1       0.522  -4.135   2.806  1.00  0.00     0.075 A 
HETATM   10  C14 UNK     1       0.841  -5.493   2.820  1.00  0.00     0.071 A 
HETATM   11  C15 UNK     1       1.307  -6.114   1.661  1.00  0.00     0.074 A 
ENDROOT
BRANCH   3  12
HETATM   12  C2  UNK     1       0.087   0.096   0.713  1.00  0.00     0.006 A 
HETATM   13  C7  UNK     1      -1.228   0.499   0.480  1.00  0.00     0.054 A 
HETATM   14  C10 UNK     1      -1.591   1.834   0.660  1.00  0.00     0.105 A 
HETATM   15  C11 UNK     1      -0.639   2.766   1.073  1.00  0.00     0.135 A 
HETATM   16  C9  UNK     1       0.676   2.364   1.306  1.00  0.00     0.105 A 
HETATM   17  C8  UNK     1       1.039   1.029   1.126  1.00  0.00     0.054 A 
BRANCH  14  18
HETATM   18  O3  UNK     1      -2.879   2.214   0.429  1.00  0.00    -0.353 OA
HETATM   19  C17 UNK     1      -3.202   2.637  -0.894  1.00  0.00     0.210 C 
ENDBRANCH  14  18
BRANCH  15  20
HETATM   20  O4  UNK     1      -0.994   4.071   1.248  1.00  0.00    -0.351 OA
HETATM   21  C18 UNK     1      -0.316   5.039   0.451  1.00  0.00     0.210 C 
ENDBRANCH  15  20
BRANCH  16  22
HETATM   22  O2  UNK     1       1.615   3.265   1.709  1.00  0.00    -0.353 OA
HETATM   23  C16 UNK     1       1.773   3.451   3.114  1.00  0.00     0.210 C 
ENDBRANCH  16  22
ENDBRANCH   3  12
BRANCH   6  24
HETATM   24  O5  UNK     1       1.064  -1.003  -1.776  1.00  0.00    -0.355 OA
HETATM   25  H5  UNK     1       0.792  -0.093  -1.579  1.00  0.00     0.218 HD
ENDBRANCH   6  24
BRANCH  10  26
HETATM   26  O8  UNK     1       0.695  -6.213   3.966  1.00  0.00    -0.361 OA
HETATM   27  H16 UNK     1       0.961  -7.133   3.796  1.00  0.00     0.217 HD
ENDBRANCH  10  26
BRANCH   8  28
HETATM   28  O6  UNK     1       1.918  -6.035  -0.618  1.00  0.00    -0.360 OA
HETATM   29  H6  UNK     1       1.978  -5.430  -1.373  1.00  0.00     0.217 HD
ENDBRANCH   8  28
TORSDOF 7
