REMARK  5 active torsions:
REMARK  status: ('A' for Active; 'I' for Inactive)
REMARK    1  A    between atoms: C5_11  and  N1_4 
REMARK    2  A    between atoms: C6_12  and  N2_5 
REMARK    3  A    between atoms: C17_23  and  N3_6 
REMARK       I    between atoms: C9_15  and  N3_6 
REMARK    4  A    between atoms: C5_11  and  C7_13 
REMARK    5  A    between atoms: C6_12  and  C9_15 
ROOT
HETATM    1  N1  UNK     1       1.006   0.131  -1.427  1.00  0.00     0.096 N 
HETATM    2  N2  UNK     1      -1.723  -0.385  -0.623  1.00  0.00     0.100 N 
HETATM    3  C1  UNK     1       0.673  -0.980  -0.527  1.00  0.00     0.303 C 
HETATM    4  C2  UNK     1      -0.120   0.420  -2.323  1.00  0.00     0.303 C 
HETATM    5  C3  UNK     1      -0.597  -0.672   0.274  1.00  0.00     0.303 C 
HETATM    6  C4  UNK     1      -1.390   0.727  -1.522  1.00  0.00     0.303 C 
ENDROOT
BRANCH   1   7
HETATM    7  C5  UNK     1       2.216  -0.166  -2.193  1.00  0.00     0.312 C 
BRANCH   7   8
HETATM    8  C7  UNK     1       2.889   1.069  -2.680  1.00  0.00    -0.011 A 
HETATM    9  C10 UNK     1       2.582   1.602  -3.871  1.00  0.00     0.092 A 
HETATM   10  C13 UNK     1       3.221   2.822  -4.395  1.00  0.00     0.288 A 
HETATM   11  O1  UNK     1       4.179   3.417  -3.590  1.00  0.00    -0.275 OA
HETATM   12  O3  UNK     1       2.914   3.280  -5.490  1.00  0.00    -0.260 OA
HETATM   13  C11 UNK     1       4.523   2.880  -2.333  1.00  0.00     0.090 A 
HETATM   14  C8  UNK     1       3.909   1.724  -1.850  1.00  0.00     0.006 A 
HETATM   15  C14 UNK     1       5.502   3.564  -1.608  1.00  0.00     0.045 A 
HETATM   16  C12 UNK     1       4.308   1.254  -0.591  1.00  0.00     0.015 A 
HETATM   17  C16 UNK     1       5.287   1.928   0.147  1.00  0.00     0.007 A 
HETATM   18  C15 UNK     1       5.883   3.081  -0.361  1.00  0.00    -0.059 A 
HETATM   19  C18 UNK     1       6.926   3.794   0.431  1.00  0.00     0.048 C 
ENDBRANCH   7   8
ENDBRANCH   1   7
BRANCH   2  20
HETATM   20  C6  UNK     1      -2.933  -0.090   0.142  1.00  0.00     0.375 C 
BRANCH  20  21
HETATM   21  C9  UNK     1      -3.526  -1.385   0.668  1.00  0.00     0.250 C 
HETATM   22  O2  UNK     1      -3.400  -2.456   0.083  1.00  0.00    -0.271 OA
HETATM   23  N3  UNK     1      -4.195  -1.155   1.869  1.00  0.00    -0.326 N 
HETATM   24  H15 UNK     1      -4.213  -0.203   2.226  1.00  0.00     0.169 HD
BRANCH  23  25
HETATM   25  C17 UNK     1      -4.878  -2.100   2.671  1.00  0.00     0.035 A 
HETATM   26  C19 UNK     1      -5.498  -1.695   3.853  1.00  0.00     0.036 A 
HETATM   27  C21 UNK     1      -6.170  -2.627   4.643  1.00  0.00    -0.060 A 
HETATM   28  C23 UNK     1      -6.223  -3.964   4.251  1.00  0.00     0.007 A 
HETATM   29  C24 UNK     1      -6.833  -2.193   5.907  1.00  0.00     0.048 C 
HETATM   30  C22 UNK     1      -5.604  -4.370   3.069  1.00  0.00     0.003 A 
HETATM   31  C20 UNK     1      -4.931  -3.438   2.279  1.00  0.00     0.029 A 
ENDBRANCH  23  25
ENDBRANCH  20  21
ENDBRANCH   2  20
TORSDOF 5
