REMARK  3 active torsions:
REMARK  status: ('A' for Active; 'I' for Inactive)
REMARK    1  A    between atoms: C1_8  and  N1_5 
REMARK       I    between atoms: C5_12  and  N1_5 
REMARK    2  A    between atoms: C1_8  and  C2_9 
REMARK    3  A    between atoms: C5_12  and  C6_13 
ROOT
HETATM    1 Br1  UNK     1       5.736   2.520   1.023  1.00  0.00    -0.051 Br
HETATM    2  O1  UNK     1       1.452   1.524  -3.156  1.00  0.00    -0.274 OA
HETATM    3  O3  UNK     1      -0.494   0.514  -3.802  1.00  0.00    -0.259 OA
HETATM    4  C6  UNK     1       0.268   0.047  -1.608  1.00  0.00     0.108 A 
HETATM    5  C9  UNK     1       2.332   1.118  -0.926  1.00  0.00     0.000 A 
HETATM    6  C10 UNK     1       1.197   0.246  -0.665  1.00  0.00     0.037 A 
HETATM    7  C12 UNK     1       2.432   1.738  -2.168  1.00  0.00     0.089 A 
HETATM    8  C13 UNK     1       0.355   0.695  -2.935  1.00  0.00     0.304 A 
HETATM    9  C14 UNK     1       3.324   1.356   0.029  1.00  0.00     0.033 A 
HETATM   10  C15 UNK     1       3.493   2.585  -2.481  1.00  0.00     0.039 A 
HETATM   11  C16 UNK     1       4.394   2.203  -0.272  1.00  0.00     0.011 A 
HETATM   12  C17 UNK     1       4.479   2.816  -1.523  1.00  0.00     0.022 A 
ENDROOT
BRANCH   4  13
HETATM   13  C5  UNK     1      -0.837  -0.850  -1.250  1.00  0.00     0.259 C 
HETATM   14  O2  UNK     1      -0.707  -2.059  -1.474  1.00  0.00    -0.267 OA
HETATM   15  N1  UNK     1      -1.970  -0.279  -0.661  1.00  0.00    -0.348 N 
HETATM   16  C8  UNK     1      -2.079   1.157  -0.415  1.00  0.00     0.153 C 
BRANCH  15  17
HETATM   17  C1  UNK     1      -3.119  -1.077  -0.253  1.00  0.00     0.167 C 
BRANCH  17  18
HETATM   18  C2  UNK     1      -2.994  -1.558   1.164  1.00  0.00     0.003 A 
HETATM   19  C3  UNK     1      -3.431  -0.925   2.281  1.00  0.00     0.035 A 
HETATM   20  N2  UNK     1      -3.093  -1.755   3.309  1.00  0.00    -0.278 N 
HETATM   21  C7  UNK     1      -4.124   0.361   2.486  1.00  0.00     0.070 C 
HETATM   22  C11 UNK     1      -3.339  -1.540   4.716  1.00  0.00     0.179 C 
HETATM   23  N3  UNK     1      -2.467  -2.878   2.917  1.00  0.00    -0.184 NA
HETATM   24  C4  UNK     1      -2.411  -2.746   1.589  1.00  0.00     0.149 A 
ENDBRANCH  17  18
ENDBRANCH  15  17
ENDBRANCH   4  13
TORSDOF 3
