REMARK  3 active torsions:
REMARK  status: ('A' for Active; 'I' for Inactive)
REMARK    1  A    between atoms: C11_16  and  O3_4 
REMARK    2  A    between atoms: C13_18  and  O4_5 
REMARK    3  A    between atoms: C1_6  and  C3_8 
ROOT
HETATM    1 Cl1  UNK     1       4.430   3.195  -4.144  1.00  0.00    -0.084 Cl
HETATM    2  O1  UNK     1       0.118   0.437  -1.244  1.00  0.00    -0.340 OA
HETATM    3  O2  UNK     1       2.866   2.565   0.936  1.00  0.00    -0.292 OA
HETATM    4  C1  UNK     1       0.431   0.064   0.107  1.00  0.00     0.169 C 
HETATM    5  C2  UNK     1       0.838   1.283   0.932  1.00  0.00     0.121 C 
HETATM    6  C4  UNK     1       2.038   1.932   0.292  1.00  0.00     0.165 C 
HETATM    7  C5  UNK     1       2.124   1.823  -1.179  1.00  0.00     0.045 A 
HETATM    8  C6  UNK     1       1.145   1.099  -1.866  1.00  0.00     0.083 A 
HETATM    9  C9  UNK     1       3.145   2.469  -1.879  1.00  0.00     0.042 A 
HETATM   10  C10 UNK     1       1.169   1.051  -3.261  1.00  0.00     0.039 A 
HETATM   11  C14 UNK     1       3.175   2.401  -3.272  1.00  0.00     0.035 A 
HETATM   12  C15 UNK     1       2.187   1.697  -3.962  1.00  0.00     0.026 A 
ENDROOT
BRANCH   4  13
HETATM   13  C3  UNK     1      -0.778  -0.622   0.707  1.00  0.00    -0.026 A 
HETATM   14  C7  UNK     1      -1.971   0.082   0.865  1.00  0.00     0.049 A 
HETATM   15  C11 UNK     1      -3.085  -0.549   1.418  1.00  0.00     0.102 A 
HETATM   16  C13 UNK     1      -3.005  -1.884   1.813  1.00  0.00     0.101 A 
HETATM   17  C12 UNK     1      -1.811  -2.588   1.655  1.00  0.00     0.040 A 
HETATM   18  C8  UNK     1      -0.697  -1.957   1.102  1.00  0.00     0.012 A 
BRANCH  15  19
HETATM   19  O3  UNK     1      -4.245   0.149   1.568  1.00  0.00    -0.353 OA
HETATM   20  C16 UNK     1      -4.426   0.847   2.799  1.00  0.00     0.210 C 
ENDBRANCH  15  19
BRANCH  16  21
HETATM   21  O4  UNK     1      -4.086  -2.512   2.354  1.00  0.00    -0.353 OA
HETATM   22  C17 UNK     1      -4.969  -3.176   1.452  1.00  0.00     0.210 C 
ENDBRANCH  16  21
ENDBRANCH   4  13
TORSDOF 3
