REMARK  3 active torsions:
REMARK  status: ('A' for Active; 'I' for Inactive)
REMARK    1  A    between atoms: C10_17  and  N2_7 
REMARK       I    between atoms: C13_20  and  N2_7 
REMARK    2  A    between atoms: C2_9  and  C5_12 
REMARK    3  A    between atoms: C13_20  and  C14_21 
ROOT
HETATM    1  S1  UNK     1      -2.176  -1.094  -2.128  1.00  0.00    -0.061 SA
HETATM    2  N1  UNK     1      -0.668  -0.225  -0.217  1.00  0.00    -0.223 NA
HETATM    3  C5  UNK     1      -0.029   0.029  -1.410  1.00  0.00     0.082 A 
HETATM    4  C9  UNK     1      -0.683  -0.365  -2.553  1.00  0.00     0.086 A 
HETATM    5  C10 UNK     1      -1.813  -0.816  -0.474  1.00  0.00     0.174 A 
ENDROOT
BRANCH   3   6
HETATM    6  C2  UNK     1       1.257   0.681  -1.391  1.00  0.00     0.070 A 
HETATM    7  C3  UNK     1       1.666   1.472  -2.397  1.00  0.00     0.034 A 
HETATM    8  C1  UNK     1       2.962   2.130  -2.370  1.00  0.00    -0.001 A 
HETATM    9  C4  UNK     1       3.788   1.935  -1.271  1.00  0.00     0.089 A 
HETATM   10  C7  UNK     1       3.402   2.954  -3.408  1.00  0.00     0.014 A 
HETATM   11  O1  UNK     1       3.376   1.110  -0.210  1.00  0.00    -0.274 OA
HETATM   12  C8  UNK     1       5.041   2.538  -1.179  1.00  0.00     0.038 A 
HETATM   13  C6  UNK     1       2.148   0.453  -0.214  1.00  0.00     0.301 A 
HETATM   14  O2  UNK     1       1.828  -0.283   0.715  1.00  0.00    -0.259 OA
HETATM   15  C12 UNK     1       5.474   3.358  -2.218  1.00  0.00     0.003 A 
HETATM   16  C11 UNK     1       4.657   3.566  -3.331  1.00  0.00     0.001 A 
ENDBRANCH   3   6
BRANCH   5  17
HETATM   17  N2  UNK     1      -2.756  -1.242   0.424  1.00  0.00    -0.301 N 
HETATM   18  C13 UNK     1      -2.739  -1.154   1.839  1.00  0.00     0.264 C 
HETATM   19  O3  UNK     1      -1.844  -0.665   2.520  1.00  0.00    -0.267 OA
HETATM   20  H7  UNK     1      -3.569  -1.680  -0.002  1.00  0.00     0.171 HD
BRANCH  18  21
HETATM   21  C14 UNK     1      -3.909  -1.736   2.546  1.00  0.00     0.072 A 
HETATM   22  S2  UNK     1      -5.118  -2.430   1.601  1.00  0.00    -0.097 SA
HETATM   23  C17 UNK     1      -6.001  -2.820   3.016  1.00  0.00     0.050 A 
HETATM   24  C16 UNK     1      -5.352  -2.412   4.160  1.00  0.00     0.009 A 
HETATM   25  C15 UNK     1      -4.113  -1.770   3.872  1.00  0.00     0.025 A 
ENDBRANCH  18  21
ENDBRANCH   5  17
TORSDOF 3
