REMARK  4 active torsions:
REMARK  status: ('A' for Active; 'I' for Inactive)
REMARK    1  A    between atoms: C9_14  and  O2_2 
REMARK    2  A    between atoms: C6_11  and  O3_3 
REMARK    3  A    between atoms: C15_20  and  O5_5 
REMARK    4  A    between atoms: C3_8  and  C5_10 
ROOT
HETATM    1  O1  UNK     1      -0.297   0.122  -0.718  1.00  0.00    -0.309 OA
HETATM    2  O4  UNK     1       0.414  -0.202   3.280  1.00  0.00    -0.287 OA
HETATM    3  C1  UNK     1      -1.071  -0.566   1.479  1.00  0.00     0.081 A 
HETATM    4  C2  UNK     1      -1.249  -0.426   0.104  1.00  0.00     0.095 A 
HETATM    5  C3  UNK     1       0.889   0.563  -0.152  1.00  0.00     0.090 A 
HETATM    6  C4  UNK     1       0.190  -0.108   2.082  1.00  0.00     0.190 A 
HETATM    7  C6  UNK     1      -2.075  -1.133   2.267  1.00  0.00     0.085 A 
HETATM    8  C7  UNK     1       1.181   0.477   1.156  1.00  0.00     0.094 A 
HETATM    9  C8  UNK     1      -2.435  -0.855  -0.493  1.00  0.00     0.075 A 
HETATM   10  C9  UNK     1      -3.441  -1.421   0.291  1.00  0.00     0.073 A 
HETATM   11  C10 UNK     1      -3.261  -1.560   1.668  1.00  0.00     0.074 A 
ENDROOT
BRANCH   5  12
HETATM   12  C5  UNK     1       1.844   1.130  -1.126  1.00  0.00    -0.002 A 
HETATM   13  C11 UNK     1       2.748   2.118  -0.728  1.00  0.00     0.017 A 
HETATM   14  C13 UNK     1       3.650   2.653  -1.649  1.00  0.00     0.037 A 
HETATM   15  C15 UNK     1       3.650   2.202  -2.968  1.00  0.00     0.065 A 
HETATM   16  C14 UNK     1       2.749   1.215  -3.368  1.00  0.00     0.037 A 
HETATM   17  C12 UNK     1       1.847   0.680  -2.448  1.00  0.00     0.017 A 
BRANCH  15  18
HETATM   18  O5  UNK     1       4.529   2.725  -3.866  1.00  0.00    -0.361 OA
HETATM   19  H12 UNK     1       5.077   3.393  -3.418  1.00  0.00     0.217 HD
ENDBRANCH  15  18
ENDBRANCH   5  12
BRANCH   7  20
HETATM   20  O3  UNK     1      -1.949  -1.291   3.614  1.00  0.00    -0.360 OA
HETATM   21  H8  UNK     1      -1.091  -0.958   3.917  1.00  0.00     0.217 HD
ENDBRANCH   7  20
BRANCH  10  22
HETATM   22  O2  UNK     1      -4.599  -1.840  -0.289  1.00  0.00    -0.356 OA
HETATM   23  C16 UNK     1      -4.717  -1.670  -1.701  1.00  0.00     0.210 C 
ENDBRANCH  10  22
TORSDOF 4
