REMARK  3 active torsions:
REMARK  status: ('A' for Active; 'I' for Inactive)
REMARK    1  A    between atoms: C7_11  and  N1_3 
REMARK    2  A    between atoms: C8_12  and  N2_4 
REMARK    3  A    between atoms: C12_16  and  C7_11 
ROOT
HETATM    1  O1  UNK     1      -0.187   0.302   2.577  1.00  0.00    -0.274 OA
HETATM    2  O2  UNK     1       1.411   1.791   1.961  1.00  0.00    -0.259 OA
HETATM    3  C8  UNK     1      -0.868  -0.007  -0.165  1.00  0.00     0.057 A 
HETATM    4  C12 UNK     1       0.123   0.836   0.203  1.00  0.00     0.073 A 
HETATM    5  C13 UNK     1      -1.586  -0.763   0.889  1.00  0.00     0.025 A 
HETATM    6  C14 UNK     1       0.511   1.026   1.629  1.00  0.00     0.298 A 
HETATM    7  C15 UNK     1      -1.219  -0.580   2.221  1.00  0.00     0.092 A 
HETATM    8  C16 UNK     1      -2.632  -1.670   0.643  1.00  0.00     0.016 A 
HETATM    9  C17 UNK     1      -1.841  -1.251   3.278  1.00  0.00     0.038 A 
HETATM   10  C18 UNK     1      -3.267  -2.351   1.690  1.00  0.00     0.001 A 
HETATM   11  C19 UNK     1      -2.871  -2.142   3.007  1.00  0.00     0.003 A 
ENDROOT
BRANCH   3  12
HETATM   12  N2  UNK     1      -1.253  -0.208  -1.459  1.00  0.00    -0.379 N 
HETATM   13  C5  UNK     1      -2.295   0.599  -2.098  1.00  0.00     0.123 C 
HETATM   14  C9  UNK     1      -1.775   1.170  -3.416  1.00  0.00     0.020 C 
HETATM   15  C11 UNK     1      -1.230   0.068  -4.322  1.00  0.00     0.003 C 
HETATM   16  C10 UNK     1      -0.182  -0.768  -3.589  1.00  0.00     0.020 C 
HETATM   17  C6  UNK     1      -0.728  -1.308  -2.268  1.00  0.00     0.123 C 
ENDBRANCH   3  12
BRANCH   4  18
HETATM   18  C7  UNK     1       0.940   1.669  -0.753  1.00  0.00     0.319 C 
BRANCH  18  19
HETATM   19  N1  UNK     1       2.358   1.610  -0.431  1.00  0.00     0.092 N 
HETATM   20  C1  UNK     1       3.172   2.411  -1.346  1.00  0.00     0.273 C 
HETATM   21  C3  UNK     1       4.582   1.904  -1.080  1.00  0.00     0.032 C 
HETATM   22  C4  UNK     1       4.402   0.486  -0.548  1.00  0.00     0.032 C 
HETATM   23  C2  UNK     1       2.898   0.254  -0.532  1.00  0.00     0.273 C 
ENDBRANCH  18  19
ENDBRANCH   4  18
TORSDOF 3
