REMARK  7 active torsions:
REMARK  status: ('A' for Active; 'I' for Inactive)
REMARK    1  A    between atoms: C5_10  and  O1_1 
REMARK    2  A    between atoms: C6_11  and  O1_1 
REMARK    3  A    between atoms: C14_19  and  O3_3 
REMARK    4  A    between atoms: C17_22  and  O3_3 
REMARK    5  A    between atoms: C3_8  and  C7_12 
REMARK    6  A    between atoms: C14_19  and  C5_10 
REMARK    7  A    between atoms: C5_10  and  C8_13 
ROOT
HETATM    1  O2  UNK     1      -0.712  -0.864   1.870  1.00  0.00    -0.274 OA
HETATM    2  O4  UNK     1      -1.551  -1.466   3.891  1.00  0.00    -0.259 OA
HETATM    3  C1  UNK     1      -2.123  -0.925  -0.112  1.00  0.00     0.005 A 
HETATM    4  C2  UNK     1      -3.249  -1.388   0.726  1.00  0.00    -0.037 A 
HETATM    5  C3  UNK     1      -3.052  -1.596   2.045  1.00  0.00     0.024 A 
HETATM    6  C4  UNK     1      -0.893  -0.678   0.491  1.00  0.00     0.092 A 
HETATM    7  C6  UNK     1       0.114  -0.041  -1.599  1.00  0.00     0.072 A 
HETATM    8  C9  UNK     1      -2.207  -0.725  -1.499  1.00  0.00     0.017 A 
HETATM    9  C10 UNK     1       0.222  -0.239  -0.227  1.00  0.00     0.075 A 
HETATM   10  C11 UNK     1      -1.100  -0.286  -2.235  1.00  0.00     0.038 A 
HETATM   11  C12 UNK     1      -1.735  -1.316   2.687  1.00  0.00     0.295 A 
HETATM   12  C13 UNK     1      -4.575  -1.586   0.036  1.00  0.00     0.050 C 
ENDROOT
BRANCH   7  13
HETATM   13  O1  UNK     1       1.188   0.385  -2.316  1.00  0.00    -0.336 OA
BRANCH  13  14
HETATM   14  C5  UNK     1       1.750   1.647  -1.957  1.00  0.00     0.228 C 
BRANCH  14  15
HETATM   15  C14 UNK     1       3.177   1.412  -1.502  1.00  0.00     0.288 C 
HETATM   16  O5  UNK     1       3.737   0.324  -1.508  1.00  0.00    -0.262 OA
BRANCH  15  17
HETATM   17  O3  UNK     1       3.720   2.587  -1.066  1.00  0.00    -0.320 OA
BRANCH  17  18
HETATM   18  C17 UNK     1       5.064   2.503  -0.579  1.00  0.00     0.174 C 
HETATM   19  C18 UNK     1       5.515   3.878  -0.137  1.00  0.00     0.034 C 
ENDBRANCH  17  18
ENDBRANCH  15  17
ENDBRANCH  14  15
BRANCH  14  20
HETATM   20  C8  UNK     1       1.706   2.577  -3.170  1.00  0.00     0.038 C 
HETATM   21  C16 UNK     1       2.457   2.004  -4.364  1.00  0.00     0.008 C 
ENDBRANCH  14  20
ENDBRANCH  13  14
ENDBRANCH   7  13
BRANCH   5  22
HETATM   22  C7  UNK     1      -4.093  -2.125   2.999  1.00  0.00     0.041 C 
HETATM   23  C15 UNK     1      -4.896  -1.002   3.618  1.00  0.00     0.010 C 
ENDBRANCH   5  22
TORSDOF 7
