REMARK  3 active torsions:
REMARK  status: ('A' for Active; 'I' for Inactive)
REMARK       I    between atoms: C12_16  and  N1_4 
REMARK    1  A    between atoms: C7_11  and  N1_4 
REMARK    2  A    between atoms: C12_16  and  C5_9 
REMARK    3  A    between atoms: C11_15  and  C7_11 
ROOT
HETATM    1  O1  UNK     1       1.033  -0.040  -0.358  1.00  0.00    -0.304 OA
HETATM    2  O2  UNK     1       0.876   2.092  -3.831  1.00  0.00    -0.287 OA
HETATM    3  C1  UNK     1       2.060   1.584  -1.847  1.00  0.00     0.048 A 
HETATM    4  C2  UNK     1       2.050   0.825  -0.676  1.00  0.00     0.090 A 
HETATM    5  C3  UNK     1       3.122   2.449  -2.119  1.00  0.00     0.025 A 
HETATM    6  C4  UNK     1       4.175   2.551  -1.211  1.00  0.00    -0.061 A 
HETATM    7  C5  UNK     1      -0.016  -0.152  -1.246  1.00  0.00     0.147 A 
HETATM    8  C6  UNK     1       0.933   1.456  -2.788  1.00  0.00     0.187 A 
HETATM    9  C8  UNK     1       3.106   0.929   0.231  1.00  0.00     0.039 A 
HETATM   10  C9  UNK     1      -0.136   0.513  -2.402  1.00  0.00     0.098 A 
HETATM   11  C10 UNK     1       4.168   1.793  -0.038  1.00  0.00     0.009 A 
HETATM   12  C13 UNK     1       5.314   3.474  -1.491  1.00  0.00     0.048 C 
ENDROOT
BRANCH   7  13
HETATM   13  C12 UNK     1      -1.091  -1.080  -0.888  1.00  0.00     0.275 C 
HETATM   14  O3  UNK     1      -2.066  -1.237  -1.625  1.00  0.00    -0.265 OA
HETATM   15  N1  UNK     1      -0.876  -1.718   0.322  1.00  0.00    -0.351 N 
HETATM   16  H7  UNK     1      -0.039  -1.502   0.857  1.00  0.00     0.163 HD
BRANCH  15  17
HETATM   17  C7  UNK     1      -1.799  -2.676   0.886  1.00  0.00     0.161 C 
BRANCH  17  18
HETATM   18  C11 UNK     1      -2.794  -1.965   1.752  1.00  0.00    -0.041 A 
HETATM   19  C14 UNK     1      -2.528  -1.775   3.108  1.00  0.00     0.009 A 
HETATM   20  C16 UNK     1      -3.455  -1.113   3.914  1.00  0.00     0.001 A 
HETATM   21  C18 UNK     1      -4.646  -0.641   3.364  1.00  0.00     0.000 A 
HETATM   22  C17 UNK     1      -4.912  -0.830   2.007  1.00  0.00     0.001 A 
HETATM   23  C15 UNK     1      -3.986  -1.493   1.201  1.00  0.00     0.009 A 
ENDBRANCH  17  18
ENDBRANCH  15  17
ENDBRANCH   7  13
TORSDOF 3
