REMARK  7 active torsions:
REMARK  status: ('A' for Active; 'I' for Inactive)
REMARK    1  A    between atoms: C11_17  and  O2_2 
REMARK    2  A    between atoms: C17_23  and  O2_2 
REMARK    3  A    between atoms: C1_7  and  C10_16 
REMARK    4  A    between atoms: C11_17  and  C6_12 
REMARK    5  A    between atoms: C17_23  and  C18_24 
REMARK    6  A    between atoms: C18_24  and  C19_25 
REMARK    7  A    between atoms: C19_25  and  C22_28 
ROOT
HETATM    1  O1  UNK     1      -2.303  -3.102  -0.740  1.00  0.00    -0.293 OA
HETATM    2  N1  UNK     1      -2.398   0.398   2.450  1.00  0.00    -0.362 N 
HETATM    3  C1  UNK     1      -0.747  -1.290   0.878  1.00  0.00     0.104 C 
HETATM    4  C2  UNK     1      -2.269  -1.286   0.790  1.00  0.00     0.024 C 
HETATM    5  C3  UNK     1      -3.009  -0.445   1.542  1.00  0.00     0.020 C 
HETATM    6  C4  UNK     1      -4.510  -0.363   1.458  1.00  0.00     0.058 C 
HETATM    7  C5  UNK     1      -5.043  -0.917   0.142  1.00  0.00     0.014 C 
HETATM    8  C6  UNK     1      -0.216  -0.411   2.015  1.00  0.00     0.052 C 
HETATM    9  C7  UNK     1      -4.466  -2.293  -0.138  1.00  0.00     0.084 C 
HETATM   10  C8  UNK     1      -2.953  -2.275  -0.101  1.00  0.00     0.158 C 
HETATM   11  C9  UNK     1      -1.039   0.392   2.729  1.00  0.00     0.018 C 
HETATM   12  C12 UNK     1      -0.635   1.298   3.861  1.00  0.00     0.069 C 
HETATM   13  H8  UNK     1      -2.990   1.006   3.003  1.00  0.00     0.165 HD
ENDROOT
BRANCH   3  14
HETATM   14  C10 UNK     1      -0.150  -0.860  -0.435  1.00  0.00     0.029 A 
HETATM   15  C13 UNK     1      -0.444   0.508  -0.932  1.00  0.00     0.194 A 
HETATM   16  O5  UNK     1      -1.151   1.289  -0.310  1.00  0.00    -0.287 OA
HETATM   17  C15 UNK     1       0.165   0.878  -2.224  1.00  0.00     0.048 A 
HETATM   18  C16 UNK     1       0.963  -0.053  -2.890  1.00  0.00     0.089 A 
HETATM   19  C20 UNK     1      -0.052   2.143  -2.777  1.00  0.00     0.018 A 
HETATM   20  O3  UNK     1       1.209  -1.308  -2.393  1.00  0.00    -0.321 OA
HETATM   21  C21 UNK     1       1.549   0.276  -4.112  1.00  0.00     0.038 A 
HETATM   22  C14 UNK     1       0.635  -1.639  -1.190  1.00  0.00     0.154 A 
HETATM   23  C24 UNK     1       1.334   1.538  -4.667  1.00  0.00     0.003 A 
HETATM   24  C23 UNK     1       0.536   2.469  -4.000  1.00  0.00     0.001 A 
ENDBRANCH   3  14
BRANCH   8  25
HETATM   25  C11 UNK     1       1.229  -0.504   2.283  1.00  0.00     0.292 C 
HETATM   26  O4  UNK     1       1.714  -1.305   3.061  1.00  0.00    -0.259 OA
BRANCH  25  27
HETATM   27  O2  UNK     1       1.864   0.427   1.531  1.00  0.00    -0.318 OA
BRANCH  27  28
HETATM   28  C17 UNK     1       3.287   0.460   1.682  1.00  0.00     0.179 C 
BRANCH  28  29
HETATM   29  C18 UNK     1       3.910   0.926   0.374  1.00  0.00     0.027 C 
BRANCH  29  30
HETATM   30  C19 UNK     1       3.414   2.315  -0.023  1.00  0.00     0.002 C 
BRANCH  30  31
HETATM   31  C22 UNK     1       4.011   2.758  -1.359  1.00  0.00    -0.004 C 
HETATM   32  C25 UNK     1       3.494   4.126  -1.774  1.00  0.00     0.005 C 
ENDBRANCH  30  31
ENDBRANCH  29  30
ENDBRANCH  28  29
ENDBRANCH  27  28
ENDBRANCH  25  27
ENDBRANCH   8  25
TORSDOF 7
