REMARK  4 active torsions:
REMARK  status: ('A' for Active; 'I' for Inactive)
REMARK    1  A    between atoms: C16_21  and  O2_2 
REMARK    2  A    between atoms: C9_14  and  O2_2 
REMARK    3  A    between atoms: C15_20  and  O4_4 
REMARK    4  A    between atoms: C7_12  and  C8_13 
ROOT
HETATM    1  O1  UNK     1      -0.115   0.108  -0.225  1.00  0.00    -0.306 OA
HETATM    2  O3  UNK     1      -0.994  -0.919  -3.498  1.00  0.00    -0.284 OA
HETATM    3  C1  UNK     1       0.736   0.297  -2.364  1.00  0.00     0.051 A 
HETATM    4  C2  UNK     1       0.898   0.601  -1.014  1.00  0.00     0.093 A 
HETATM    5  C3  UNK     1      -0.982  -0.548  -1.091  1.00  0.00     0.127 A 
HETATM    6  C4  UNK     1      -0.498  -0.468  -2.491  1.00  0.00     0.218 A 
HETATM    7  C5  UNK     1       1.638   0.696  -3.328  1.00  0.00     0.021 A 
HETATM    8  C6  UNK     1       1.984   1.325  -0.571  1.00  0.00     0.075 A 
HETATM    9  C7  UNK     1      -2.102  -1.168  -0.717  1.00  0.00     0.053 C 
HETATM   10  C9  UNK     1       2.915   1.742  -1.528  1.00  0.00     0.081 A 
HETATM   11  C10 UNK     1       2.744   1.431  -2.892  1.00  0.00     0.038 A 
ENDROOT
BRANCH   9  12
HETATM   12  C8  UNK     1      -2.614  -1.269   0.663  1.00  0.00    -0.033 A 
HETATM   13  C11 UNK     1      -2.248  -2.351   1.444  1.00  0.00     0.014 A 
HETATM   14  C13 UNK     1      -2.734  -2.445   2.749  1.00  0.00     0.037 A 
HETATM   15  C15 UNK     1      -3.577  -1.455   3.253  1.00  0.00     0.068 A 
HETATM   16  C14 UNK     1      -3.937  -0.371   2.451  1.00  0.00     0.037 A 
HETATM   17  C12 UNK     1      -3.451  -0.277   1.147  1.00  0.00     0.014 A 
BRANCH  15  18
HETATM   18  O4  UNK     1      -4.050  -1.548   4.525  1.00  0.00    -0.356 OA
HETATM   19  C18 UNK     1      -4.908  -0.501   4.977  1.00  0.00     0.210 C 
ENDBRANCH  15  18
ENDBRANCH   9  12
BRANCH  10  20
HETATM   20  O2  UNK     1       4.006   2.460  -1.137  1.00  0.00    -0.279 OA
BRANCH  20  21
HETATM   21  C16 UNK     1       3.806   3.849  -1.138  1.00  0.00     0.260 C 
HETATM   22  O5  UNK     1       2.773   4.424  -1.453  1.00  0.00    -0.265 OA
HETATM   23  C17 UNK     1       5.058   4.547  -0.696  1.00  0.00     0.126 C 
ENDBRANCH  20  21
ENDBRANCH  10  20
TORSDOF 4
