REMARK  6 active torsions:
REMARK  status: ('A' for Active; 'I' for Inactive)
REMARK    1  A    between atoms: C17_24  and  O1_2 
REMARK    2  A    between atoms: C8_15  and  O1_2 
REMARK    3  A    between atoms: C5_12  and  N1_7 
REMARK       I    between atoms: C9_16  and  N1_7 
REMARK    4  A    between atoms: C1_8  and  C3_10 
REMARK    5  A    between atoms: C2_9  and  C8_15 
REMARK    6  A    between atoms: C10_17  and  C9_16 
ROOT
HETATM    1  O4  UNK     1      -0.893  -0.091  -2.625  1.00  0.00    -0.267 OA
HETATM    2  N1  UNK     1      -0.711  -0.224  -0.276  1.00  0.00    -0.316 N 
HETATM    3  C9  UNK     1      -0.282   0.051  -1.567  1.00  0.00     0.262 C 
HETATM    4  H6  UNK     1      -0.094  -0.035   0.508  1.00  0.00     0.169 HD
ENDROOT
BRANCH   2   5
HETATM    5  C5  UNK     1      -1.962  -0.733   0.086  1.00  0.00     0.094 A 
HETATM    6  C2  UNK     1      -2.471  -1.033   1.309  1.00  0.00     0.080 A 
HETATM    7  C1  UNK     1      -3.802  -1.531   1.204  1.00  0.00    -0.027 A 
HETATM    8  C4  UNK     1      -4.233  -1.583  -0.103  1.00  0.00    -0.012 A 
HETATM    9  S1  UNK     1      -3.036  -1.032  -1.197  1.00  0.00    -0.076 SA
HETATM   10  C7  UNK     1      -5.539  -2.034  -0.634  1.00  0.00     0.057 C 
BRANCH   6  11
HETATM   11  C8  UNK     1      -1.738  -0.858   2.538  1.00  0.00     0.296 C 
HETATM   12  O3  UNK     1      -1.903  -1.559   3.547  1.00  0.00    -0.259 OA
BRANCH  11  13
HETATM   13  O1  UNK     1      -0.822   0.171   2.501  1.00  0.00    -0.318 OA
BRANCH  13  14
HETATM   14  C17 UNK     1      -0.059   0.401   3.691  1.00  0.00     0.174 C 
HETATM   15  C20 UNK     1       0.884   1.561   3.455  1.00  0.00     0.034 C 
ENDBRANCH  13  14
ENDBRANCH  11  13
ENDBRANCH   6  11
BRANCH   7  16
HETATM   16  C3  UNK     1      -4.629  -1.946   2.365  1.00  0.00     0.036 C 
HETATM   17  C6  UNK     1      -4.455  -3.425   2.712  1.00  0.00     0.010 C 
ENDBRANCH   7  16
ENDBRANCH   2   5
BRANCH   3  18
HETATM   18  C10 UNK     1       1.088   0.575  -1.588  1.00  0.00     0.108 A 
HETATM   19  C12 UNK     1       1.384   1.418  -2.584  1.00  0.00     0.037 A 
HETATM   20  C11 UNK     1       2.717   1.991  -2.690  1.00  0.00    -0.001 A 
HETATM   21  C13 UNK     1       3.674   1.647  -1.740  1.00  0.00     0.089 A 
HETATM   22  C15 UNK     1       3.069   2.875  -3.712  1.00  0.00     0.014 A 
HETATM   23  O2  UNK     1       3.357   0.759  -0.694  1.00  0.00    -0.274 OA
HETATM   24  C16 UNK     1       4.969   2.159  -1.785  1.00  0.00     0.038 A 
HETATM   25  C14 UNK     1       2.090   0.195  -0.567  1.00  0.00     0.304 A 
HETATM   26  O5  UNK     1       1.824  -0.578   0.347  1.00  0.00    -0.259 OA
HETATM   27  C19 UNK     1       5.312   3.040  -2.808  1.00  0.00     0.003 A 
HETATM   28  C18 UNK     1       4.365   3.397  -3.770  1.00  0.00     0.001 A 
ENDBRANCH   3  18
TORSDOF 6
