REMARK  0 active torsions:
REMARK  status: ('A' for Active; 'I' for Inactive)
ROOT
HETATM    1 Br1  UNK     1       3.461   1.923  -1.402  1.00  0.00    -0.045 Br
HETATM    2  F1  UNK     1      -2.382  -1.262   2.573  1.00  0.00    -0.206 F 
HETATM    3  O1  UNK     1      -0.245   0.290  -2.250  1.00  0.00    -0.320 OA
HETATM    4  O2  UNK     1       1.957   0.929   1.129  1.00  0.00    -0.286 OA
HETATM    5  C1  UNK     1      -0.030   0.112   0.163  1.00  0.00     0.052 A 
HETATM    6  C2  UNK     1      -0.737  -0.081  -1.024  1.00  0.00     0.089 A 
HETATM    7  C3  UNK     1      -0.583  -0.286   1.383  1.00  0.00     0.060 A 
HETATM    8  C4  UNK     1       1.304   0.741   0.112  1.00  0.00     0.204 A 
HETATM    9  C5  UNK     1      -2.000  -0.674  -0.997  1.00  0.00     0.041 A 
HETATM   10  C6  UNK     1      -1.846  -0.878   1.407  1.00  0.00     0.117 A 
HETATM   11  C7  UNK     1      -2.554  -1.072   0.219  1.00  0.00     0.045 A 
HETATM   12  C8  UNK     1       1.791   1.124  -1.237  1.00  0.00     0.084 A 
HETATM   13  C9  UNK     1       0.998   0.874  -2.285  1.00  0.00     0.165 A 
ENDROOT
TORSDOF 0
