REMARK  4 active torsions:
REMARK  status: ('A' for Active; 'I' for Inactive)
REMARK    1  A    between atoms: C1_8  and  N1_5 
REMARK    2  A    between atoms: C3_10  and  N1_5 
REMARK    3  A    between atoms: C6_13  and  N2_6 
REMARK    4  A    between atoms: C5_12  and  N3_7 
ROOT
HETATM    1  O1  UNK     1       3.108   0.872  -2.100  1.00  0.00    -0.273 OA
HETATM    2  O2  UNK     1       2.071   0.396  -4.075  1.00  0.00    -0.257 OA
HETATM    3  C1  UNK     1       0.521   1.149  -0.896  1.00  0.00     0.085 A 
HETATM    4  C2  UNK     1       1.763   1.353  -0.106  1.00  0.00     0.027 A 
HETATM    5  C4  UNK     1       3.005   1.206  -0.735  1.00  0.00     0.092 A 
HETATM    6  C5  UNK     1       0.699   0.836  -2.191  1.00  0.00     0.205 A 
HETATM    7  C7  UNK     1       1.783   1.693   1.257  1.00  0.00     0.017 A 
HETATM    8  C12 UNK     1       4.218   1.380  -0.061  1.00  0.00     0.038 A 
HETATM    9  C13 UNK     1       1.985   0.679  -2.886  1.00  0.00     0.324 A 
HETATM   10  C14 UNK     1       2.991   1.871   1.945  1.00  0.00     0.001 A 
HETATM   11  C15 UNK     1       4.207   1.715   1.287  1.00  0.00     0.003 A 
ENDROOT
BRANCH   3  12
HETATM   12  N1  UNK     1      -0.683   1.291  -0.254  1.00  0.00    -0.353 N 
HETATM   13  H1  UNK     1      -0.923   2.249  -0.016  1.00  0.00     0.166 HD
BRANCH  12  14
HETATM   14  C3  UNK     1      -1.428   0.315   0.408  1.00  0.00     0.032 A 
HETATM   15  C8  UNK     1      -2.649   0.641   1.015  1.00  0.00     0.031 A 
HETATM   16  C10 UNK     1      -3.396  -0.336   1.674  1.00  0.00     0.031 A 
HETATM   17  C6  UNK     1      -2.929  -1.649   1.733  1.00  0.00     0.029 A 
HETATM   18  C11 UNK     1      -1.715  -1.985   1.133  1.00  0.00     0.031 A 
HETATM   19  C9  UNK     1      -0.969  -1.009   0.474  1.00  0.00     0.031 A 
BRANCH  17  20
HETATM   20  N2  UNK     1      -3.684  -2.637   2.398  1.00  0.00    -0.390 N 
HETATM   21  C16 UNK     1      -4.947  -2.298   3.023  1.00  0.00     0.149 C 
HETATM   22  C17 UNK     1      -3.215  -4.007   2.453  1.00  0.00     0.149 C 
ENDBRANCH  17  20
ENDBRANCH  12  14
ENDBRANCH   3  12
BRANCH   6  23
HETATM   23  N3  UNK     1      -0.472   0.633  -2.983  1.00  0.00    -0.107 N 
HETATM   24  O3  UNK     1      -1.563   0.760  -2.416  1.00  0.00    -0.531 OA
HETATM   25  O4  UNK     1      -0.301   0.345  -4.173  1.00  0.00    -0.531 OA
ENDBRANCH   6  23
TORSDOF 4
