REMARK  4 active torsions:
REMARK  status: ('A' for Active; 'I' for Inactive)
REMARK    1  A    between atoms: C15_19  and  O3_3 
REMARK    2  A    between atoms: C18_22  and  O4_4 
REMARK    3  A    between atoms: C1_5  and  C4_8 
REMARK    4  A    between atoms: C3_7  and  C6_10 
ROOT
HETATM    1  O1  UNK     1       0.774  -0.037  -3.063  1.00  0.00    -0.274 OA
HETATM    2  O2  UNK     1      -0.933  -1.514  -2.791  1.00  0.00    -0.259 OA
HETATM    3  C1  UNK     1       0.400   0.786  -0.365  1.00  0.00     0.004 A 
HETATM    4  C2  UNK     1       1.444   1.394  -1.217  1.00  0.00     0.010 A 
HETATM    5  C3  UNK     1      -0.386  -0.182  -0.899  1.00  0.00     0.062 A 
HETATM    6  C5  UNK     1       1.597   0.966  -2.531  1.00  0.00     0.093 A 
HETATM    7  C7  UNK     1      -0.220  -0.638  -2.310  1.00  0.00     0.300 A 
HETATM    8  C8  UNK     1       2.307   2.401  -0.758  1.00  0.00     0.018 A 
HETATM    9  C9  UNK     1       2.564   1.501  -3.383  1.00  0.00     0.074 A 
HETATM   10  C14 UNK     1       3.282   2.949  -1.600  1.00  0.00     0.037 A 
HETATM   11  C15 UNK     1       3.411   2.499  -2.912  1.00  0.00     0.068 A 
ENDROOT
BRANCH   5  12
HETATM   12  C6  UNK     1      -1.436  -0.820  -0.103  1.00  0.00    -0.019 A 
HETATM   13  C12 UNK     1      -2.716  -0.279  -0.094  1.00  0.00     0.015 A 
HETATM   14  C16 UNK     1      -3.717  -0.887   0.663  1.00  0.00     0.037 A 
HETATM   15  C18 UNK     1      -3.431  -2.032   1.406  1.00  0.00     0.068 A 
HETATM   16  C17 UNK     1      -2.144  -2.569   1.392  1.00  0.00     0.037 A 
HETATM   17  C13 UNK     1      -1.143  -1.961   0.634  1.00  0.00     0.015 A 
BRANCH  15  18
HETATM   18  O4  UNK     1      -4.408  -2.626   2.145  1.00  0.00    -0.356 OA
HETATM   19  C22 UNK     1      -5.702  -2.025   2.114  1.00  0.00     0.210 C 
ENDBRANCH  15  18
ENDBRANCH   5  12
BRANCH   3  20
HETATM   20  C4  UNK     1       0.169   1.176   1.031  1.00  0.00    -0.024 A 
HETATM   21  C10 UNK     1      -0.726   2.198   1.316  1.00  0.00     0.012 A 
HETATM   22  C19 UNK     1      -0.946   2.569   2.643  1.00  0.00     0.001 A 
HETATM   23  C21 UNK     1      -0.268   1.914   3.672  1.00  0.00     0.000 A 
HETATM   24  C20 UNK     1       0.629   0.889   3.374  1.00  0.00     0.001 A 
HETATM   25  C11 UNK     1       0.849   0.518   2.047  1.00  0.00     0.012 A 
ENDBRANCH   3  20
BRANCH  11  26
HETATM   26  O3  UNK     1       4.359   3.033  -3.727  1.00  0.00    -0.361 OA
HETATM   27  H13 UNK     1       4.854   3.710  -3.234  1.00  0.00     0.217 HD
ENDBRANCH  11  26
TORSDOF 4
