REMARK  7 active torsions:
REMARK  status: ('A' for Active; 'I' for Inactive)
REMARK    1  A    between atoms: C1_6  and  N1_3 
REMARK    2  A    between atoms: C3_8  and  N1_3 
REMARK    3  A    between atoms: C4_9  and  N1_3 
REMARK    4  A    between atoms: C2_7  and  N2_4 
REMARK    5  A    between atoms: C5_10  and  N2_4 
REMARK    6  A    between atoms: C9_14  and  N3_5 
REMARK    7  A    between atoms: C1_6  and  C2_7 
ROOT
HETATM    1  O1  UNK     1       2.961   2.037  -0.414  1.00  0.00    -0.273 OA
HETATM    2  O2  UNK     1       2.998   1.997   1.856  1.00  0.00    -0.257 OA
HETATM    3  C5  UNK     1       0.778   0.233  -0.348  1.00  0.00     0.074 A 
HETATM    4  C6  UNK     1       1.321   0.714  -1.637  1.00  0.00     0.027 A 
HETATM    5  C9  UNK     1       1.337   0.661   0.806  1.00  0.00     0.130 A 
HETATM    6  C10 UNK     1       2.395   1.601  -1.623  1.00  0.00     0.092 A 
HETATM    7  C11 UNK     1       0.827   0.336  -2.897  1.00  0.00     0.017 A 
HETATM    8  C12 UNK     1       2.486   1.607   0.811  1.00  0.00     0.317 A 
HETATM    9  C13 UNK     1       2.972   2.108  -2.791  1.00  0.00     0.038 A 
HETATM   10  C14 UNK     1       1.393   0.834  -4.077  1.00  0.00     0.001 A 
HETATM   11  C15 UNK     1       2.465   1.720  -4.024  1.00  0.00     0.003 A 
ENDROOT
BRANCH   3  12
HETATM   12  N2  UNK     1      -0.283  -0.637  -0.375  1.00  0.00    -0.386 N 
HETATM   13  H9  UNK     1      -0.517  -1.099  -1.244  1.00  0.00     0.159 HD
BRANCH  12  14
HETATM   14  C2  UNK     1      -1.136  -0.833   0.755  1.00  0.00     0.150 C 
BRANCH  14  15
HETATM   15  C1  UNK     1      -2.545  -1.166   0.280  1.00  0.00     0.292 C 
BRANCH  15  16
HETATM   16  N1  UNK     1      -3.423  -1.396   1.420  1.00  0.00     0.089 N 
BRANCH  16  17
HETATM   17  C3  UNK     1      -2.911  -2.486   2.254  1.00  0.00     0.268 C 
HETATM   18  C7  UNK     1      -3.796  -2.672   3.471  1.00  0.00     0.037 C 
ENDBRANCH  16  17
BRANCH  16  19
HETATM   19  C4  UNK     1      -4.784  -1.697   0.971  1.00  0.00     0.268 C 
HETATM   20  C8  UNK     1      -5.311  -0.567   0.108  1.00  0.00     0.037 C 
ENDBRANCH  16  19
ENDBRANCH  15  16
ENDBRANCH  14  15
ENDBRANCH  12  14
ENDBRANCH   3  12
BRANCH   5  21
HETATM   21  N3  UNK     1       0.920   0.285   2.056  1.00  0.00    -0.392 N 
HETATM   22  H20 UNK     1       0.612  -0.662   2.218  1.00  0.00     0.156 HD
HETATM   23  H21 UNK     1       1.348   0.750   2.849  1.00  0.00     0.156 HD
ENDBRANCH   5  21
TORSDOF 7
