REMARK  4 active torsions:
REMARK  status: ('A' for Active; 'I' for Inactive)
REMARK    1  A    between atoms: C1_6  and  N1_5 
REMARK       I    between atoms: C12_17  and  N1_5 
REMARK    2  A    between atoms: C1_6  and  C3_8 
REMARK    3  A    between atoms: C2_7  and  C4_9 
REMARK    4  A    between atoms: C12_17  and  C13_18 
ROOT
HETATM    1  O2  UNK     1      -0.212  -0.600  -3.013  1.00  0.00    -0.267 OA
HETATM    2  N1  UNK     1      -1.079  -0.103  -0.907  1.00  0.00    -0.348 N 
HETATM    3  C12 UNK     1      -0.106  -0.112  -1.889  1.00  0.00     0.258 C 
HETATM    4  H7  UNK     1      -0.900   0.386  -0.034  1.00  0.00     0.163 HD
ENDROOT
BRANCH   3   5
HETATM    5  C13 UNK     1       1.138   0.545  -1.468  1.00  0.00     0.108 A 
HETATM    6  C15 UNK     1       1.855   1.129  -2.434  1.00  0.00     0.037 A 
HETATM    7  C14 UNK     1       3.102   1.806  -2.115  1.00  0.00     0.001 A 
HETATM    8  C16 UNK     1       3.533   1.834  -0.792  1.00  0.00     0.089 A 
HETATM    9  C18 UNK     1       3.884   2.428  -3.091  1.00  0.00     0.038 A 
HETATM   10  O1  UNK     1       2.773   1.218   0.222  1.00  0.00    -0.274 OA
HETATM   11  C19 UNK     1       4.718   2.465  -0.419  1.00  0.00     0.040 A 
HETATM   12  C17 UNK     1       1.576   0.563  -0.054  1.00  0.00     0.304 A 
HETATM   13  O3  UNK     1       0.921   0.029   0.835  1.00  0.00    -0.259 OA
HETATM   14  C21 UNK     1       5.491   3.084  -1.399  1.00  0.00     0.026 A 
HETATM   15  C20 UNK     1       5.075   3.066  -2.732  1.00  0.00     0.035 A 
HETATM   16 Cl1  UNK     1       6.034   3.833  -3.939  1.00  0.00    -0.084 Cl
ENDBRANCH   3   5
BRANCH   2  17
HETATM   17  C1  UNK     1      -2.388  -0.687  -1.089  1.00  0.00     0.114 C 
HETATM   18  C9  UNK     1      -3.325   0.334  -1.738  1.00  0.00     0.037 C 
BRANCH  17  19
HETATM   19  C3  UNK     1      -2.949  -1.211   0.218  1.00  0.00    -0.036 A 
HETATM   20  C5  UNK     1      -3.223  -2.561   0.340  1.00  0.00     0.010 A 
HETATM   21  C7  UNK     1      -3.739  -3.043   1.543  1.00  0.00     0.008 A 
HETATM   22  C4  UNK     1      -3.972  -2.167   2.603  1.00  0.00    -0.055 A 
HETATM   23  C8  UNK     1      -3.689  -0.809   2.460  1.00  0.00     0.008 A 
HETATM   24  C6  UNK     1      -3.173  -0.327   1.257  1.00  0.00     0.010 A 
BRANCH  22  25
HETATM   25  C2  UNK     1      -4.524  -2.682   3.889  1.00  0.00     0.010 C 
HETATM   26  C10 UNK     1      -5.899  -2.074   4.225  1.00  0.00     0.015 C 
HETATM   27  C11 UNK     1      -3.558  -2.475   5.070  1.00  0.00     0.015 C 
ENDBRANCH  22  25
ENDBRANCH  17  19
ENDBRANCH   2  17
TORSDOF 4
