REMARK  4 active torsions:
REMARK  status: ('A' for Active; 'I' for Inactive)
REMARK    1  A    between atoms: C14_20  and  O3_3 
REMARK    2  A    between atoms: C22_28  and  O3_3 
REMARK    3  A    between atoms: C12_18  and  C6_12 
REMARK    4  A    between atoms: C10_16  and  C14_20 
ROOT
HETATM    1  O1  UNK     1      -0.699   1.757  -2.601  1.00  0.00    -0.293 OA
HETATM    2  N1  UNK     1       3.343   0.641  -0.400  1.00  0.00    -0.362 N 
HETATM    3  C1  UNK     1       2.669   1.739  -3.944  1.00  0.00    -0.036 C 
HETATM    4  C2  UNK     1       3.351   0.902  -2.843  1.00  0.00     0.067 C 
HETATM    5  C3  UNK     1       1.183   1.362  -4.018  1.00  0.00     0.092 C 
HETATM    6  C4  UNK     1       2.595   0.880  -1.538  1.00  0.00     0.021 C 
HETATM    7  C5  UNK     1       1.270   1.118  -1.442  1.00  0.00     0.024 C 
HETATM    8  C6  UNK     1       0.554   1.078  -0.093  1.00  0.00     0.104 C 
HETATM    9  C7  UNK     1       0.491   1.454  -2.673  1.00  0.00     0.159 C 
HETATM   10  C8  UNK     1       2.830   3.247  -3.660  1.00  0.00     0.015 C 
HETATM   11  C9  UNK     1       3.337   1.435  -5.297  1.00  0.00     0.015 C 
HETATM   12  C10 UNK     1       1.533   1.001   1.082  1.00  0.00     0.052 C 
HETATM   13  C11 UNK     1       2.850   0.756   0.890  1.00  0.00     0.018 C 
HETATM   14  C13 UNK     1       3.876   0.603   1.980  1.00  0.00     0.069 C 
HETATM   15  H12 UNK     1       4.335   0.466  -0.512  1.00  0.00     0.165 HD
ENDROOT
BRANCH   8  16
HETATM   16  C12 UNK     1      -0.413  -0.079  -0.040  1.00  0.00     0.029 A 
HETATM   17  C15 UNK     1      -1.859   0.212   0.133  1.00  0.00     0.194 A 
HETATM   18  O5  UNK     1      -2.285   1.355   0.234  1.00  0.00    -0.287 OA
HETATM   19  C17 UNK     1      -2.759  -0.955   0.179  1.00  0.00     0.049 A 
HETATM   20  C18 UNK     1      -2.218  -2.235   0.060  1.00  0.00     0.089 A 
HETATM   21  C19 UNK     1      -4.137  -0.786   0.339  1.00  0.00     0.025 A 
HETATM   22  O2  UNK     1      -0.873  -2.459  -0.100  1.00  0.00    -0.321 OA
HETATM   23  C20 UNK     1      -3.051  -3.353   0.100  1.00  0.00     0.039 A 
HETATM   24  C16 UNK     1      -0.047  -1.363  -0.140  1.00  0.00     0.154 A 
HETATM   25  C23 UNK     1      -4.427  -3.187   0.260  1.00  0.00     0.009 A 
HETATM   26  C21 UNK     1      -4.968  -1.906   0.379  1.00  0.00    -0.061 A 
HETATM   27  C24 UNK     1      -6.441  -1.734   0.549  1.00  0.00     0.048 C 
ENDBRANCH   8  16
BRANCH  12  28
HETATM   28  C14 UNK     1       0.981   1.262   2.422  1.00  0.00     0.292 C 
HETATM   29  O4  UNK     1       0.898   2.377   2.904  1.00  0.00    -0.259 OA
BRANCH  28  30
HETATM   30  O3  UNK     1       0.610   0.080   2.970  1.00  0.00    -0.318 OA
BRANCH  30  31
HETATM   31  C22 UNK     1       0.050   0.170   4.284  1.00  0.00     0.174 C 
HETATM   32  C25 UNK     1      -0.314  -1.220   4.761  1.00  0.00     0.034 C 
ENDBRANCH  30  31
ENDBRANCH  28  30
ENDBRANCH  12  28
TORSDOF 4
