REMARK  3 active torsions:
REMARK  status: ('A' for Active; 'I' for Inactive)
REMARK    1  A    between atoms: C12_17  and  O2_3 
REMARK    2  A    between atoms: C5_10  and  O2_3 
REMARK    3  A    between atoms: C11_16  and  C12_17 
ROOT
HETATM    1 Cl1  UNK     1      -1.057  -0.012  -3.162  1.00  0.00    -0.081 Cl
HETATM    2  O1  UNK     1      -3.875  -1.478   0.793  1.00  0.00    -0.275 OA
HETATM    3  O3  UNK     1      -5.234  -2.146   2.507  1.00  0.00    -0.260 OA
HETATM    4  C1  UNK     1      -1.525  -0.993   1.251  1.00  0.00     0.007 A 
HETATM    5  C2  UNK     1      -1.758  -1.327   2.663  1.00  0.00    -0.043 A 
HETATM    6  C3  UNK     1      -2.595  -1.079   0.359  1.00  0.00     0.092 A 
HETATM    7  C4  UNK     1      -0.284  -0.589   0.740  1.00  0.00     0.054 A 
HETATM    8  C5  UNK     1      -0.134  -0.286  -0.618  1.00  0.00     0.102 A 
HETATM    9  C6  UNK     1      -2.461  -0.780  -0.998  1.00  0.00     0.065 A 
HETATM   10  C7  UNK     1      -1.221  -0.381  -1.486  1.00  0.00     0.070 A 
HETATM   11  C8  UNK     1      -2.985  -1.703   3.047  1.00  0.00     0.090 A 
HETATM   12  C9  UNK     1      -0.628  -1.242   3.648  1.00  0.00     0.049 C 
HETATM   13  C10 UNK     1      -4.124  -1.800   2.118  1.00  0.00     0.288 A 
ENDROOT
BRANCH   8  14
HETATM   14  O2  UNK     1       1.094   0.103  -1.067  1.00  0.00    -0.273 OA
BRANCH  14  15
HETATM   15  C12 UNK     1       1.313   1.480  -1.017  1.00  0.00     0.298 C 
HETATM   16  O4  UNK     1       0.517   2.314  -0.610  1.00  0.00    -0.259 OA
BRANCH  15  17
HETATM   17  C11 UNK     1       2.667   1.826  -1.520  1.00  0.00     0.039 A 
HETATM   18  C13 UNK     1       3.307   2.933  -1.003  1.00  0.00     0.017 A 
HETATM   19  C15 UNK     1       4.579   3.257  -1.476  1.00  0.00     0.001 A 
HETATM   20  C17 UNK     1       5.182   2.467  -2.455  1.00  0.00     0.000 A 
HETATM   21  C16 UNK     1       4.513   1.353  -2.961  1.00  0.00     0.001 A 
HETATM   22  C14 UNK     1       3.241   1.028  -2.488  1.00  0.00     0.017 A 
ENDBRANCH  15  17
ENDBRANCH  14  15
ENDBRANCH   8  14
TORSDOF 3
