REMARK  3 active torsions:
REMARK  status: ('A' for Active; 'I' for Inactive)
REMARK    1  A    between atoms: C8_12  and  O2_2 
REMARK    2  A    between atoms: C12_16  and  O4_4 
REMARK    3  A    between atoms: C1_5  and  C3_7 
ROOT
HETATM    1  O1  UNK     1       1.313   1.110   1.046  1.00  0.00    -0.313 OA
HETATM    2  O3  UNK     1      -0.777  -1.027  -1.714  1.00  0.00    -0.286 OA
HETATM    3  C1  UNK     1      -0.544  -0.361   0.559  1.00  0.00     0.057 A 
HETATM    4  C2  UNK     1       1.029   0.405  -1.254  1.00  0.00     0.049 A 
HETATM    5  C4  UNK     1       0.198   0.370   1.418  1.00  0.00     0.065 A 
HETATM    6  C5  UNK     1      -0.151  -0.385  -0.879  1.00  0.00     0.198 A 
HETATM    7  C6  UNK     1       1.702   1.115  -0.266  1.00  0.00     0.092 A 
HETATM    8  C7  UNK     1       1.473   0.447  -2.579  1.00  0.00     0.021 A 
HETATM    9  C9  UNK     1       2.826   1.874  -0.594  1.00  0.00     0.075 A 
HETATM   10  C11 UNK     1      -0.072   0.492   2.892  1.00  0.00     0.077 C 
HETATM   11  C12 UNK     1       3.272   1.919  -1.915  1.00  0.00     0.070 A 
HETATM   12  C13 UNK     1       2.597   1.206  -2.906  1.00  0.00     0.038 A 
ENDROOT
BRANCH   3  13
HETATM   13  C3  UNK     1      -1.708  -1.123   0.993  1.00  0.00     0.014 A 
HETATM   14  C10 UNK     1      -1.534  -2.444   1.405  1.00  0.00     0.015 A 
HETATM   15  C15 UNK     1      -2.633  -3.193   1.825  1.00  0.00     0.001 A 
HETATM   16  C16 UNK     1      -3.906  -2.622   1.832  1.00  0.00     0.003 A 
HETATM   17  C14 UNK     1      -4.079  -1.300   1.420  1.00  0.00     0.037 A 
HETATM   18  C8  UNK     1      -2.980  -0.551   1.000  1.00  0.00     0.079 A 
BRANCH  18  19
HETATM   19  O2  UNK     1      -3.177   0.739   0.603  1.00  0.00    -0.355 OA
HETATM   20  C17 UNK     1      -3.456   0.954  -0.779  1.00  0.00     0.210 C 
ENDBRANCH  18  19
ENDBRANCH   3  13
BRANCH  11  21
HETATM   21  O4  UNK     1       4.369   2.659  -2.238  1.00  0.00    -0.356 OA
HETATM   22  C18 UNK     1       4.771   2.660  -3.607  1.00  0.00     0.210 C 
ENDBRANCH  11  21
TORSDOF 3
