REMARK  6 active torsions:
REMARK  status: ('A' for Active; 'I' for Inactive)
REMARK    1  A    between atoms: C5_12  and  S1_1 
REMARK    2  A    between atoms: N1_6  and  S1_1 
REMARK       I    between atoms: C11_18  and  N2_7 
REMARK    3  A    between atoms: C8_15  and  N2_7 
REMARK    4  A    between atoms: C11_18  and  C12_19 
REMARK    5  A    between atoms: C12_19  and  C13_20 
REMARK    6  A    between atoms: C14_21  and  C15_22 
ROOT
HETATM    1  O4  UNK     1      -2.350   0.971   0.729  1.00  0.00    -0.267 OA
HETATM    2  N2  UNK     1      -1.093  -0.784  -0.187  1.00  0.00    -0.323 N 
HETATM    3  C11 UNK     1      -2.066  -0.221   0.652  1.00  0.00     0.257 C 
HETATM    4  H13 UNK     1      -0.972  -1.793  -0.131  1.00  0.00     0.169 HD
ENDROOT
BRANCH   2   5
HETATM    5  C8  UNK     1      -0.261  -0.134  -1.099  1.00  0.00     0.035 A 
HETATM    6  C10 UNK     1       0.655  -0.867  -1.853  1.00  0.00     0.031 A 
HETATM    7  C7  UNK     1       1.487  -0.217  -2.764  1.00  0.00     0.027 A 
HETATM    8  C5  UNK     1       1.392   1.157  -2.909  1.00  0.00     0.074 A 
HETATM    9  C6  UNK     1       0.488   1.900  -2.167  1.00  0.00     0.027 A 
HETATM   10  C9  UNK     1      -0.344   1.250  -1.256  1.00  0.00     0.031 A 
BRANCH   8  11
HETATM   11  S1  UNK     1       2.446   1.979  -4.062  1.00  0.00     0.243 S 
HETATM   12  O2  UNK     1       2.846   1.012  -5.062  1.00  0.00    -0.206 OA
HETATM   13  O3  UNK     1       1.808   3.222  -4.441  1.00  0.00    -0.206 OA
BRANCH  11  14
HETATM   14  N1  UNK     1       3.783   2.326  -3.052  1.00  0.00    -0.202 NA
HETATM   15  C1  UNK     1       3.488   3.184  -1.867  1.00  0.00     0.134 C 
HETATM   16  C3  UNK     1       4.804   3.601  -1.226  1.00  0.00     0.183 C 
HETATM   17  O1  UNK     1       5.561   2.448  -0.849  1.00  0.00    -0.389 OA
HETATM   18  C4  UNK     1       5.888   1.654  -1.992  1.00  0.00     0.183 C 
HETATM   19  C2  UNK     1       4.620   1.151  -2.667  1.00  0.00     0.134 C 
ENDBRANCH  11  14
ENDBRANCH   8  11
ENDBRANCH   2   5
BRANCH   3  20
HETATM   20  C12 UNK     1      -2.783  -1.234   1.516  1.00  0.00     0.043 C 
HETATM   21  C14 UNK     1      -2.244  -1.455   2.733  1.00  0.00     0.029 C 
BRANCH  20  22
HETATM   22  C13 UNK     1      -4.016  -1.907   1.058  1.00  0.00    -0.021 A 
HETATM   23  C16 UNK     1      -4.309  -3.174   1.532  1.00  0.00     0.012 A 
HETATM   24  C20 UNK     1      -5.473  -3.809   1.099  1.00  0.00     0.001 A 
HETATM   25  C22 UNK     1      -6.324  -3.169   0.199  1.00  0.00     0.000 A 
HETATM   26  C21 UNK     1      -6.012  -1.892  -0.268  1.00  0.00     0.001 A 
HETATM   27  C17 UNK     1      -4.848  -1.256   0.164  1.00  0.00     0.012 A 
ENDBRANCH  20  22
BRANCH  21  28
HETATM   28  C15 UNK     1      -1.025  -0.830   3.266  1.00  0.00    -0.035 A 
HETATM   29  C18 UNK     1       0.200  -1.450   3.071  1.00  0.00     0.011 A 
HETATM   30  C23 UNK     1       1.357  -0.856   3.577  1.00  0.00     0.001 A 
HETATM   31  C25 UNK     1       1.275   0.350   4.272  1.00  0.00     0.000 A 
HETATM   32  C24 UNK     1       0.037   0.963   4.461  1.00  0.00     0.001 A 
HETATM   33  C19 UNK     1      -1.120   0.370   3.955  1.00  0.00     0.011 A 
ENDBRANCH  21  28
ENDBRANCH   3  20
TORSDOF 6
