REMARK  3 active torsions:
REMARK  status: ('A' for Active; 'I' for Inactive)
REMARK       I    between atoms: C16_25  and  N1_7 
REMARK    1  A    between atoms: C7_16  and  N1_7 
REMARK    2  A    between atoms: C21_30  and  N2_8 
REMARK    3  A    between atoms: C12_21  and  C16_25 
ROOT
HETATM    1  S1  UNK     1      -3.563   0.846  -0.605  1.00  0.00    -0.082 SA
HETATM    2  N3  UNK     1      -0.373  -2.367   1.724  1.00  0.00    -0.191 NA
HETATM    3  C1  UNK     1      -4.216  -1.771   2.272  1.00  0.00    -0.017 A 
HETATM    4  C2  UNK     1      -3.648  -0.935   1.245  1.00  0.00     0.005 A 
HETATM    5  C3  UNK     1      -4.252  -1.350   3.601  1.00  0.00    -0.051 A 
HETATM    6  C4  UNK     1      -4.733  -3.015   1.917  1.00  0.00     0.019 A 
HETATM    7  C5  UNK     1      -2.296  -0.895   0.797  1.00  0.00     0.090 A 
HETATM    8  C6  UNK     1      -5.288  -3.842   2.893  1.00  0.00    -0.061 A 
HETATM    9  C7  UNK     1      -2.134   0.022  -0.192  1.00  0.00     0.098 A 
HETATM   10  C8  UNK     1      -4.807  -2.178   4.577  1.00  0.00     0.008 A 
HETATM   11  C9  UNK     1      -4.444  -0.038   0.567  1.00  0.00     0.065 A 
HETATM   12  C11 UNK     1      -5.325  -3.424   4.223  1.00  0.00     0.007 A 
HETATM   13  C14 UNK     1      -3.707  -0.022   4.018  1.00  0.00     0.049 C 
HETATM   14  C18 UNK     1      -5.842  -5.175   2.516  1.00  0.00     0.048 C 
HETATM   15  C23 UNK     1      -1.234  -1.708   1.309  1.00  0.00     0.103 C 
ENDROOT
BRANCH   9  16
HETATM   16  N1  UNK     1      -0.995   0.391  -0.914  1.00  0.00    -0.316 N 
HETATM   17  C16 UNK     1       0.313   0.355  -0.453  1.00  0.00     0.262 C 
HETATM   18  O2  UNK     1       0.728   0.003   0.650  1.00  0.00    -0.267 OA
HETATM   19  H9  UNK     1      -1.199   0.917  -1.760  1.00  0.00     0.170 HD
BRANCH  17  20
HETATM   20  C12 UNK     1       1.265   0.813  -1.472  1.00  0.00     0.108 A 
HETATM   21  C15 UNK     1       2.379   1.401  -1.019  1.00  0.00     0.037 A 
HETATM   22  C10 UNK     1       3.383   1.887  -1.953  1.00  0.00     0.001 A 
HETATM   23  C13 UNK     1       3.165   1.729  -3.318  1.00  0.00     0.089 A 
HETATM   24  C17 UNK     1       4.560   2.506  -1.525  1.00  0.00     0.050 A 
HETATM   25  O1  UNK     1       1.991   1.109  -3.788  1.00  0.00    -0.274 OA
HETATM   26  C20 UNK     1       4.087   2.172  -4.264  1.00  0.00     0.041 A 
HETATM   27  C19 UNK     1       1.012   0.634  -2.919  1.00  0.00     0.304 A 
HETATM   28  O3  UNK     1      -0.006   0.095  -3.338  1.00  0.00    -0.259 OA
HETATM   29  C22 UNK     1       5.258   2.789  -3.829  1.00  0.00     0.039 A 
HETATM   30  C21 UNK     1       5.494   2.956  -2.462  1.00  0.00     0.103 A 
BRANCH  30  31
HETATM   31  N2  UNK     1       6.689   3.585  -2.024  1.00  0.00    -0.116 N 
HETATM   32  O4  UNK     1       7.517   3.982  -2.880  1.00  0.00    -0.532 OA
HETATM   33  O5  UNK     1       6.885   3.727  -0.793  1.00  0.00    -0.532 OA
ENDBRANCH  30  31
ENDBRANCH  17  20
ENDBRANCH   9  16
TORSDOF 3
