REMARK  1 active torsions:
REMARK  status: ('A' for Active; 'I' for Inactive)
REMARK       I    between atoms: C6_12  and  N1_5 
REMARK    1  A    between atoms: C6_12  and  C8_14 
ROOT
HETATM    1 Cl1  UNK     1       5.973   1.199  -1.760  1.00  0.00    -0.084 Cl
HETATM    2  O2  UNK     1       0.237   2.468  -1.237  1.00  0.00    -0.274 OA
HETATM    3  O3  UNK     1      -1.933   1.788  -1.013  1.00  0.00    -0.259 OA
HETATM    4  C8  UNK     1      -0.293   0.083  -1.133  1.00  0.00     0.108 A 
HETATM    5  C9  UNK     1       1.001  -0.238  -1.251  1.00  0.00     0.037 A 
HETATM    6  C10 UNK     1       2.007   0.806  -1.371  1.00  0.00     0.001 A 
HETATM    7  C11 UNK     1      -0.748   1.491  -1.120  1.00  0.00     0.304 A 
HETATM    8  C12 UNK     1       1.601   2.137  -1.360  1.00  0.00     0.089 A 
HETATM    9  C13 UNK     1       3.369   0.518  -1.495  1.00  0.00     0.038 A 
HETATM   10  C14 UNK     1       2.514   3.184  -1.470  1.00  0.00     0.040 A 
HETATM   11  C15 UNK     1       4.296   1.558  -1.606  1.00  0.00     0.035 A 
HETATM   12  C16 UNK     1       3.869   2.888  -1.594  1.00  0.00     0.026 A 
ENDROOT
BRANCH   4  13
HETATM   13  C6  UNK     1      -1.238  -1.049  -1.018  1.00  0.00     0.260 C 
HETATM   14  O1  UNK     1      -1.705  -1.511  -2.060  1.00  0.00    -0.267 OA
HETATM   15  N1  UNK     1      -1.532  -1.517   0.269  1.00  0.00    -0.346 N 
HETATM   16  C2  UNK     1      -2.462  -2.638   0.404  1.00  0.00     0.128 C 
HETATM   17  C4  UNK     1      -0.964  -0.926   1.487  1.00  0.00     0.156 C 
HETATM   18  C1  UNK     1      -3.818  -2.184   0.929  1.00  0.00     0.050 C 
HETATM   19  C3  UNK     1      -3.870  -2.005   2.448  1.00  0.00     0.273 C 
HETATM   20  N2  UNK     1      -2.960  -0.979   2.982  1.00  0.00     0.085 N 
HETATM   21  C5  UNK     1      -1.548  -1.365   2.832  1.00  0.00     0.291 C 
HETATM   22  C7  UNK     1      -3.267  -0.762   4.402  1.00  0.00     0.309 C 
ENDBRANCH   4  13
TORSDOF 1
