REMARK  6 active torsions:
REMARK  status: ('A' for Active; 'I' for Inactive)
REMARK    1  A    between atoms: C7_14  and  O2_2 
REMARK       I    between atoms: C10_17  and  N1_6 
REMARK    2  A    between atoms: C5_12  and  N1_6 
REMARK       I    between atoms: C14_21  and  N2_7 
REMARK    3  A    between atoms: C8_15  and  N2_7 
REMARK    4  A    between atoms: C10_17  and  C3_10 
REMARK    5  A    between atoms: C14_21  and  C6_13 
REMARK    6  A    between atoms: C13_20  and  C8_15 
ROOT
HETATM    1  C5  UNK     1      -1.288  -0.213  -1.400  1.00  0.00     0.035 A 
HETATM    2  C6  UNK     1      -2.856  -1.669  -0.319  1.00  0.00     0.034 A 
HETATM    3  C11 UNK     1      -1.580  -1.111  -0.388  1.00  0.00     0.046 A 
HETATM    4  C17 UNK     1      -2.235   0.144  -2.345  1.00  0.00     0.029 A 
HETATM    5  C18 UNK     1      -3.822  -1.321  -1.263  1.00  0.00     0.017 A 
HETATM    6  C19 UNK     1      -3.511  -0.414  -2.276  1.00  0.00     0.003 A 
ENDROOT
BRANCH   1   7
HETATM    7  N1  UNK     1       0.007   0.355  -1.470  1.00  0.00    -0.323 N 
HETATM    8  C10 UNK     1       0.483   1.266  -2.403  1.00  0.00     0.262 C 
HETATM    9  O3  UNK     1      -0.119   1.763  -3.353  1.00  0.00    -0.267 OA
HETATM   10  H6  UNK     1       0.645   0.023  -0.751  1.00  0.00     0.169 HD
BRANCH   8  11
HETATM   11  C3  UNK     1       1.883   1.632  -2.156  1.00  0.00     0.108 A 
HETATM   12  C12 UNK     1       2.464   1.641  -0.795  1.00  0.00     0.304 A 
HETATM   13  O1  UNK     1       3.803   2.005  -0.689  1.00  0.00    -0.271 OA
HETATM   14  O4  UNK     1       1.803   1.343   0.194  1.00  0.00    -0.259 OA
HETATM   15  C2  UNK     1       4.571   2.349  -1.819  1.00  0.00     0.123 A 
HETATM   16  C1  UNK     1       4.005   2.335  -3.089  1.00  0.00     0.002 A 
HETATM   17  C7  UNK     1       5.904   2.700  -1.613  1.00  0.00     0.102 A 
HETATM   18  C4  UNK     1       2.608   1.958  -3.233  1.00  0.00     0.037 A 
HETATM   19  C9  UNK     1       4.799   2.683  -4.185  1.00  0.00     0.014 A 
HETATM   20  C16 UNK     1       6.138   3.038  -3.994  1.00  0.00     0.004 A 
HETATM   21  C15 UNK     1       6.689   3.046  -2.711  1.00  0.00     0.040 A 
BRANCH  17  22
HETATM   22  O2  UNK     1       6.445   2.710  -0.365  1.00  0.00    -0.353 OA
HETATM   23  C25 UNK     1       6.362   3.930   0.371  1.00  0.00     0.210 C 
ENDBRANCH  17  22
ENDBRANCH   8  11
ENDBRANCH   1   7
BRANCH   2  24
HETATM   24  C14 UNK     1      -3.181  -2.616   0.737  1.00  0.00     0.252 C 
HETATM   25  O5  UNK     1      -2.287  -3.297   1.271  1.00  0.00    -0.268 OA
HETATM   26  N2  UNK     1      -4.523  -2.698   1.126  1.00  0.00    -0.353 N 
HETATM   27  H7  UNK     1      -5.209  -2.071   0.720  1.00  0.00     0.163 HD
BRANCH  26  28
HETATM   28  C8  UNK     1      -4.998  -3.572   2.174  1.00  0.00     0.161 C 
BRANCH  28  29
HETATM   29  C13 UNK     1      -4.973  -2.902   3.518  1.00  0.00    -0.041 A 
HETATM   30  C20 UNK     1      -3.836  -2.995   4.312  1.00  0.00     0.009 A 
HETATM   31  C22 UNK     1      -3.813  -2.374   5.560  1.00  0.00     0.001 A 
HETATM   32  C24 UNK     1      -4.927  -1.663   6.006  1.00  0.00     0.000 A 
HETATM   33  C23 UNK     1      -6.065  -1.575   5.204  1.00  0.00     0.001 A 
HETATM   34  C21 UNK     1      -6.088  -2.196   3.956  1.00  0.00     0.009 A 
ENDBRANCH  28  29
ENDBRANCH  26  28
ENDBRANCH   2  24
TORSDOF 6
