REMARK  6 active torsions:
REMARK  status: ('A' for Active; 'I' for Inactive)
REMARK    1  A    between atoms: C3_9  and  O1_2 
REMARK    2  A    between atoms: C9_15  and  O1_2 
REMARK    3  A    between atoms: C12_18  and  O3_4 
REMARK    4  A    between atoms: C8_14  and  O3_4 
REMARK    5  A    between atoms: C20_26  and  O5_6 
REMARK    6  A    between atoms: C10_16  and  C9_15 
ROOT
HETATM    1  O2  UNK     1      -0.123   1.405   2.145  1.00  0.00    -0.319 OA
HETATM    2  O4  UNK     1      -1.181  -2.374   1.017  1.00  0.00    -0.284 OA
HETATM    3  C1  UNK     1       0.127  -0.451   0.593  1.00  0.00     0.051 A 
HETATM    4  C2  UNK     1       0.446   0.836   1.032  1.00  0.00     0.092 A 
HETATM    5  C3  UNK     1       1.990   1.077  -0.808  1.00  0.00     0.071 A 
HETATM    6  C4  UNK     1       1.378   1.602   0.331  1.00  0.00     0.075 A 
HETATM    7  C5  UNK     1       0.738  -0.978  -0.547  1.00  0.00     0.021 A 
HETATM    8  C6  UNK     1      -0.861  -1.242   1.350  1.00  0.00     0.220 A 
HETATM    9  C7  UNK     1       1.670  -0.210  -1.245  1.00  0.00     0.038 A 
HETATM   10  C8  UNK     1      -1.442  -0.582   2.541  1.00  0.00     0.149 A 
HETATM   11  C11 UNK     1      -1.041   0.656   2.841  1.00  0.00     0.184 A 
ENDROOT
BRANCH   5  12
HETATM   12  O1  UNK     1       2.900   1.821  -1.494  1.00  0.00    -0.347 OA
BRANCH  12  13
HETATM   13  C9  UNK     1       3.486   1.225  -2.650  1.00  0.00     0.216 C 
BRANCH  13  14
HETATM   14  C10 UNK     1       4.477   2.181  -3.245  1.00  0.00    -0.012 A 
HETATM   15  C13 UNK     1       4.100   3.111  -4.209  1.00  0.00     0.042 A 
HETATM   16 Cl1  UNK     1       2.472   3.216  -4.773  1.00  0.00    -0.084 Cl
HETATM   17  C17 UNK     1       5.050   3.985  -4.739  1.00  0.00     0.024 A 
HETATM   18  C19 UNK     1       6.373   3.924  -4.303  1.00  0.00     0.002 A 
HETATM   19  C18 UNK     1       6.747   2.990  -3.337  1.00  0.00     0.001 A 
HETATM   20  C14 UNK     1       5.797   2.117  -2.807  1.00  0.00     0.011 A 
ENDBRANCH  13  14
ENDBRANCH  12  13
ENDBRANCH   5  12
BRANCH  10  21
HETATM   21  O3  UNK     1      -2.371  -1.253   3.302  1.00  0.00    -0.305 OA
BRANCH  21  22
HETATM   22  C12 UNK     1      -3.524  -1.641   2.676  1.00  0.00     0.076 A 
HETATM   23  C15 UNK     1      -4.190  -0.750   1.841  1.00  0.00     0.040 A 
HETATM   24  C21 UNK     1      -5.367  -1.146   1.205  1.00  0.00     0.039 A 
HETATM   25  C20 UNK     1      -5.871  -2.431   1.407  1.00  0.00     0.068 A 
HETATM   26  C22 UNK     1      -5.199  -3.320   2.245  1.00  0.00     0.039 A 
HETATM   27  C16 UNK     1      -4.022  -2.924   2.881  1.00  0.00     0.040 A 
BRANCH  25  28
HETATM   28  O5  UNK     1      -7.019  -2.816   0.786  1.00  0.00    -0.356 OA
HETATM   29  C23 UNK     1      -7.478  -4.144   1.036  1.00  0.00     0.210 C 
ENDBRANCH  25  28
ENDBRANCH  21  22
ENDBRANCH  10  21
TORSDOF 6
