REMARK  4 active torsions:
REMARK  status: ('A' for Active; 'I' for Inactive)
REMARK    1  A    between atoms: C17_27  and  O3_7 
REMARK       I    between atoms: C14_24  and  N1_9 
REMARK    2  A    between atoms: N1_9  and  N2_10 
REMARK    3  A    between atoms: C11_21  and  C4_14 
REMARK    4  A    between atoms: C10_20  and  C14_24 
ROOT
HETATM    1  N2  UNK     1       0.134   0.309  -0.394  1.00  0.00    -0.183 NA
HETATM    2  C11 UNK     1       0.052  -0.077   0.838  1.00  0.00     0.156 C 
ENDROOT
BRANCH   1   3
HETATM    3  N1  UNK     1       1.327   0.862  -0.720  1.00  0.00    -0.243 N 
HETATM    4  C14 UNK     1       1.529   1.276  -2.023  1.00  0.00     0.271 C 
HETATM    5  O4  UNK     1       0.700   1.182  -2.925  1.00  0.00    -0.266 OA
HETATM    6  H7  UNK     1       2.038   0.897   0.003  1.00  0.00     0.192 HD
BRANCH   4   7
HETATM    7  C10 UNK     1       2.866   1.855  -2.318  1.00  0.00     0.036 A 
HETATM    8  C12 UNK     1       3.386   1.784  -3.610  1.00  0.00     0.039 A 
HETATM    9  C16 UNK     1       4.640   2.327  -3.887  1.00  0.00     0.046 A 
HETATM   10 Br2  UNK     1       5.311   2.211  -5.657  1.00  0.00    -0.048 Br
HETATM   11  C17 UNK     1       5.374   2.942  -2.873  1.00  0.00     0.100 A 
HETATM   12  C15 UNK     1       4.854   3.013  -1.580  1.00  0.00     0.046 A 
HETATM   13 Br1  UNK     1       5.819   3.840  -0.173  1.00  0.00    -0.048 Br
HETATM   14  C13 UNK     1       3.599   2.469  -1.303  1.00  0.00     0.039 A 
BRANCH  11  15
HETATM   15  O3  UNK     1       6.602   3.474  -3.144  1.00  0.00    -0.358 OA
HETATM   16  H8  UNK     1       6.960   3.856  -2.325  1.00  0.00     0.217 HD
ENDBRANCH  11  15
ENDBRANCH   4   7
ENDBRANCH   1   3
BRANCH   2  17
HETATM   17  C4  UNK     1      -1.153  -0.700   1.386  1.00  0.00     0.056 A 
HETATM   18  C3  UNK     1      -2.380  -0.947   0.597  1.00  0.00     0.198 A 
HETATM   19  C1  UNK     1      -3.496  -1.583   1.320  1.00  0.00     0.052 A 
HETATM   20  O2  UNK     1      -2.465  -0.643  -0.585  1.00  0.00    -0.286 OA
HETATM   21  C2  UNK     1      -3.334  -1.907   2.669  1.00  0.00     0.111 A 
HETATM   22  C5  UNK     1      -4.701  -1.858   0.670  1.00  0.00     0.042 A 
HETATM   23  O1  UNK     1      -2.173  -1.660   3.358  1.00  0.00    -0.319 OA
HETATM   24  C6  UNK     1      -4.377  -2.510   3.372  1.00  0.00     0.070 A 
HETATM   25  C7  UNK     1      -1.140  -1.064   2.673  1.00  0.00     0.159 A 
HETATM   26 Cl1  UNK     1      -4.219  -2.930   5.039  1.00  0.00    -0.081 Cl
HETATM   27  C9  UNK     1      -5.582  -2.786   2.724  1.00  0.00     0.050 A 
HETATM   28  C8  UNK     1      -5.743  -2.461   1.376  1.00  0.00     0.036 A 
HETATM   29 Cl2  UNK     1      -7.233  -2.802   0.584  1.00  0.00    -0.084 Cl
ENDBRANCH   2  17
TORSDOF 4
