REMARK  6 active torsions:
REMARK  status: ('A' for Active; 'I' for Inactive)
REMARK    1  A    between atoms: C2_7  and  O1_2 
REMARK    2  A    between atoms: C3_8  and  O2_3 
REMARK    3  A    between atoms: C4_9  and  O3_4 
REMARK    4  A    between atoms: C1_6  and  C7_12 
REMARK    5  A    between atoms: C7_12  and  C8_13 
REMARK    6  A    between atoms: C10_15  and  C9_14 
ROOT
HETATM    1  C1  UNK     1       0.755   0.792  -0.451  1.00  0.00     0.081 A 
HETATM    2  C2  UNK     1       1.687   1.819  -0.308  1.00  0.00     0.087 A 
HETATM    3  C3  UNK     1       0.627   0.131  -1.673  1.00  0.00     0.087 A 
HETATM    4  C4  UNK     1       2.366   1.524  -2.608  1.00  0.00     0.073 A 
HETATM    5  C5  UNK     1       2.493   2.185  -1.387  1.00  0.00     0.074 A 
HETATM    6  C6  UNK     1       1.433   0.497  -2.751  1.00  0.00     0.074 A 
ENDROOT
BRANCH   1   7
HETATM    7  C7  UNK     1      -0.101   0.402   0.695  1.00  0.00     0.187 C 
HETATM    8  O4  UNK     1      -0.069  -0.749   1.114  1.00  0.00    -0.287 OA
BRANCH   7   9
HETATM    9  C8  UNK     1      -0.998   1.442   1.273  1.00  0.00     0.057 C 
HETATM   10  C10 UNK     1      -2.183   1.091   1.816  1.00  0.00     0.017 C 
BRANCH  10  11
HETATM   11  C9  UNK     1      -2.697  -0.272   1.895  1.00  0.00    -0.014 A 
HETATM   12  C11 UNK     1      -3.496  -0.825   0.895  1.00  0.00     0.044 A 
HETATM   13 Cl1  UNK     1      -3.939   0.067  -0.519  1.00  0.00    -0.083 Cl
HETATM   14  C15 UNK     1      -3.963  -2.134   1.019  1.00  0.00     0.024 A 
HETATM   15  C17 UNK     1      -3.630  -2.889   2.144  1.00  0.00     0.002 A 
HETATM   16  C16 UNK     1      -2.831  -2.336   3.144  1.00  0.00     0.001 A 
HETATM   17  C12 UNK     1      -2.364  -1.027   3.020  1.00  0.00     0.013 A 
ENDBRANCH  10  11
ENDBRANCH   7   9
ENDBRANCH   1   7
BRANCH   2  18
HETATM   18  O1  UNK     1       1.828   2.478   0.877  1.00  0.00    -0.355 OA
HETATM   19  C13 UNK     1       2.807   3.514   0.929  1.00  0.00     0.210 C 
ENDBRANCH   2  18
BRANCH   3  20
HETATM   20  O2  UNK     1      -0.277  -0.876  -1.835  1.00  0.00    -0.355 OA
HETATM   21  C14 UNK     1      -0.336  -1.493  -3.119  1.00  0.00     0.210 C 
ENDBRANCH   3  20
BRANCH   4  22
HETATM   22  O3  UNK     1       3.152   1.880  -3.660  1.00  0.00    -0.356 OA
HETATM   23  C18 UNK     1       4.085   2.938  -3.444  1.00  0.00     0.210 C 
ENDBRANCH   4  22
TORSDOF 6
