REMARK  2 active torsions:
REMARK  status: ('A' for Active; 'I' for Inactive)
REMARK    1  A    between atoms: C15_18  and  O3_3 
REMARK    2  A    between atoms: C1_4  and  C3_6 
ROOT
HETATM    1  O1  UNK     1      -0.181   0.206  -1.114  1.00  0.00    -0.340 OA
HETATM    2  O2  UNK     1       2.116   2.903   0.954  1.00  0.00    -0.292 OA
HETATM    3  C1  UNK     1      -0.074   0.134   0.316  1.00  0.00     0.169 C 
HETATM    4  C2  UNK     1       0.157   1.519   0.918  1.00  0.00     0.121 C 
HETATM    5  C4  UNK     1       1.421   2.101   0.341  1.00  0.00     0.165 C 
HETATM    6  C5  UNK     1       1.743   1.702  -1.045  1.00  0.00     0.043 A 
HETATM    7  C6  UNK     1       0.909   0.793  -1.702  1.00  0.00     0.083 A 
HETATM    8  C9  UNK     1       2.841   2.259  -1.706  1.00  0.00     0.018 A 
HETATM    9  C10 UNK     1       1.156   0.466  -3.036  1.00  0.00     0.038 A 
HETATM   10  C13 UNK     1       3.094   1.912  -3.033  1.00  0.00     0.001 A 
HETATM   11  C14 UNK     1       2.251   1.022  -3.699  1.00  0.00     0.003 A 
ENDROOT
BRANCH   3  12
HETATM   12  C3  UNK     1      -1.341  -0.493   0.860  1.00  0.00    -0.028 A 
HETATM   13  C7  UNK     1      -1.281  -1.712   1.533  1.00  0.00     0.012 A 
HETATM   14  C11 UNK     1      -2.448  -2.290   2.033  1.00  0.00     0.037 A 
HETATM   15  C15 UNK     1      -3.674  -1.648   1.860  1.00  0.00     0.065 A 
HETATM   16  C12 UNK     1      -3.733  -0.428   1.187  1.00  0.00     0.037 A 
HETATM   17  C8  UNK     1      -2.566   0.150   0.687  1.00  0.00     0.012 A 
BRANCH  15  18
HETATM   18  O3  UNK     1      -4.812  -2.212   2.349  1.00  0.00    -0.361 OA
HETATM   19  H12 UNK     1      -5.565  -1.633   2.140  1.00  0.00     0.217 HD
ENDBRANCH  15  18
ENDBRANCH   3  12
TORSDOF 2
