REMARK  6 active torsions:
REMARK  status: ('A' for Active; 'I' for Inactive)
REMARK    1  A    between atoms: C13_21  and  O2_2 
REMARK    2  A    between atoms: C17_25  and  O2_2 
REMARK    3  A    between atoms: C1_9  and  C11_19 
REMARK    4  A    between atoms: C10_18  and  C2_10 
REMARK    5  A    between atoms: C13_21  and  C8_16 
REMARK    6  A    between atoms: C12_20  and  C17_25 
ROOT
HETATM    1  O4  UNK     1      -0.551  -3.404   1.181  1.00  0.00    -0.293 OA
HETATM    2  N1  UNK     1      -0.865   0.976   2.951  1.00  0.00    -0.362 N 
HETATM    3  C1  UNK     1      -3.523  -1.690   2.482  1.00  0.00     0.056 C 
HETATM    4  C2  UNK     1       0.729  -0.847   1.476  1.00  0.00     0.104 C 
HETATM    5  C3  UNK     1      -0.674  -1.176   1.981  1.00  0.00     0.024 C 
HETATM    6  C4  UNK     1      -2.805  -0.508   3.147  1.00  0.00     0.069 C 
HETATM    7  C5  UNK     1      -1.402  -0.264   2.657  1.00  0.00     0.021 C 
HETATM    8  C6  UNK     1      -2.598  -2.890   2.289  1.00  0.00     0.095 C 
HETATM    9  C7  UNK     1      -1.226  -2.545   1.750  1.00  0.00     0.159 C 
HETATM   10  C8  UNK     1       1.246   0.493   1.999  1.00  0.00     0.052 C 
HETATM   11  C9  UNK     1       0.442   1.344   2.676  1.00  0.00     0.018 C 
HETATM   12  C16 UNK     1       0.840   2.703   3.185  1.00  0.00     0.069 C 
HETATM   13  H7  UNK     1      -1.442   1.632   3.465  1.00  0.00     0.165 HD
ENDROOT
BRANCH   4  14
HETATM   14  C10 UNK     1       0.759  -0.862  -0.029  1.00  0.00     0.029 A 
HETATM   15  C18 UNK     1      -0.086   0.112  -0.765  1.00  0.00     0.194 A 
HETATM   16  O7  UNK     1      -0.801   0.920  -0.187  1.00  0.00    -0.287 OA
HETATM   17  C22 UNK     1      -0.019   0.054  -2.237  1.00  0.00     0.049 A 
HETATM   18  C26 UNK     1      -0.776   0.929  -3.020  1.00  0.00     0.025 A 
HETATM   19  C24 UNK     1       0.814  -0.888  -2.842  1.00  0.00     0.089 A 
HETATM   20  C28 UNK     1      -0.695   0.854  -4.411  1.00  0.00    -0.061 A 
HETATM   21  C29 UNK     1       0.138  -0.089  -5.016  1.00  0.00     0.009 A 
HETATM   22  C30 UNK     1      -1.500   1.785  -5.255  1.00  0.00     0.048 C 
HETATM   23  C27 UNK     1       0.893  -0.961  -4.233  1.00  0.00     0.039 A 
HETATM   24  O5  UNK     1       1.579  -1.771  -2.122  1.00  0.00    -0.321 OA
HETATM   25  C21 UNK     1       1.506  -1.705  -0.752  1.00  0.00     0.154 A 
ENDBRANCH   4  14
BRANCH  10  26
HETATM   26  C13 UNK     1       2.671   0.784   1.770  1.00  0.00     0.292 C 
HETATM   27  O6  UNK     1       3.554   0.446   2.537  1.00  0.00    -0.259 OA
BRANCH  26  28
HETATM   28  O2  UNK     1       2.787   1.462   0.603  1.00  0.00    -0.315 OA
BRANCH  28  29
HETATM   29  C17 UNK     1       4.124   1.819   0.240  1.00  0.00     0.211 C 
BRANCH  29  30
HETATM   30  C12 UNK     1       4.094   2.567  -1.079  1.00  0.00     0.145 C 
HETATM   31  O1  UNK     1       3.265   3.735  -0.959  1.00  0.00    -0.384 OA
HETATM   32  C20 UNK     1       2.478   3.858  -2.153  1.00  0.00     0.168 C 
HETATM   33  C15 UNK     1       3.011   2.841  -3.140  1.00  0.00     0.029 C 
HETATM   34  C14 UNK     1       3.517   1.754  -2.224  1.00  0.00     0.036 C 
ENDBRANCH  29  30
ENDBRANCH  28  29
ENDBRANCH  26  28
ENDBRANCH  10  26
BRANCH   3  35
HETATM   35  C11 UNK     1      -4.281  -1.286   1.215  1.00  0.00     0.057 A 
HETATM   36  O3  UNK     1      -3.518  -0.846   0.189  1.00  0.00    -0.327 OA
HETATM   37  C25 UNK     1      -4.379  -0.546  -0.818  1.00  0.00     0.142 A 
HETATM   38  C23 UNK     1      -5.677  -0.794  -0.435  1.00  0.00     0.027 A 
HETATM   39  C19 UNK     1      -5.608  -1.277   0.894  1.00  0.00     0.035 A 
ENDBRANCH   3  35
TORSDOF 6
