REMARK  5 active torsions:
REMARK  status: ('A' for Active; 'I' for Inactive)
REMARK    1  A    between atoms: C12_19  and  O1_2 
REMARK    2  A    between atoms: C8_15  and  O1_2 
REMARK    3  A    between atoms: C7_14  and  N1_7 
REMARK       I    between atoms: C9_16  and  N1_7 
REMARK    4  A    between atoms: C6_13  and  C8_15 
REMARK    5  A    between atoms: C10_17  and  C9_16 
ROOT
HETATM    1  O4  UNK     1       0.513  -0.247   2.339  1.00  0.00    -0.267 OA
HETATM    2  N1  UNK     1       0.345   0.179   0.025  1.00  0.00    -0.316 N 
HETATM    3  C9  UNK     1      -0.076  -0.290   1.261  1.00  0.00     0.262 C 
HETATM    4  H7  UNK     1      -0.270   0.088  -0.780  1.00  0.00     0.169 HD
ENDROOT
BRANCH   2   5
HETATM    5  C7  UNK     1       1.545   0.804  -0.243  1.00  0.00     0.094 A 
HETATM    6  C6  UNK     1       2.070   1.310  -1.421  1.00  0.00     0.080 A 
HETATM    7  C3  UNK     1       3.347   1.863  -1.195  1.00  0.00    -0.026 A 
HETATM    8  C1  UNK     1       4.389   2.531  -2.012  1.00  0.00     0.041 C 
HETATM    9  C5  UNK     1       3.734   1.759   0.113  1.00  0.00    -0.008 A 
HETATM   10  C2  UNK     1       5.330   3.131  -0.920  1.00  0.00     0.010 C 
HETATM   11  C4  UNK     1       5.072   2.327   0.393  1.00  0.00     0.047 C 
HETATM   12  S1  UNK     1       2.613   1.011   1.103  1.00  0.00    -0.075 SA
BRANCH   6  13
HETATM   13  C8  UNK     1       1.379   1.260  -2.685  1.00  0.00     0.296 C 
HETATM   14  O2  UNK     1       0.255   0.773  -2.883  1.00  0.00    -0.259 OA
BRANCH  13  15
HETATM   15  O1  UNK     1       2.123   1.826  -3.696  1.00  0.00    -0.318 OA
BRANCH  15  16
HETATM   16  C12 UNK     1       1.541   1.830  -5.005  1.00  0.00     0.174 C 
HETATM   17  C17 UNK     1       2.503   2.488  -5.971  1.00  0.00     0.034 C 
ENDBRANCH  15  16
ENDBRANCH  13  15
ENDBRANCH   6  13
ENDBRANCH   2   5
BRANCH   3  18
HETATM   18  C10 UNK     1      -1.407  -0.904   1.189  1.00  0.00     0.108 A 
HETATM   19  C11 UNK     1      -2.157  -0.823   2.295  1.00  0.00     0.037 A 
HETATM   20  C13 UNK     1      -3.491  -1.402   2.321  1.00  0.00    -0.001 A 
HETATM   21  C14 UNK     1      -3.970  -2.039   1.180  1.00  0.00     0.089 A 
HETATM   22  C16 UNK     1      -4.308  -1.341   3.452  1.00  0.00     0.014 A 
HETATM   23  O3  UNK     1      -3.177  -2.121   0.020  1.00  0.00    -0.274 OA
HETATM   24  C18 UNK     1      -5.239  -2.615   1.140  1.00  0.00     0.038 A 
HETATM   25  C15 UNK     1      -1.897  -1.577  -0.036  1.00  0.00     0.304 A 
HETATM   26  O5  UNK     1      -1.213  -1.654  -1.050  1.00  0.00    -0.259 OA
HETATM   27  C20 UNK     1      -6.047  -2.549   2.273  1.00  0.00     0.003 A 
HETATM   28  C19 UNK     1      -5.583  -1.914   3.426  1.00  0.00     0.001 A 
ENDBRANCH   3  18
TORSDOF 5
