REMARK  2 active torsions:
REMARK  status: ('A' for Active; 'I' for Inactive)
REMARK    1  A    between atoms: C6_10  and  O2_2 
REMARK    2  A    between atoms: C10_14  and  C4_8 
ROOT
HETATM    1  O1  UNK     1      -1.521  -0.309  -1.507  1.00  0.00    -0.274 OA
HETATM    2  O3  UNK     1      -3.293  -1.259  -0.423  1.00  0.00    -0.259 OA
HETATM    3  C1  UNK     1       0.443   0.361  -0.239  1.00  0.00     0.002 A 
HETATM    4  C2  UNK     1      -0.230   0.252  -1.452  1.00  0.00     0.089 A 
HETATM    5  C3  UNK     1      -0.208  -0.115   0.972  1.00  0.00     0.035 A 
HETATM    6  C4  UNK     1      -1.435  -0.648   0.914  1.00  0.00     0.086 A 
HETATM    7  C5  UNK     1       1.722   0.923  -0.225  1.00  0.00     0.051 A 
HETATM    8  C6  UNK     1       2.304   1.366  -1.417  1.00  0.00     0.069 A 
HETATM    9  C7  UNK     1       0.337   0.690  -2.647  1.00  0.00     0.041 A 
HETATM   10  C8  UNK     1       1.613   1.249  -2.625  1.00  0.00     0.039 A 
HETATM   11  C9  UNK     1      -2.169  -0.773  -0.365  1.00  0.00     0.302 A 
ENDROOT
BRANCH   6  12
HETATM   12  C10 UNK     1      -2.007  -1.099   2.188  1.00  0.00     0.161 C 
HETATM   13  O4  UNK     1      -2.796  -2.044   2.219  1.00  0.00    -0.293 OA
HETATM   14  C11 UNK     1      -1.593  -0.377   3.443  1.00  0.00     0.097 C 
ENDBRANCH   6  12
BRANCH   8  15
HETATM   15  O2  UNK     1       3.551   1.913  -1.399  1.00  0.00    -0.356 OA
HETATM   16  C12 UNK     1       4.214   2.012  -0.155  1.00  0.00     0.210 C 
ENDBRANCH   8  15
TORSDOF 2
