REMARK  3 active torsions:
REMARK  status: ('A' for Active; 'I' for Inactive)
REMARK    1  A    between atoms: C10_13  and  O2_2 
REMARK    2  A    between atoms: C3_6  and  O2_2 
REMARK    3  A    between atoms: C10_13  and  C11_14 
ROOT
HETATM    1  O1  UNK     1      -2.197  -1.154  -0.185  1.00  0.00    -0.275 OA
HETATM    2  O3  UNK     1      -2.898  -1.120  -2.362  1.00  0.00    -0.260 OA
HETATM    3  C1  UNK     1      -0.274   0.203   0.486  1.00  0.00     0.031 A 
HETATM    4  C2  UNK     1      -1.302  -0.690   0.803  1.00  0.00     0.092 A 
HETATM    5  C3  UNK     1      -0.151   0.630  -0.911  1.00  0.00     0.088 A 
HETATM    6  C4  UNK     1       0.554   0.630   1.533  1.00  0.00     0.017 A 
HETATM    7  C5  UNK     1      -1.510  -1.164   2.100  1.00  0.00     0.038 A 
HETATM    8  C6  UNK     1      -1.017   0.192  -1.830  1.00  0.00     0.120 A 
HETATM    9  C7  UNK     1       0.357   0.164   2.839  1.00  0.00     0.001 A 
HETATM   10  C8  UNK     1      -0.671  -0.733   3.122  1.00  0.00     0.003 A 
HETATM   11  C9  UNK     1      -2.111  -0.736  -1.504  1.00  0.00     0.290 A 
ENDROOT
BRANCH   5  12
HETATM   12  O2  UNK     1       0.867   1.484  -1.287  1.00  0.00    -0.346 OA
BRANCH  12  13
HETATM   13  C10 UNK     1       2.016   0.756  -1.673  1.00  0.00     0.202 C 
BRANCH  13  14
HETATM   14  C11 UNK     1       3.065   1.717  -2.124  1.00  0.00    -0.011 C 
HETATM   15  C12 UNK     1       4.271   1.828  -1.555  1.00  0.00     0.009 C 
ENDBRANCH  13  14
ENDBRANCH  12  13
ENDBRANCH   5  12
TORSDOF 3
