REMARK  2 active torsions:
REMARK  status: ('A' for Active; 'I' for Inactive)
REMARK    1  A    between atoms: C5_12  and  N1_5 
REMARK    2  A    between atoms: N1_5  and  N2_6 
REMARK       I    between atoms: C12_19  and  N2_6 
REMARK       I    between atoms: C12_19  and  N3_7 
ROOT
HETATM    1  O1  UNK     1       2.411   0.965   0.447  1.00  0.00    -0.274 OA
HETATM    2  O2  UNK     1      -1.090   0.325  -1.598  1.00  0.00    -0.286 OA
HETATM    3  O3  UNK     1       1.468   0.343   2.429  1.00  0.00    -0.259 OA
HETATM    4  C1  UNK     1       0.091   0.294   0.478  1.00  0.00     0.114 A 
HETATM    5  C2  UNK     1       1.163   0.982  -1.665  1.00  0.00     0.049 A 
HETATM    6  C3  UNK     1      -0.050   0.513  -0.982  1.00  0.00     0.203 A 
HETATM    7  C4  UNK     1       2.331   1.189  -0.941  1.00  0.00     0.093 A 
HETATM    8  C5  UNK     1      -0.981  -0.135   1.160  1.00  0.00     0.042 C 
HETATM    9  C6  UNK     1       1.347   0.522   1.223  1.00  0.00     0.304 A 
HETATM   10  C7  UNK     1       1.153   1.224  -3.042  1.00  0.00     0.018 A 
HETATM   11  C8  UNK     1       3.494   1.635  -1.568  1.00  0.00     0.038 A 
HETATM   12  C9  UNK     1      -0.899  -0.374   2.642  1.00  0.00     0.071 C 
HETATM   13  C10 UNK     1       2.315   1.670  -3.676  1.00  0.00     0.001 A 
HETATM   14  C11 UNK     1       3.483   1.875  -2.941  1.00  0.00     0.003 A 
ENDROOT
BRANCH   8  15
HETATM   15  N1  UNK     1      -2.197  -0.380   0.583  1.00  0.00    -0.300 N 
HETATM   16  H6  UNK     1      -2.357  -0.228  -0.404  1.00  0.00     0.186 HD
BRANCH  15  17
HETATM   17  N2  UNK     1      -3.251  -0.838   1.322  1.00  0.00    -0.252 N 
HETATM   18  C12 UNK     1      -3.795  -2.068   0.995  1.00  0.00     0.332 C 
HETATM   19  O4  UNK     1      -3.408  -2.797   0.084  1.00  0.00    -0.246 OA
HETATM   20  N3  UNK     1      -4.853  -2.400   1.823  1.00  0.00    -0.351 N 
HETATM   21  H10 UNK     1      -5.357  -3.273   1.708  1.00  0.00     0.160 HD
HETATM   22  H11 UNK     1      -5.155  -1.785   2.570  1.00  0.00     0.160 HD
HETATM   23  H9  UNK     1      -3.653  -0.197   1.997  1.00  0.00     0.191 HD
ENDBRANCH  15  17
ENDBRANCH   8  15
TORSDOF 2
