REMARK  4 active torsions:
REMARK  status: ('A' for Active; 'I' for Inactive)
REMARK    1  A    between atoms: C5_9  and  N1_3 
REMARK    2  A    between atoms: C6_10  and  N2_4 
REMARK    3  A    between atoms: C5_9  and  C7_11 
REMARK    4  A    between atoms: C6_10  and  C8_12 
ROOT
HETATM    1  N1  UNK     1      -0.173  -0.772  -0.629  1.00  0.00     0.096 N 
HETATM    2  N2  UNK     1       1.528   1.062  -2.080  1.00  0.00     0.096 N 
HETATM    3  C1  UNK     1       0.960  -0.104   0.024  1.00  0.00     0.303 C 
HETATM    4  C2  UNK     1       0.095  -0.951  -2.061  1.00  0.00     0.303 C 
HETATM    5  C3  UNK     1       1.262   1.241  -0.647  1.00  0.00     0.303 C 
HETATM    6  C4  UNK     1       0.395   0.394  -2.732  1.00  0.00     0.303 C 
ENDROOT
BRANCH   1   7
HETATM    7  C5  UNK     1      -0.458  -2.054   0.011  1.00  0.00     0.312 C 
BRANCH   7   8
HETATM    8  C7  UNK     1      -1.240  -1.745   1.237  1.00  0.00    -0.011 A 
HETATM    9  C11 UNK     1      -0.629  -1.518   2.409  1.00  0.00     0.092 A 
HETATM   10  C16 UNK     1      -1.360  -1.208   3.649  1.00  0.00     0.288 A 
HETATM   11  O1  UNK     1      -2.743  -1.157   3.560  1.00  0.00    -0.275 OA
HETATM   12  O2  UNK     1      -0.768  -1.006   4.703  1.00  0.00    -0.260 OA
HETATM   13  C13 UNK     1      -3.413  -1.391   2.343  1.00  0.00     0.090 A 
HETATM   14  C9  UNK     1      -2.706  -1.684   1.175  1.00  0.00     0.006 A 
HETATM   15  C19 UNK     1      -4.806  -1.314   2.372  1.00  0.00     0.045 A 
HETATM   16  C14 UNK     1      -3.446  -1.904   0.006  1.00  0.00     0.015 A 
HETATM   17  C21 UNK     1      -4.844  -1.831   0.019  1.00  0.00     0.007 A 
HETATM   18  C20 UNK     1      -5.523  -1.536   1.201  1.00  0.00    -0.059 A 
HETATM   19  C23 UNK     1      -7.012  -1.460   1.208  1.00  0.00     0.048 C 
ENDBRANCH   7   8
ENDBRANCH   1   7
BRANCH   2  20
HETATM   20  C6  UNK     1       1.811   2.346  -2.719  1.00  0.00     0.311 C 
BRANCH  20  21
HETATM   21  C8  UNK     1       3.233   2.736  -2.451  1.00  0.00    -0.024 A 
HETATM   22  C10 UNK     1       4.257   2.353  -3.317  1.00  0.00    -0.054 A 
HETATM   23  C15 UNK     1       5.573   2.728  -3.049  1.00  0.00     0.007 A 
HETATM   24  C17 UNK     1       3.969   1.542  -4.537  1.00  0.00     0.049 C 
HETATM   25  C22 UNK     1       5.866   3.486  -1.915  1.00  0.00     0.001 A 
HETATM   26  C18 UNK     1       4.842   3.870  -1.049  1.00  0.00     0.001 A 
HETATM   27  C12 UNK     1       3.525   3.495  -1.317  1.00  0.00     0.009 A 
ENDBRANCH  20  21
ENDBRANCH   2  20
TORSDOF 4
