REMARK  3 active torsions:
REMARK  status: ('A' for Active; 'I' for Inactive)
REMARK    1  A    between atoms: C1_7  and  N1_6 
REMARK    2  A    between atoms: C3_9  and  N1_6 
REMARK    3  A    between atoms: C4_10  and  N1_6 
ROOT
HETATM    1 Cl1  UNK     1      -4.672  -2.286   0.352  1.00  0.00    -0.083 Cl
HETATM    2  O1  UNK     1      -1.104  -0.370  -1.819  1.00  0.00    -0.274 OA
HETATM    3  O2  UNK     1      -1.087  -0.452   2.376  1.00  0.00    -0.273 OA
HETATM    4  O3  UNK     1      -3.110  -1.418  -1.885  1.00  0.00    -0.259 OA
HETATM    5  O4  UNK     1      -2.034  -0.989   4.367  1.00  0.00    -0.260 OA
HETATM    6  C1  UNK     1       2.100   1.291  -1.165  1.00  0.00     0.032 A 
HETATM    7  C2  UNK     1      -0.022   0.150   0.286  1.00  0.00     0.033 A 
HETATM    8  C5  UNK     1      -0.027   0.177  -1.102  1.00  0.00     0.094 A 
HETATM    9  C6  UNK     1       1.015   0.738  -1.839  1.00  0.00     0.067 A 
HETATM   10  C7  UNK     1       2.130   1.277   0.230  1.00  0.00     0.030 A 
HETATM   11  C8  UNK     1      -1.162  -0.461   0.964  1.00  0.00     0.110 A 
HETATM   12  C9  UNK     1       1.075   0.709   0.952  1.00  0.00     0.019 A 
HETATM   13  C10 UNK     1      -2.202  -0.991   0.296  1.00  0.00     0.096 A 
HETATM   14  C13 UNK     1      -2.205  -0.960  -1.198  1.00  0.00     0.303 A 
HETATM   15  C14 UNK     1      -3.277  -1.571   1.088  1.00  0.00     0.059 A 
HETATM   16  C15 UNK     1      -3.224  -1.571   2.426  1.00  0.00     0.107 A 
HETATM   17  C16 UNK     1      -2.079  -0.987   3.142  1.00  0.00     0.289 A 
ENDROOT
BRANCH   6  18
HETATM   18  N1  UNK     1       3.166   1.862  -1.888  1.00  0.00    -0.382 N 
BRANCH  18  19
HETATM   19  C3  UNK     1       4.300   2.438  -1.193  1.00  0.00     0.118 C 
HETATM   20  C11 UNK     1       5.348   1.371  -0.952  1.00  0.00     0.026 C 
ENDBRANCH  18  19
BRANCH  18  21
HETATM   21  C4  UNK     1       3.150   1.869  -3.338  1.00  0.00     0.118 C 
HETATM   22  C12 UNK     1       2.454   3.119  -3.836  1.00  0.00     0.026 C 
ENDBRANCH  18  21
ENDBRANCH   6  18
TORSDOF 3
