REMARK  7 active torsions:
REMARK  status: ('A' for Active; 'I' for Inactive)
REMARK    1  A    between atoms: C14_17  and  O2_2 
REMARK    2  A    between atoms: C16_19  and  O2_2 
REMARK    3  A    between atoms: C1_4  and  C2_5 
REMARK    4  A    between atoms: C1_4  and  C3_6 
REMARK    5  A    between atoms: C2_5  and  C4_7 
REMARK    6  A    between atoms: C4_7  and  C7_10 
REMARK    7  A    between atoms: C16_19  and  C17_20 
ROOT
HETATM    1  O1  UNK     1      -0.058  -0.728   1.429  1.00  0.00    -0.274 OA
HETATM    2  O3  UNK     1      -1.019  -1.780   3.196  1.00  0.00    -0.259 OA
HETATM    3  C3  UNK     1      -2.261  -1.784   1.163  1.00  0.00     0.024 A 
HETATM    4  C5  UNK     1      -2.336  -1.378  -0.122  1.00  0.00    -0.037 A 
HETATM    5  C6  UNK     1      -1.207  -0.630  -0.714  1.00  0.00     0.005 A 
HETATM    6  C8  UNK     1      -0.107  -0.330   0.084  1.00  0.00     0.092 A 
HETATM    7  C9  UNK     1      -1.085  -1.447   2.016  1.00  0.00     0.295 A 
HETATM    8  C10 UNK     1      -3.528  -1.628  -1.012  1.00  0.00     0.050 C 
HETATM    9  C11 UNK     1      -1.162  -0.204  -2.051  1.00  0.00     0.017 A 
HETATM   10  C12 UNK     1       1.001   0.373  -0.396  1.00  0.00     0.075 A 
HETATM   11  C14 UNK     1       1.021   0.791  -1.721  1.00  0.00     0.071 A 
HETATM   12  C15 UNK     1      -0.060   0.501  -2.549  1.00  0.00     0.038 A 
ENDROOT
BRANCH  11  13
HETATM   13  O2  UNK     1       2.090   1.475  -2.208  1.00  0.00    -0.347 OA
BRANCH  13  14
HETATM   14  C16 UNK     1       3.162   1.737  -1.302  1.00  0.00     0.214 C 
BRANCH  14  15
HETATM   15  C17 UNK     1       4.224   2.523  -2.014  1.00  0.00    -0.034 A 
HETATM   16  C18 UNK     1       5.247   1.855  -2.677  1.00  0.00     0.009 A 
HETATM   17  C20 UNK     1       6.234   2.586  -3.338  1.00  0.00     0.001 A 
HETATM   18  C22 UNK     1       6.192   3.980  -3.332  1.00  0.00     0.000 A 
HETATM   19  C21 UNK     1       5.162   4.644  -2.664  1.00  0.00     0.001 A 
HETATM   20  C19 UNK     1       4.175   3.913  -2.003  1.00  0.00     0.009 A 
ENDBRANCH  14  15
ENDBRANCH  13  14
ENDBRANCH  11  13
BRANCH   3  21
HETATM   21  C1  UNK     1      -3.310  -2.606   1.869  1.00  0.00     0.045 C 
BRANCH  21  22
HETATM   22  C2  UNK     1      -4.370  -1.754   2.558  1.00  0.00     0.005 C 
BRANCH  22  23
HETATM   23  C4  UNK     1      -5.481  -2.582   3.210  1.00  0.00    -0.000 C 
BRANCH  23  24
HETATM   24  C7  UNK     1      -6.533  -1.682   3.859  1.00  0.00    -0.005 C 
HETATM   25  C13 UNK     1      -7.661  -2.497   4.473  1.00  0.00     0.005 C 
ENDBRANCH  23  24
ENDBRANCH  22  23
ENDBRANCH  21  22
ENDBRANCH   3  21
TORSDOF 7
