REMARK  4 active torsions:
REMARK  status: ('A' for Active; 'I' for Inactive)
REMARK    1  A    between atoms: C8_13  and  O2_2 
REMARK    2  A    between atoms: C14_19  and  O4_4 
REMARK    3  A    between atoms: C11_16  and  O5_5 
REMARK    4  A    between atoms: C5_10  and  C6_11 
ROOT
HETATM    1  O1  UNK     1      -0.861   0.166   0.770  1.00  0.00    -0.306 OA
HETATM    2  O3  UNK     1      -3.220  -1.067  -1.566  1.00  0.00    -0.284 OA
HETATM    3  C1  UNK     1      -2.871  -0.972   0.806  1.00  0.00     0.051 A 
HETATM    4  C2  UNK     1      -1.277  -0.012  -0.545  1.00  0.00     0.128 A 
HETATM    5  C3  UNK     1      -1.833  -0.417   1.551  1.00  0.00     0.093 A 
HETATM    6  C4  UNK     1      -2.568  -0.740  -0.601  1.00  0.00     0.218 A 
HETATM    7  C6  UNK     1      -0.606   0.413  -1.616  1.00  0.00     0.055 C 
HETATM    8  C7  UNK     1      -3.948  -1.604   1.391  1.00  0.00     0.021 A 
HETATM    9  C9  UNK     1      -1.832  -0.474   2.928  1.00  0.00     0.074 A 
HETATM   10  C11 UNK     1      -2.913  -1.111   3.547  1.00  0.00     0.068 A 
HETATM   11  C12 UNK     1      -3.960  -1.670   2.786  1.00  0.00     0.037 A 
ENDROOT
BRANCH   7  12
HETATM   12  C5  UNK     1       0.678   1.139  -1.601  1.00  0.00     0.000 A 
HETATM   13  C10 UNK     1       0.649   2.524  -1.571  1.00  0.00     0.017 A 
HETATM   14  C15 UNK     1       1.850   3.233  -1.555  1.00  0.00     0.038 A 
HETATM   15  C14 UNK     1       3.065   2.547  -1.570  1.00  0.00     0.070 A 
HETATM   16  C13 UNK     1       3.078   1.153  -1.600  1.00  0.00     0.074 A 
HETATM   17  C8  UNK     1       1.877   0.444  -1.616  1.00  0.00     0.081 A 
BRANCH  15  18
HETATM   18  O4  UNK     1       4.237   3.239  -1.555  1.00  0.00    -0.356 OA
HETATM   19  C17 UNK     1       4.150   4.663  -1.524  1.00  0.00     0.210 C 
ENDBRANCH  15  18
BRANCH  17  20
HETATM   20  O2  UNK     1       1.918  -0.919  -1.645  1.00  0.00    -0.355 OA
HETATM   21  C16 UNK     1       1.937  -1.538  -2.928  1.00  0.00     0.210 C 
ENDBRANCH  17  20
ENDBRANCH   7  12
BRANCH  10  22
HETATM   22  O5  UNK     1      -2.956  -1.193   4.907  1.00  0.00    -0.361 OA
HETATM   23  H11 UNK     1      -3.767  -1.662   5.169  1.00  0.00     0.217 HD
ENDBRANCH  10  22
TORSDOF 4
