REMARK  1 active torsions:
REMARK  status: ('A' for Active; 'I' for Inactive)
REMARK    1  A    between atoms: C1_5  and  C2_6 
ROOT
HETATM    1  O1  UNK     1       2.630   1.099   0.229  1.00  0.00    -0.274 OA
HETATM    2  O2  UNK     1       1.406   0.133   1.890  1.00  0.00    -0.259 OA
HETATM    3  C2  UNK     1       0.351   0.290  -0.244  1.00  0.00     0.070 A 
HETATM    4  C5  UNK     1       1.713   1.288  -2.008  1.00  0.00    -0.001 A 
HETATM    5  C6  UNK     1       0.490   0.670  -1.524  1.00  0.00     0.034 A 
HETATM    6  C7  UNK     1       2.757   1.492  -1.115  1.00  0.00     0.089 A 
HETATM    7  C8  UNK     1       1.477   0.490   0.718  1.00  0.00     0.301 A 
HETATM    8  C11 UNK     1       1.874   1.688  -3.337  1.00  0.00     0.014 A 
HETATM    9  C12 UNK     1       3.956   2.082  -1.510  1.00  0.00     0.038 A 
HETATM   10  C15 UNK     1       3.070   2.281  -3.749  1.00  0.00     0.001 A 
HETATM   11  C16 UNK     1       4.110   2.478  -2.837  1.00  0.00     0.003 A 
ENDROOT
BRANCH   3  12
HETATM   12  C1  UNK     1      -0.861  -0.319   0.242  1.00  0.00     0.091 A 
HETATM   13  N2  UNK     1      -1.260  -0.160   1.538  1.00  0.00    -0.229 NA
HETATM   14  C3  UNK     1      -2.386  -0.838   1.630  1.00  0.00     0.134 A 
HETATM   15  C10 UNK     1      -3.279  -1.054   2.721  1.00  0.00     0.051 A 
HETATM   16  N1  UNK     1      -2.718  -1.431   0.415  1.00  0.00    -0.315 N 
HETATM   17  C14 UNK     1      -4.383  -1.804   2.541  1.00  0.00     0.005 A 
HETATM   18  C13 UNK     1      -4.693  -2.407   1.254  1.00  0.00     0.018 A 
HETATM   19  C9  UNK     1      -3.857  -2.208   0.222  1.00  0.00     0.098 A 
HETATM   20  C4  UNK     1      -1.732  -1.092  -0.476  1.00  0.00     0.130 A 
ENDBRANCH   3  12
TORSDOF 1
