REMARK  8 active torsions:
REMARK  status: ('A' for Active; 'I' for Inactive)
REMARK    1  A    between atoms: C2_6  and  O1_1 
REMARK    2  A    between atoms: C5_9  and  O1_1 
REMARK    3  A    between atoms: C12_16  and  O2_2 
REMARK    4  A    between atoms: C8_12  and  O2_2 
REMARK    5  A    between atoms: C3_7  and  O3_3 
REMARK    6  A    between atoms: C1_5  and  C9_13 
REMARK    7  A    between atoms: C5_9  and  C8_12 
REMARK    8  A    between atoms: C10_14  and  C11_15 
ROOT
HETATM    1  N1  UNK     1      -6.782  -1.022   1.846  1.00  0.00    -0.191 NA
HETATM    2  C9  UNK     1      -3.830  -0.559   0.126  1.00  0.00     0.035 C 
HETATM    3  C10 UNK     1      -4.241  -1.106   1.301  1.00  0.00     0.055 C 
HETATM    4  C24 UNK     1      -5.650  -1.055   1.594  1.00  0.00     0.100 C 
ENDROOT
BRANCH   3   5
HETATM    5  C11 UNK     1      -3.346  -1.736   2.259  1.00  0.00    -0.015 A 
HETATM    6  C14 UNK     1      -3.071  -3.100   2.163  1.00  0.00     0.013 A 
HETATM    7  C16 UNK     1      -2.212  -3.705   3.082  1.00  0.00     0.001 A 
HETATM    8  C19 UNK     1      -1.629  -2.945   4.096  1.00  0.00     0.000 A 
HETATM    9  C15 UNK     1      -1.904  -1.581   4.191  1.00  0.00     0.001 A 
HETATM   10  C13 UNK     1      -2.762  -0.976   3.273  1.00  0.00     0.013 A 
ENDBRANCH   3   5
BRANCH   2  11
HETATM   11  C1  UNK     1      -2.439  -0.490  -0.346  1.00  0.00    -0.032 A 
HETATM   12  C4  UNK     1      -1.666   0.617  -0.030  1.00  0.00     0.051 A 
HETATM   13  C3  UNK     1      -0.347   0.683  -0.479  1.00  0.00     0.102 A 
HETATM   14  C2  UNK     1       0.184  -0.360  -1.238  1.00  0.00     0.102 A 
HETATM   15  C7  UNK     1      -0.604  -1.468  -1.549  1.00  0.00     0.040 A 
HETATM   16  C6  UNK     1      -1.923  -1.534  -1.100  1.00  0.00     0.014 A 
BRANCH  13  17
HETATM   17  O3  UNK     1       0.413   1.770  -0.169  1.00  0.00    -0.353 OA
HETATM   18  C20 UNK     1       1.165   1.712   1.042  1.00  0.00     0.210 C 
ENDBRANCH  13  17
BRANCH  14  19
HETATM   19  O1  UNK     1       1.471  -0.309  -1.681  1.00  0.00    -0.346 OA
BRANCH  19  20
HETATM   20  C5  UNK     1       1.674  -0.352  -3.092  1.00  0.00     0.202 C 
BRANCH  20  21
HETATM   21  C8  UNK     1       2.920   0.440  -3.438  1.00  0.00     0.202 C 
BRANCH  21  22
HETATM   22  O2  UNK     1       2.737   1.792  -3.034  1.00  0.00    -0.349 OA
BRANCH  22  23
HETATM   23  C12 UNK     1       3.859   2.478  -2.651  1.00  0.00     0.068 A 
HETATM   24  C17 UNK     1       5.089   2.155  -3.213  1.00  0.00     0.037 A 
HETATM   25  C21 UNK     1       6.232   2.853  -2.822  1.00  0.00     0.003 A 
HETATM   26  C23 UNK     1       6.137   3.870  -1.872  1.00  0.00     0.000 A 
HETATM   27  C22 UNK     1       4.899   4.188  -1.312  1.00  0.00     0.003 A 
HETATM   28  C18 UNK     1       3.757   3.490  -1.703  1.00  0.00     0.037 A 
ENDBRANCH  22  23
ENDBRANCH  21  22
ENDBRANCH  20  21
ENDBRANCH  19  20
ENDBRANCH  14  19
ENDBRANCH   2  11
TORSDOF 8
