REMARK  4 active torsions:
REMARK  status: ('A' for Active; 'I' for Inactive)
REMARK       I    between atoms: C11_15  and  N1_4 
REMARK    1  A    between atoms: C7_11  and  N1_4 
REMARK    2  A    between atoms: C1_5  and  C7_11 
REMARK    3  A    between atoms: C2_6  and  C8_12 
REMARK    4  A    between atoms: C11_15  and  C15_19 
ROOT
HETATM    1  O1  UNK     1      -0.885   0.742   2.586  1.00  0.00    -0.267 OA
HETATM    2  N1  UNK     1       0.267  -0.884   1.372  1.00  0.00    -0.356 N 
HETATM    3  C11 UNK     1      -0.862  -0.279   1.908  1.00  0.00     0.257 C 
HETATM    4  H13 UNK     1       0.176  -1.747   0.846  1.00  0.00     0.162 HD
ENDROOT
BRANCH   2   5
HETATM    5  C7  UNK     1       1.591  -0.372   1.551  1.00  0.00     0.127 C 
BRANCH   5   6
HETATM    6  C1  UNK     1       1.955   0.607   0.435  1.00  0.00     0.003 C 
HETATM    7  C3  UNK     1       1.896  -0.086  -0.932  1.00  0.00     0.007 C 
HETATM    8  C5  UNK     1       2.301   0.860  -2.063  1.00  0.00     0.010 C 
HETATM    9  C2  UNK     1       3.691   1.469  -1.816  1.00  0.00     0.018 C 
HETATM   10  C6  UNK     1       3.750   2.165  -0.445  1.00  0.00     0.010 C 
HETATM   11  C4  UNK     1       3.342   1.216   0.681  1.00  0.00     0.007 C 
BRANCH   9  12
HETATM   12  C8  UNK     1       4.108   2.400  -2.940  1.00  0.00    -0.054 A 
HETATM   13  C10 UNK     1       3.788   3.754  -2.875  1.00  0.00     0.007 A 
HETATM   14  C13 UNK     1       4.171   4.609  -3.908  1.00  0.00     0.001 A 
HETATM   15  C14 UNK     1       4.873   4.108  -5.004  1.00  0.00     0.000 A 
HETATM   16  C12 UNK     1       5.192   2.751  -5.067  1.00  0.00     0.001 A 
HETATM   17  C9  UNK     1       4.809   1.896  -4.034  1.00  0.00     0.007 A 
ENDBRANCH   9  12
ENDBRANCH   5   6
ENDBRANCH   2   5
BRANCH   3  18
HETATM   18  C15 UNK     1      -2.111  -0.993   1.583  1.00  0.00     0.108 A 
HETATM   19  C16 UNK     1      -3.096  -0.902   2.485  1.00  0.00     0.037 A 
HETATM   20  C18 UNK     1      -4.366  -1.573   2.253  1.00  0.00    -0.001 A 
HETATM   21  C19 UNK     1      -4.536  -2.307   1.084  1.00  0.00     0.089 A 
HETATM   22  C20 UNK     1      -5.421  -1.505   3.167  1.00  0.00     0.014 A 
HETATM   23  O2  UNK     1      -3.496  -2.398   0.139  1.00  0.00    -0.274 OA
HETATM   24  C21 UNK     1      -5.727  -2.973   0.802  1.00  0.00     0.038 A 
HETATM   25  C17 UNK     1      -2.270  -1.768   0.332  1.00  0.00     0.304 A 
HETATM   26  O3  UNK     1      -1.370  -1.854  -0.496  1.00  0.00    -0.259 OA
HETATM   27  C23 UNK     1      -6.774  -2.900   1.718  1.00  0.00     0.003 A 
HETATM   28  C22 UNK     1      -6.622  -2.168   2.898  1.00  0.00     0.001 A 
ENDBRANCH   3  18
TORSDOF 4
