REMARK  5 active torsions:
REMARK  status: ('A' for Active; 'I' for Inactive)
REMARK    1  A    between atoms: C14_20  and  O4_5 
REMARK    2  A    between atoms: C10_16  and  N1_6 
REMARK       I    between atoms: C8_14  and  N1_6 
REMARK    3  A    between atoms: C2_8  and  C4_10 
REMARK    4  A    between atoms: C4_10  and  C8_14 
REMARK    5  A    between atoms: C10_16  and  C13_19 
ROOT
HETATM    1  O1  UNK     1       2.323   2.448  -0.163  1.00  0.00    -0.274 OA
HETATM    2  O2  UNK     1       1.959   2.348   2.075  1.00  0.00    -0.259 OA
HETATM    3  C1  UNK     1       1.597  -0.282  -0.344  1.00  0.00    -0.036 A 
HETATM    4  C2  UNK     1       1.614   0.329   0.859  1.00  0.00     0.033 A 
HETATM    5  C3  UNK     1       1.994   0.476  -1.549  1.00  0.00     0.005 A 
HETATM    6  C5  UNK     1       2.342   1.817  -1.416  1.00  0.00     0.092 A 
HETATM    7  C6  UNK     1       1.974   1.770   0.993  1.00  0.00     0.295 A 
HETATM    8  C7  UNK     1       1.174  -1.716  -0.549  1.00  0.00     0.050 C 
HETATM    9  C9  UNK     1       2.055  -0.076  -2.838  1.00  0.00     0.017 A 
HETATM   10  C11 UNK     1       2.730   2.605  -2.503  1.00  0.00     0.074 A 
HETATM   11  C12 UNK     1       2.442   0.698  -3.939  1.00  0.00     0.037 A 
HETATM   12  C14 UNK     1       2.778   2.039  -3.771  1.00  0.00     0.068 A 
ENDROOT
BRANCH   4  13
HETATM   13  C4  UNK     1       1.294  -0.342   2.171  1.00  0.00     0.148 C 
BRANCH  13  14
HETATM   14  C8  UNK     1      -0.188  -0.206   2.430  1.00  0.00     0.222 C 
HETATM   15  O3  UNK     1      -0.742   0.888   2.523  1.00  0.00    -0.273 OA
HETATM   16  N1  UNK     1      -0.817  -1.433   2.563  1.00  0.00    -0.357 N 
HETATM   17  H10 UNK     1      -0.278  -2.288   2.462  1.00  0.00     0.162 HD
BRANCH  16  18
HETATM   18  C10 UNK     1      -2.230  -1.569   2.832  1.00  0.00     0.161 C 
BRANCH  18  19
HETATM   19  C13 UNK     1      -3.008  -1.633   1.546  1.00  0.00    -0.039 A 
HETATM   20  C15 UNK     1      -3.476  -0.460   0.968  1.00  0.00     0.032 A 
HETATM   21  C17 UNK     1      -4.196  -0.521  -0.225  1.00  0.00     0.034 A 
HETATM   22 Cl1  UNK     1      -4.782   0.925  -0.951  1.00  0.00    -0.084 Cl
HETATM   23  C19 UNK     1      -4.443  -1.754  -0.829  1.00  0.00     0.024 A 
HETATM   24  C18 UNK     1      -3.969  -2.926  -0.240  1.00  0.00     0.002 A 
HETATM   25  C16 UNK     1      -3.248  -2.866   0.952  1.00  0.00     0.009 A 
ENDBRANCH  18  19
ENDBRANCH  16  18
ENDBRANCH  13  14
ENDBRANCH   4  13
BRANCH  12  26
HETATM   26  O4  UNK     1       3.153   2.789  -4.842  1.00  0.00    -0.361 OA
HETATM   27  H16 UNK     1       3.129   2.233  -5.640  1.00  0.00     0.217 HD
ENDBRANCH  12  26
TORSDOF 5
