REMARK  4 active torsions:
REMARK  status: ('A' for Active; 'I' for Inactive)
REMARK    1  A    between atoms: C4_11  and  O1_1 
REMARK    2  A    between atoms: C6_13  and  O1_1 
REMARK    3  A    between atoms: C10_17  and  O4_4 
REMARK    4  A    between atoms: C11_18  and  O5_5 
ROOT
HETATM    1  O2  UNK     1      -3.263   0.215  -0.708  1.00  0.00    -0.272 OA
HETATM    2  O6  UNK     1      -2.610   0.975  -2.763  1.00  0.00    -0.257 OA
HETATM    3  C1  UNK     1      -1.811  -1.292   0.528  1.00  0.00     0.004 A 
HETATM    4  C2  UNK     1      -2.993  -0.566   0.432  1.00  0.00     0.092 A 
HETATM    5  C3  UNK     1      -0.860  -1.230  -0.570  1.00  0.00     0.058 A 
HETATM    6  C4  UNK     1      -1.117  -0.488  -1.653  1.00  0.00     0.152 A 
HETATM    7  C5  UNK     1      -1.578  -2.055   1.674  1.00  0.00     0.054 A 
HETATM    8  C9  UNK     1      -3.947  -0.582   1.448  1.00  0.00     0.077 A 
HETATM    9  C10 UNK     1      -2.526  -2.080   2.701  1.00  0.00     0.102 A 
HETATM   10  C11 UNK     1      -3.708  -1.345   2.588  1.00  0.00     0.101 A 
HETATM   11  C13 UNK     1      -2.370   0.291  -1.773  1.00  0.00     0.322 A 
ENDROOT
BRANCH   6  12
HETATM   12  O1  UNK     1      -0.238  -0.404  -2.714  1.00  0.00    -0.304 OA
BRANCH  12  13
HETATM   13  C6  UNK     1       1.009   0.084  -2.445  1.00  0.00     0.079 A 
HETATM   14  C12 UNK     1       1.152   1.219  -1.652  1.00  0.00     0.075 A 
HETATM   15  C8  UNK     1       2.434   1.698  -1.391  1.00  0.00     0.092 A 
HETATM   16  C7  UNK     1       3.569   1.072  -1.901  1.00  0.00    -0.002 A 
HETATM   17  O3  UNK     1       2.551   2.849  -0.586  1.00  0.00    -0.275 OA
HETATM   18  C15 UNK     1       3.412  -0.066  -2.695  1.00  0.00     0.017 A 
HETATM   19  C16 UNK     1       4.875   1.626  -1.589  1.00  0.00     0.020 A 
HETATM   20  C14 UNK     1       2.132  -0.559  -2.966  1.00  0.00     0.038 A 
HETATM   21  C17 UNK     1       4.978   2.716  -0.825  1.00  0.00     0.083 A 
HETATM   22  C18 UNK     1       3.791   3.397  -0.273  1.00  0.00     0.288 A 
HETATM   23  O7  UNK     1       3.902   4.397   0.427  1.00  0.00    -0.260 OA
ENDBRANCH  12  13
ENDBRANCH   6  12
BRANCH   9  24
HETATM   24  O4  UNK     1      -2.284  -2.831   3.813  1.00  0.00    -0.353 OA
HETATM   25  C19 UNK     1      -1.603  -2.191   4.891  1.00  0.00     0.210 C 
ENDBRANCH   9  24
BRANCH  10  26
HETATM   26  O5  UNK     1      -4.635  -1.368   3.586  1.00  0.00    -0.358 OA
HETATM   27  H9  UNK     1      -5.385  -0.802   3.334  1.00  0.00     0.217 HD
ENDBRANCH  10  26
TORSDOF 4
