REMARK  7 active torsions:
REMARK  status: ('A' for Active; 'I' for Inactive)
REMARK    1  A    between atoms: C12_18  and  O2_2 
REMARK    2  A    between atoms: C7_13  and  O2_2 
REMARK    3  A    between atoms: C11_17  and  O3_3 
REMARK    4  A    between atoms: C17_23  and  O3_3 
REMARK    5  A    between atoms: C20_26  and  O5_5 
REMARK    6  A    between atoms: C10_16  and  C9_15 
REMARK    7  A    between atoms: C12_18  and  C17_23 
ROOT
HETATM    1  O1  UNK     1      -1.336  -0.433  -0.139  1.00  0.00    -0.306 OA
HETATM    2  O4  UNK     1      -1.948  -3.192  -2.273  1.00  0.00    -0.284 OA
HETATM    3  C1  UNK     1      -0.732  -1.124  -2.259  1.00  0.00     0.051 A 
HETATM    4  C2  UNK     1      -0.620  -0.141  -1.278  1.00  0.00     0.093 A 
HETATM    5  C3  UNK     1      -1.944  -1.659  -0.380  1.00  0.00     0.127 A 
HETATM    6  C4  UNK     1      -1.601  -2.168  -1.730  1.00  0.00     0.218 A 
HETATM    7  C5  UNK     1       0.143   0.988  -1.481  1.00  0.00     0.075 A 
HETATM    8  C6  UNK     1      -0.095  -1.029  -3.478  1.00  0.00     0.021 A 
HETATM    9  C7  UNK     1       0.801   1.109  -2.710  1.00  0.00     0.072 A 
HETATM   10  C8  UNK     1       0.683   0.110  -3.698  1.00  0.00     0.038 A 
HETATM   11  C9  UNK     1      -2.733  -2.296   0.486  1.00  0.00     0.053 C 
ENDROOT
BRANCH  11  12
HETATM   12  C10 UNK     1      -3.097  -1.823   1.835  1.00  0.00    -0.033 A 
HETATM   13  C13 UNK     1      -2.314  -2.193   2.916  1.00  0.00     0.014 A 
HETATM   14  C18 UNK     1      -2.659  -1.745   4.191  1.00  0.00     0.037 A 
HETATM   15  C20 UNK     1      -3.780  -0.935   4.367  1.00  0.00     0.068 A 
HETATM   16  C19 UNK     1      -4.558  -0.573   3.267  1.00  0.00     0.037 A 
HETATM   17  C14 UNK     1      -4.213  -1.020   1.992  1.00  0.00     0.014 A 
BRANCH  15  18
HETATM   18  O5  UNK     1      -4.116  -0.499   5.611  1.00  0.00    -0.356 OA
HETATM   19  C21 UNK     1      -5.276   0.326   5.720  1.00  0.00     0.210 C 
ENDBRANCH  15  18
ENDBRANCH  11  12
BRANCH   9  20
HETATM   20  O2  UNK     1       1.568   2.208  -2.957  1.00  0.00    -0.341 OA
BRANCH  20  21
HETATM   21  C12 UNK     1       2.195   2.826  -1.835  1.00  0.00     0.286 C 
BRANCH  21  22
HETATM   22  C17 UNK     1       3.474   3.477  -2.290  1.00  0.00     0.283 C 
HETATM   23  O6  UNK     1       3.904   3.454  -3.436  1.00  0.00    -0.263 OA
BRANCH  22  24
HETATM   24  O3  UNK     1       4.064   4.090  -1.223  1.00  0.00    -0.315 OA
BRANCH  24  25
HETATM   25  C11 UNK     1       5.493   4.163  -1.267  1.00  0.00     0.123 C 
HETATM   26  C15 UNK     1       5.995   4.898  -0.033  1.00  0.00     0.040 C 
HETATM   27  C16 UNK     1       6.064   2.757  -1.361  1.00  0.00     0.040 C 
ENDBRANCH  24  25
ENDBRANCH  22  24
ENDBRANCH  21  22
ENDBRANCH  20  21
ENDBRANCH   9  20
TORSDOF 7
