REMARK  4 active torsions:
REMARK  status: ('A' for Active; 'I' for Inactive)
REMARK    1  A    between atoms: C8_13  and  O2_2 
REMARK    2  A    between atoms: C11_16  and  O4_4 
REMARK    3  A    between atoms: C13_18  and  O5_5 
REMARK    4  A    between atoms: C2_7  and  C4_9 
ROOT
HETATM    1  O1  UNK     1      -0.082   0.464   0.745  1.00  0.00    -0.309 OA
HETATM    2  O3  UNK     1      -2.507  -1.887  -1.533  1.00  0.00    -0.287 OA
HETATM    3  C1  UNK     1      -2.076  -0.914   0.576  1.00  0.00     0.051 A 
HETATM    4  C2  UNK     1       0.199   0.204  -0.588  1.00  0.00     0.093 A 
HETATM    5  C3  UNK     1      -1.204  -0.099   1.298  1.00  0.00     0.090 A 
HETATM    6  C5  UNK     1      -1.785  -1.185  -0.840  1.00  0.00     0.187 A 
HETATM    7  C6  UNK     1      -0.565  -0.558  -1.387  1.00  0.00     0.094 A 
HETATM    8  C7  UNK     1      -3.204  -1.461   1.192  1.00  0.00     0.054 A 
HETATM    9  C9  UNK     1      -1.458   0.174   2.642  1.00  0.00     0.041 A 
HETATM   10  C11 UNK     1      -3.455  -1.186   2.536  1.00  0.00     0.066 A 
HETATM   11  C12 UNK     1      -2.584  -0.370   3.260  1.00  0.00     0.039 A 
ENDROOT
BRANCH   4  12
HETATM   12  C4  UNK     1       1.425   0.863  -1.082  1.00  0.00     0.034 A 
HETATM   13  C10 UNK     1       2.644   0.183  -0.998  1.00  0.00     0.017 A 
HETATM   14  C14 UNK     1       3.816   0.784  -1.457  1.00  0.00     0.004 A 
HETATM   15  C15 UNK     1       3.775   2.067  -2.002  1.00  0.00     0.039 A 
HETATM   16  C13 UNK     1       2.562   2.750  -2.088  1.00  0.00     0.099 A 
HETATM   17  C8  UNK     1       1.389   2.149  -1.629  1.00  0.00     0.111 A 
BRANCH  16  18
HETATM   18  O5  UNK     1       2.536   4.002  -2.623  1.00  0.00    -0.358 OA
HETATM   19  H10 UNK     1       1.754   4.479  -2.300  1.00  0.00     0.217 HD
ENDBRANCH  16  18
BRANCH  17  20
HETATM   20  O2  UNK     1       0.209   2.829  -1.719  1.00  0.00    -0.357 OA
HETATM   21  H8  UNK     1       0.264   3.484  -2.433  1.00  0.00     0.217 HD
ENDBRANCH  17  20
ENDBRANCH   4  12
BRANCH  10  22
HETATM   22  O4  UNK     1      -4.552  -1.715   3.145  1.00  0.00    -0.361 OA
HETATM   23  H9  UNK     1      -5.043  -2.252   2.499  1.00  0.00     0.217 HD
ENDBRANCH  10  22
TORSDOF 4
