REMARK  5 active torsions:
REMARK  status: ('A' for Active; 'I' for Inactive)
REMARK    1  A    between atoms: C13_21  and  O1_3 
REMARK    2  A    between atoms: C25_33  and  O1_3 
REMARK       I    between atoms: C17_25  and  N1_8 
REMARK    3  A    between atoms: C6_14  and  N1_8 
REMARK    4  A    between atoms: C13_21  and  C4_12 
REMARK    5  A    between atoms: C16_24  and  C17_25 
ROOT
HETATM    1  S1  UNK     1      -1.618  -0.441  -2.273  1.00  0.00    -0.082 SA
HETATM    2  C1  UNK     1      -3.263  -2.244   0.825  1.00  0.00    -0.013 A 
HETATM    3  C2  UNK     1      -2.416  -1.504  -0.075  1.00  0.00     0.001 A 
HETATM    4  C3  UNK     1      -4.290  -1.635   1.568  1.00  0.00    -0.015 A 
HETATM    5  C4  UNK     1      -1.180  -0.862   0.223  1.00  0.00     0.085 A 
HETATM    6  C5  UNK     1      -5.082  -2.426   2.434  1.00  0.00    -0.025 A 
HETATM    7  C6  UNK     1      -0.662  -0.261  -0.880  1.00  0.00     0.094 A 
HETATM    8  C7  UNK     1      -3.024  -3.615   0.937  1.00  0.00     0.013 A 
HETATM    9  C8  UNK     1      -2.772  -1.354  -1.397  1.00  0.00     0.065 A 
HETATM   10  C9  UNK     1      -4.545  -0.258   1.469  1.00  0.00     0.013 A 
HETATM   11  C10 UNK     1      -4.826  -3.803   2.532  1.00  0.00     0.012 A 
HETATM   12  C11 UNK     1      -3.804  -4.393   1.788  1.00  0.00     0.002 A 
HETATM   13  C12 UNK     1      -6.107  -1.816   3.175  1.00  0.00     0.012 A 
HETATM   14  C14 UNK     1      -5.568   0.331   2.214  1.00  0.00     0.001 A 
HETATM   15  C15 UNK     1      -6.347  -0.446   3.065  1.00  0.00     0.001 A 
ENDROOT
BRANCH   7  16
HETATM   16  N1  UNK     1       0.517   0.473  -1.044  1.00  0.00    -0.316 N 
HETATM   17  C17 UNK     1       0.961   1.053  -2.223  1.00  0.00     0.262 C 
HETATM   18  O4  UNK     1       0.429   1.044  -3.332  1.00  0.00    -0.267 OA
HETATM   19  H7  UNK     1       1.082   0.550  -0.203  1.00  0.00     0.169 HD
BRANCH  17  20
HETATM   20  C16 UNK     1       2.240   1.751  -2.041  1.00  0.00     0.108 A 
HETATM   21  C19 UNK     1       3.045   1.798  -3.109  1.00  0.00     0.037 A 
HETATM   22  C18 UNK     1       4.334   2.467  -3.027  1.00  0.00     0.000 A 
HETATM   23  C20 UNK     1       4.712   3.055  -1.824  1.00  0.00     0.089 A 
HETATM   24  C22 UNK     1       5.207   2.540  -4.116  1.00  0.00     0.033 A 
HETATM   25  O2  UNK     1       3.859   3.003  -0.703  1.00  0.00    -0.274 OA
HETATM   26  C23 UNK     1       5.933   3.711  -1.679  1.00  0.00     0.039 A 
HETATM   27  C21 UNK     1       2.621   2.369  -0.752  1.00  0.00     0.304 A 
HETATM   28  O5  UNK     1       1.885   2.329   0.229  1.00  0.00    -0.259 OA
HETATM   29  C26 UNK     1       6.797   3.779  -2.769  1.00  0.00     0.022 A 
HETATM   30  C24 UNK     1       6.435   3.195  -3.985  1.00  0.00     0.011 A 
HETATM   31 Br1  UNK     1       7.612   3.291  -5.462  1.00  0.00    -0.051 Br
ENDBRANCH  17  20
ENDBRANCH   7  16
BRANCH   5  32
HETATM   32  C13 UNK     1      -0.536  -0.837   1.514  1.00  0.00     0.297 C 
HETATM   33  O3  UNK     1       0.541  -0.268   1.737  1.00  0.00    -0.259 OA
BRANCH  32  34
HETATM   34  O1  UNK     1      -1.230  -1.510   2.496  1.00  0.00    -0.318 OA
BRANCH  34  35
HETATM   35  C25 UNK     1      -0.647  -1.524   3.804  1.00  0.00     0.174 C 
HETATM   36  C27 UNK     1      -1.548  -2.305   4.737  1.00  0.00     0.034 C 
ENDBRANCH  34  35
ENDBRANCH  32  34
ENDBRANCH   5  32
TORSDOF 5
