REMARK  3 active torsions:
REMARK  status: ('A' for Active; 'I' for Inactive)
REMARK    1  A    between atoms: C2_6  and  O2_2 
REMARK    2  A    between atoms: C5_9  and  O3_3 
REMARK    3  A    between atoms: C1_5  and  C2_6 
ROOT
HETATM    1  O1  UNK     1      -0.529  -0.257   1.341  1.00  0.00    -0.274 OA
HETATM    2  O4  UNK     1      -1.832  -1.067   3.042  1.00  0.00    -0.260 OA
HETATM    3  C1  UNK     1       0.823   0.586  -0.451  1.00  0.00     0.038 A 
HETATM    4  C3  UNK     1      -0.361  -0.020  -0.038  1.00  0.00     0.101 A 
HETATM    5  C4  UNK     1      -1.353  -0.384  -0.945  1.00  0.00    -0.001 A 
HETATM    6  C5  UNK     1       1.017   0.833  -1.809  1.00  0.00     0.077 A 
HETATM    7  C6  UNK     1      -1.151  -0.132  -2.304  1.00  0.00     0.017 A 
HETATM    8  C8  UNK     1       0.033   0.475  -2.733  1.00  0.00     0.038 A 
HETATM    9  C9  UNK     1      -2.564  -1.012  -0.445  1.00  0.00     0.020 A 
HETATM   10  C10 UNK     1      -2.715  -1.233   0.863  1.00  0.00     0.083 A 
HETATM   11  C11 UNK     1      -1.679  -0.856   1.843  1.00  0.00     0.288 A 
ENDROOT
BRANCH   3  12
HETATM   12  C2  UNK     1       1.872   0.966   0.541  1.00  0.00     0.152 C 
HETATM   13  C7  UNK     1       3.221   0.299   0.260  1.00  0.00     0.044 C 
BRANCH  12  14
HETATM   14  O2  UNK     1       2.055   2.386   0.539  1.00  0.00    -0.391 OA
HETATM   15  H9  UNK     1       2.742   2.594   1.195  1.00  0.00     0.210 HD
ENDBRANCH  12  14
ENDBRANCH   3  12
BRANCH   6  16
HETATM   16  O3  UNK     1       2.162   1.425  -2.253  1.00  0.00    -0.360 OA
HETATM   17  H10 UNK     1       2.118   1.513  -3.221  1.00  0.00     0.217 HD
ENDBRANCH   6  16
TORSDOF 3
