REMARK  3 active torsions:
REMARK  status: ('A' for Active; 'I' for Inactive)
REMARK    1  A    between atoms: C9_13  and  O2_2 
REMARK    2  A    between atoms: C5_9  and  O3_3 
REMARK    3  A    between atoms: C3_7  and  C7_11 
ROOT
HETATM    1  O1  UNK     1      -0.161   0.166  -0.841  1.00  0.00    -0.309 OA
HETATM    2  O4  UNK     1      -0.018   1.664   2.945  1.00  0.00    -0.287 OA
HETATM    3  C1  UNK     1      -1.087   0.227   1.404  1.00  0.00     0.081 A 
HETATM    4  C2  UNK     1      -1.078  -0.246   0.093  1.00  0.00     0.095 A 
HETATM    5  C3  UNK     1       0.793   1.099  -0.463  1.00  0.00     0.090 A 
HETATM    6  C4  UNK     1      -0.071   1.209   1.811  1.00  0.00     0.190 A 
HETATM    7  C5  UNK     1      -2.044  -0.229   2.313  1.00  0.00     0.085 A 
HETATM    8  C6  UNK     1      -2.029  -1.179  -0.319  1.00  0.00     0.075 A 
HETATM    9  C8  UNK     1       0.892   1.623   0.769  1.00  0.00     0.094 A 
HETATM   10  C9  UNK     1      -2.988  -1.637   0.586  1.00  0.00     0.073 A 
HETATM   11  C10 UNK     1      -2.995  -1.163   1.899  1.00  0.00     0.074 A 
ENDROOT
BRANCH   5  12
HETATM   12  C7  UNK     1       1.732   1.468  -1.541  1.00  0.00    -0.002 A 
HETATM   13  C11 UNK     1       2.316   2.737  -1.560  1.00  0.00     0.014 A 
HETATM   14  C13 UNK     1       3.204   3.085  -2.579  1.00  0.00     0.001 A 
HETATM   15  C15 UNK     1       3.511   2.165  -3.581  1.00  0.00     0.000 A 
HETATM   16  C14 UNK     1       2.930   0.896  -3.565  1.00  0.00     0.001 A 
HETATM   17  C12 UNK     1       2.042   0.548  -2.547  1.00  0.00     0.014 A 
ENDBRANCH   5  12
BRANCH   7  18
HETATM   18  O3  UNK     1      -2.095   0.202   3.604  1.00  0.00    -0.360 OA
HETATM   19  H9  UNK     1      -1.391   0.847   3.775  1.00  0.00     0.217 HD
ENDBRANCH   7  18
BRANCH  10  20
HETATM   20  O2  UNK     1      -3.917  -2.549   0.188  1.00  0.00    -0.356 OA
HETATM   21  C16 UNK     1      -3.853  -2.992  -1.167  1.00  0.00     0.210 C 
ENDBRANCH  10  20
TORSDOF 3
