REMARK  5 active torsions:
REMARK  status: ('A' for Active; 'I' for Inactive)
REMARK    1  A    between atoms: C2_8  and  N1_4 
REMARK    2  A    between atoms: C3_9  and  N2_5 
REMARK       I    between atoms: C5_11  and  N2_5 
REMARK    3  A    between atoms: C1_7  and  C2_8 
REMARK    4  A    between atoms: C1_7  and  C3_9 
REMARK    5  A    between atoms: C4_10  and  C5_11 
ROOT
HETATM    1  O2  UNK     1       1.518  -0.554   1.765  1.00  0.00    -0.267 OA
HETATM    2  N2  UNK     1      -0.402   0.747   1.526  1.00  0.00    -0.357 N 
HETATM    3  C5  UNK     1       0.829   0.249   1.138  1.00  0.00     0.257 C 
HETATM    4  H7  UNK     1      -0.883   1.428   0.947  1.00  0.00     0.162 HD
ENDROOT
BRANCH   3   5
HETATM    5  C4  UNK     1       1.277   0.778  -0.155  1.00  0.00     0.108 A 
HETATM    6  C11 UNK     1       0.322   1.176  -1.214  1.00  0.00     0.304 A 
HETATM    7  O1  UNK     1       0.869   1.665  -2.397  1.00  0.00    -0.274 OA
HETATM    8  O3  UNK     1      -0.891   1.084  -1.062  1.00  0.00    -0.259 OA
HETATM    9  C10 UNK     1       2.261   1.776  -2.582  1.00  0.00     0.089 A 
HETATM   10  C6  UNK     1       3.141   1.396  -1.574  1.00  0.00    -0.001 A 
HETATM   11  C14 UNK     1       2.714   2.277  -3.801  1.00  0.00     0.038 A 
HETATM   12  C12 UNK     1       4.515   1.521  -1.795  1.00  0.00     0.014 A 
HETATM   13  C8  UNK     1       2.600   0.881  -0.325  1.00  0.00     0.037 A 
HETATM   14  C15 UNK     1       4.984   2.021  -3.013  1.00  0.00     0.001 A 
HETATM   15  C16 UNK     1       4.086   2.398  -4.014  1.00  0.00     0.003 A 
ENDBRANCH   3   5
BRANCH   2  16
HETATM   16  C3  UNK     1      -1.051   0.371   2.762  1.00  0.00     0.124 C 
BRANCH  16  17
HETATM   17  C1  UNK     1      -1.952  -0.848   2.596  1.00  0.00     0.040 C 
BRANCH  17  18
HETATM   18  C2  UNK     1      -3.083  -0.605   1.595  1.00  0.00     0.131 C 
BRANCH  18  19
HETATM   19  N1  UNK     1      -3.946  -1.774   1.450  1.00  0.00    -0.350 N 
HETATM   20  C7  UNK     1      -3.773  -2.779   0.556  1.00  0.00     0.111 A 
HETATM   21  C13 UNK     1      -4.821  -3.634   0.802  1.00  0.00     0.135 A 
HETATM   22  N3  UNK     1      -5.615  -3.165   1.818  1.00  0.00    -0.255 NA
HETATM   23  C9  UNK     1      -5.054  -2.035   2.188  1.00  0.00     0.209 A 
ENDBRANCH  18  19
ENDBRANCH  17  18
ENDBRANCH  16  17
ENDBRANCH   2  16
TORSDOF 5
