REMARK  3 active torsions:
REMARK  status: ('A' for Active; 'I' for Inactive)
REMARK    1  A    between atoms: C1_5  and  N1_4 
REMARK    2  A    between atoms: C2_6  and  N1_4 
REMARK       I    between atoms: C3_7  and  N1_4 
REMARK    3  A    between atoms: C3_7  and  C8_12 
ROOT
HETATM    1  O2  UNK     1       0.503   1.031  -2.477  1.00  0.00    -0.274 OA
HETATM    2  O3  UNK     1      -1.501  -0.064  -2.401  1.00  0.00    -0.259 OA
HETATM    3  C8  UNK     1      -0.042  -0.390  -0.563  1.00  0.00     0.108 A 
HETATM    4  C9  UNK     1       1.134  -0.113   0.012  1.00  0.00     0.037 A 
HETATM    5  C10 UNK     1       2.082   0.773  -0.646  1.00  0.00    -0.001 A 
HETATM    6  C11 UNK     1      -0.423   0.186  -1.872  1.00  0.00     0.304 A 
HETATM    7  C12 UNK     1       1.743   1.325  -1.877  1.00  0.00     0.089 A 
HETATM    8  C13 UNK     1       3.321   1.089  -0.083  1.00  0.00     0.014 A 
HETATM    9  C14 UNK     1       2.605   2.182  -2.559  1.00  0.00     0.038 A 
HETATM   10  C15 UNK     1       4.196   1.947  -0.755  1.00  0.00     0.001 A 
HETATM   11  C16 UNK     1       3.839   2.492  -1.991  1.00  0.00     0.003 A 
ENDROOT
BRANCH   3  12
HETATM   12  C3  UNK     1      -0.930  -1.294   0.179  1.00  0.00     0.260 C 
HETATM   13  O1  UNK     1      -0.828  -2.510  -0.023  1.00  0.00    -0.267 OA
HETATM   14  N1  UNK     1      -1.831  -0.721   1.081  1.00  0.00    -0.340 N 
BRANCH  14  15
HETATM   15  C1  UNK     1      -1.916   0.723   1.286  1.00  0.00     0.079 C 
HETATM   16  C4  UNK     1      -1.575   1.074   2.728  1.00  0.00     0.032 C 
HETATM   17  C5  UNK     1      -3.299   1.236   0.905  1.00  0.00     0.032 C 
ENDBRANCH  14  15
BRANCH  14  18
HETATM   18  C2  UNK     1      -2.747  -1.526   1.880  1.00  0.00     0.079 C 
HETATM   19  C6  UNK     1      -1.969  -2.459   2.798  1.00  0.00     0.032 C 
HETATM   20  C7  UNK     1      -3.699  -2.304   0.979  1.00  0.00     0.032 C 
ENDBRANCH  14  18
ENDBRANCH   3  12
TORSDOF 3
