REMARK  3 active torsions:
REMARK  status: ('A' for Active; 'I' for Inactive)
REMARK    1  A    between atoms: C4_8  and  O1_2 
REMARK    2  A    between atoms: C8_12  and  O1_2 
REMARK    3  A    between atoms: C8_12  and  C9_13 
ROOT
HETATM    1  O2  UNK     1      -3.012  -1.320  -0.338  1.00  0.00    -0.275 OA
HETATM    2  O3  UNK     1      -5.086  -2.271  -0.478  1.00  0.00    -0.260 OA
HETATM    3  C1  UNK     1      -1.991  -0.997   1.858  1.00  0.00     0.004 A 
HETATM    4  C2  UNK     1      -1.942  -0.880   0.468  1.00  0.00     0.092 A 
HETATM    5  C3  UNK     1      -3.185  -1.592   2.473  1.00  0.00    -0.043 A 
HETATM    6  C4  UNK     1       0.240   0.125   0.546  1.00  0.00     0.071 A 
HETATM    7  C5  UNK     1      -0.846  -0.327  -0.196  1.00  0.00     0.075 A 
HETATM    8  C6  UNK     1      -0.887  -0.536   2.588  1.00  0.00     0.017 A 
HETATM    9  C7  UNK     1       0.220   0.020   1.936  1.00  0.00     0.038 A 
HETATM   10  C10 UNK     1      -4.187  -2.002   1.682  1.00  0.00     0.090 A 
HETATM   11  C11 UNK     1      -3.268  -1.731   3.965  1.00  0.00     0.049 C 
HETATM   12  C12 UNK     1      -4.151  -1.885   0.214  1.00  0.00     0.288 A 
ENDROOT
BRANCH   6  13
HETATM   13  O1  UNK     1       1.319   0.666  -0.081  1.00  0.00    -0.346 OA
BRANCH  13  14
HETATM   14  C8  UNK     1       1.272   0.742  -1.505  1.00  0.00     0.217 C 
BRANCH  14  15
HETATM   15  C9  UNK     1       2.556   1.335  -2.007  1.00  0.00     0.004 A 
HETATM   16  C13 UNK     1       2.667   2.712  -2.164  1.00  0.00     0.124 A 
HETATM   17  F1  UNK     1       1.637   3.520  -1.873  1.00  0.00    -0.205 F 
HETATM   18  C15 UNK     1       3.861   3.260  -2.630  1.00  0.00     0.043 A 
HETATM   19  C17 UNK     1       4.938   2.427  -2.937  1.00  0.00     0.003 A 
HETATM   20  C16 UNK     1       4.819   1.047  -2.777  1.00  0.00     0.001 A 
HETATM   21  C14 UNK     1       3.624   0.499  -2.311  1.00  0.00     0.012 A 
ENDBRANCH  14  15
ENDBRANCH  13  14
ENDBRANCH   6  13
TORSDOF 3
