REMARK  8 active torsions:
REMARK  status: ('A' for Active; 'I' for Inactive)
REMARK    1  A    between atoms: C16_25  and  O1_1 
REMARK    2  A    between atoms: C8_17  and  O1_1 
REMARK    3  A    between atoms: C7_16  and  O2_2 
REMARK    4  A    between atoms: C3_12  and  N1_8 
REMARK    5  A    between atoms: C13_22  and  N2_9 
REMARK    6  A    between atoms: C1_10  and  C4_13 
REMARK    7  A    between atoms: C2_11  and  C6_15 
REMARK    8  A    between atoms: C15_24  and  C16_25 
ROOT
HETATM    1  C1  UNK     1      -0.419   0.755  -0.296  1.00  0.00    -0.033 A 
HETATM    2  C5  UNK     1      -0.127  -0.327   0.535  1.00  0.00     0.051 A 
HETATM    3  C7  UNK     1      -1.142  -0.930   1.277  1.00  0.00     0.102 A 
HETATM    4  C8  UNK     1      -2.424  -0.435   1.170  1.00  0.00     0.112 A 
HETATM    5  C9  UNK     1      -1.726   1.234  -0.384  1.00  0.00     0.014 A 
HETATM    6  C11 UNK     1      -2.741   0.631   0.358  1.00  0.00     0.041 A 
ENDROOT
BRANCH   1   7
HETATM    7  C4  UNK     1       0.640   1.384  -1.071  1.00  0.00     0.012 C 
HETATM    8  C6  UNK     1       1.828   0.811  -1.377  1.00  0.00     0.015 C 
BRANCH   8   9
HETATM    9  C2  UNK     1       2.892   1.441  -2.179  1.00  0.00    -0.003 A 
HETATM   10  C10 UNK     1       2.843   1.278  -3.556  1.00  0.00     0.016 A 
HETATM   11  C14 UNK     1       3.832   1.858  -4.351  1.00  0.00     0.037 A 
HETATM   12  C13 UNK     1       4.859   2.594  -3.760  1.00  0.00     0.105 A 
HETATM   13  C12 UNK     1       4.897   2.751  -2.375  1.00  0.00     0.073 A 
HETATM   14  C3  UNK     1       3.908   2.171  -1.580  1.00  0.00     0.115 A 
BRANCH  12  15
HETATM   15  N2  UNK     1       5.865   3.184  -4.570  1.00  0.00    -0.116 N 
HETATM   16  O6  UNK     1       5.811   3.031  -5.814  1.00  0.00    -0.532 OA
HETATM   17  O7  UNK     1       6.780   3.844  -4.020  1.00  0.00    -0.532 OA
ENDBRANCH  12  15
BRANCH  14  18
HETATM   18  N1  UNK     1       3.977   2.350  -0.169  1.00  0.00    -0.115 N 
HETATM   19  O3  UNK     1       4.920   3.021   0.310  1.00  0.00    -0.532 OA
HETATM   20  O4  UNK     1       3.091   1.832   0.550  1.00  0.00    -0.532 OA
ENDBRANCH  14  18
ENDBRANCH   8   9
ENDBRANCH   1   7
BRANCH   3  21
HETATM   21  O2  UNK     1      -0.845  -1.985   2.086  1.00  0.00    -0.353 OA
HETATM   22  C19 UNK     1      -0.476  -1.687   3.431  1.00  0.00     0.210 C 
ENDBRANCH   3  21
BRANCH   4  23
HETATM   23  O1  UNK     1      -3.449  -1.030   1.910  1.00  0.00    -0.272 OA
BRANCH  23  24
HETATM   24  C16 UNK     1      -4.097  -2.072   1.251  1.00  0.00     0.298 C 
HETATM   25  O5  UNK     1      -3.825  -2.457   0.105  1.00  0.00    -0.259 OA
BRANCH  24  26
HETATM   26  C15 UNK     1      -5.148  -2.639   2.080  1.00  0.00     0.039 A 
HETATM   27  C17 UNK     1      -6.286  -3.186   1.487  1.00  0.00     0.017 A 
HETATM   28  C20 UNK     1      -7.294  -3.731   2.282  1.00  0.00     0.001 A 
HETATM   29  C22 UNK     1      -7.165  -3.727   3.671  1.00  0.00     0.000 A 
HETATM   30  C21 UNK     1      -6.028  -3.179   4.264  1.00  0.00     0.001 A 
HETATM   31  C18 UNK     1      -5.019  -2.635   3.469  1.00  0.00     0.017 A 
ENDBRANCH  24  26
ENDBRANCH  23  24
ENDBRANCH   4  23
TORSDOF 8
