REMARK  5 active torsions:
REMARK  status: ('A' for Active; 'I' for Inactive)
REMARK    1  A    between atoms: C9_15  and  O2_2 
REMARK    2  A    between atoms: C20_26  and  O3_3 
REMARK    3  A    between atoms: C5_11  and  N1_5 
REMARK    4  A    between atoms: C6_12  and  N2_6 
REMARK    5  A    between atoms: C5_11  and  C7_13 
ROOT
HETATM    1  N1  UNK     1      -0.267   1.279  -0.007  1.00  0.00     0.095 N 
HETATM    2  N2  UNK     1       2.355   1.704  -1.056  1.00  0.00    -0.375 N 
HETATM    3  C1  UNK     1       0.149   0.623  -1.253  1.00  0.00     0.292 C 
HETATM    4  C2  UNK     1       0.373   2.595   0.102  1.00  0.00     0.292 C 
HETATM    5  C3  UNK     1       1.667   0.428  -1.290  1.00  0.00     0.153 C 
HETATM    6  C4  UNK     1       1.898   2.467   0.109  1.00  0.00     0.153 C 
ENDROOT
BRANCH   1   7
HETATM    7  C5  UNK     1      -1.723   1.410   0.041  1.00  0.00     0.312 C 
BRANCH   7   8
HETATM    8  C7  UNK     1      -2.405   0.074  -0.023  1.00  0.00    -0.011 A 
HETATM    9  C11 UNK     1      -2.751  -0.471  -1.197  1.00  0.00     0.092 A 
HETATM   10  C16 UNK     1      -3.421  -1.777  -1.310  1.00  0.00     0.288 A 
HETATM   11  O1  UNK     1      -3.689  -2.444  -0.125  1.00  0.00    -0.275 OA
HETATM   12  O4  UNK     1      -3.723  -2.245  -2.402  1.00  0.00    -0.260 OA
HETATM   13  C12 UNK     1      -3.336  -1.896   1.125  1.00  0.00     0.093 A 
HETATM   14  C8  UNK     1      -2.702  -0.657   1.216  1.00  0.00     0.006 A 
HETATM   15  C18 UNK     1      -3.655  -2.656   2.253  1.00  0.00     0.075 A 
HETATM   16  C13 UNK     1      -2.385  -0.181   2.496  1.00  0.00     0.017 A 
HETATM   17  C19 UNK     1      -2.698  -0.931   3.635  1.00  0.00     0.038 A 
HETATM   18  C20 UNK     1      -3.332  -2.166   3.514  1.00  0.00     0.070 A 
BRANCH  18  19
HETATM   19  O3  UNK     1      -3.633  -2.891   4.625  1.00  0.00    -0.356 OA
HETATM   20  C22 UNK     1      -4.282  -4.146   4.427  1.00  0.00     0.210 C 
ENDBRANCH  18  19
ENDBRANCH   7   8
ENDBRANCH   1   7
BRANCH   2  21
HETATM   21  C6  UNK     1       3.681   1.824  -1.488  1.00  0.00     0.064 A 
HETATM   22  C10 UNK     1       4.711   2.102  -0.566  1.00  0.00     0.032 A 
HETATM   23  C15 UNK     1       6.036   2.227  -0.983  1.00  0.00     0.002 A 
HETATM   24  C17 UNK     1       6.360   2.075  -2.331  1.00  0.00     0.003 A 
HETATM   25  C14 UNK     1       5.359   1.799  -3.262  1.00  0.00     0.039 A 
HETATM   26  C9  UNK     1       4.034   1.675  -2.845  1.00  0.00     0.094 A 
BRANCH  26  27
HETATM   27  O2  UNK     1       3.070   1.406  -3.771  1.00  0.00    -0.354 OA
HETATM   28  C21 UNK     1       2.439   2.523  -4.392  1.00  0.00     0.210 C 
ENDBRANCH  26  27
ENDBRANCH   2  21
TORSDOF 5
