REMARK  7 active torsions:
REMARK  status: ('A' for Active; 'I' for Inactive)
REMARK    1  A    between atoms: C13_19  and  O2_3 
REMARK    2  A    between atoms: C14_20  and  O2_3 
REMARK    3  A    between atoms: C12_18  and  N1_5 
REMARK    4  A    between atoms: C4_10  and  N1_5 
REMARK    5  A    between atoms: C11_17  and  N2_6 
REMARK    6  A    between atoms: C12_18  and  N2_6 
REMARK    7  A    between atoms: C14_20  and  C15_21 
ROOT
HETATM    1  N2  UNK     1       1.100   0.546   2.651  1.00  0.00    -0.333 N 
HETATM    2  H11 UNK     1       1.513   0.801   3.545  1.00  0.00     0.168 HD
ENDROOT
BRANCH   1   3
HETATM    3  C11 UNK     1       1.825   1.011   1.525  1.00  0.00     0.034 A 
HETATM    4  C16 UNK     1       2.770   2.007   1.697  1.00  0.00     0.032 A 
HETATM    5  C18 UNK     1       3.485   2.466   0.590  1.00  0.00     0.039 A 
HETATM    6  C13 UNK     1       3.242   1.921  -0.671  1.00  0.00     0.069 A 
HETATM    7  C19 UNK     1       2.286   0.917  -0.825  1.00  0.00     0.039 A 
HETATM    8  C17 UNK     1       1.571   0.459   0.282  1.00  0.00     0.032 A 
BRANCH   6   9
HETATM    9  O2  UNK     1       3.940   2.367  -1.751  1.00  0.00    -0.347 OA
BRANCH   9  10
HETATM   10  C14 UNK     1       3.642   1.766  -3.010  1.00  0.00     0.214 C 
BRANCH  10  11
HETATM   11  C15 UNK     1       4.530   2.364  -4.061  1.00  0.00    -0.034 A 
HETATM   12  C20 UNK     1       4.111   3.493  -4.756  1.00  0.00     0.009 A 
HETATM   13  C22 UNK     1       4.936   4.050  -5.733  1.00  0.00     0.001 A 
HETATM   14  C24 UNK     1       6.176   3.473  -6.009  1.00  0.00     0.000 A 
HETATM   15  C23 UNK     1       6.590   2.341  -5.308  1.00  0.00     0.001 A 
HETATM   16  C21 UNK     1       5.765   1.784  -4.331  1.00  0.00     0.009 A 
ENDBRANCH  10  11
ENDBRANCH   9  10
ENDBRANCH   6   9
ENDBRANCH   1   3
BRANCH   1  17
HETATM   17  C12 UNK     1      -0.167  -0.009   2.756  1.00  0.00     0.176 C 
HETATM   18  S1  UNK     1      -0.732  -0.311   4.315  1.00  0.00    -0.041 SA
BRANCH  17  19
HETATM   19  N1  UNK     1      -0.898  -0.156   1.574  1.00  0.00    -0.333 N 
HETATM   20  H8  UNK     1      -0.632   0.511   0.857  1.00  0.00     0.168 HD
BRANCH  19  21
HETATM   21  C4  UNK     1      -2.173  -0.665   1.328  1.00  0.00     0.036 A 
HETATM   22  C5  UNK     1      -2.641  -1.758   2.050  1.00  0.00     0.067 A 
HETATM   23  C2  UNK     1      -3.920  -2.250   1.788  1.00  0.00     0.092 A 
HETATM   24  C1  UNK     1      -4.754  -1.684   0.823  1.00  0.00     0.004 A 
HETATM   25  O1  UNK     1      -4.338  -3.358   2.552  1.00  0.00    -0.275 OA
HETATM   26  C3  UNK     1      -6.086  -2.268   0.613  1.00  0.00    -0.043 A 
HETATM   27  C6  UNK     1      -4.265  -0.584   0.106  1.00  0.00     0.017 A 
HETATM   28  C8  UNK     1      -6.457  -3.321   1.355  1.00  0.00     0.090 A 
HETATM   29  C9  UNK     1      -7.006  -1.682  -0.417  1.00  0.00     0.049 C 
HETATM   30  C10 UNK     1      -5.589  -3.930   2.377  1.00  0.00     0.288 A 
HETATM   31  O3  UNK     1      -5.962  -4.894   3.036  1.00  0.00    -0.260 OA
HETATM   32  C7  UNK     1      -2.984  -0.079   0.357  1.00  0.00     0.030 A 
ENDBRANCH  19  21
ENDBRANCH  17  19
ENDBRANCH   1  17
TORSDOF 7
