REMARK  3 active torsions:
REMARK  status: ('A' for Active; 'I' for Inactive)
REMARK    1  A    between atoms: C1_10  and  N2_8 
REMARK       I    between atoms: C8_17  and  N2_8 
REMARK    2  A    between atoms: C2_11  and  C5_14 
REMARK    3  A    between atoms: C6_15  and  C8_17 
ROOT
HETATM    1  O2  UNK     1      -0.811  -0.803  -1.535  1.00  0.00    -0.267 OA
HETATM    2  N2  UNK     1      -0.785  -0.193   0.745  1.00  0.00    -0.306 N 
HETATM    3  C8  UNK     1      -0.349  -0.191  -0.573  1.00  0.00     0.263 C 
HETATM    4  H1  UNK     1      -0.168   0.205   1.448  1.00  0.00     0.170 HD
ENDROOT
BRANCH   2   5
HETATM    5  C1  UNK     1      -1.869  -0.913   1.253  1.00  0.00     0.146 A 
HETATM    6  N1  UNK     1      -1.917  -1.359   2.533  1.00  0.00    -0.290 N 
HETATM    7  C3  UNK     1      -3.135  -2.022   2.661  1.00  0.00     0.136 A 
HETATM    8  C4  UNK     1      -0.996  -1.231   3.570  1.00  0.00     0.100 A 
HETATM    9  N3  UNK     1      -3.813  -1.996   1.532  1.00  0.00    -0.226 NA
HETATM   10  C7  UNK     1      -3.430  -2.593   3.934  1.00  0.00     0.051 A 
HETATM   11  C2  UNK     1      -3.022  -1.302   0.652  1.00  0.00     0.120 A 
HETATM   12  C13 UNK     1      -2.544  -2.473   4.941  1.00  0.00     0.005 A 
HETATM   13  C12 UNK     1      -1.282  -1.771   4.765  1.00  0.00     0.018 A 
BRANCH  11  14
HETATM   14  C5  UNK     1      -3.406  -1.040  -0.744  1.00  0.00     0.037 A 
HETATM   15  C14 UNK     1      -3.116  -1.873  -1.805  1.00  0.00     0.022 A 
HETATM   16  C18 UNK     1      -3.612  -1.365  -3.040  1.00  0.00     0.008 A 
HETATM   17  C21 UNK     1      -4.264  -0.162  -2.880  1.00  0.00     0.050 A 
HETATM   18  S1  UNK     1      -4.276   0.350  -1.246  1.00  0.00    -0.100 SA
ENDBRANCH  11  14
ENDBRANCH   2   5
BRANCH   3  19
HETATM   19  C6  UNK     1       0.819   0.677  -0.762  1.00  0.00     0.108 A 
HETATM   20  C10 UNK     1       1.673   0.319  -1.728  1.00  0.00     0.037 A 
HETATM   21  C9  UNK     1       2.860   1.117  -1.991  1.00  0.00     0.002 A 
HETATM   22  C11 UNK     1       3.091   2.253  -1.222  1.00  0.00     0.107 A 
HETATM   23  C16 UNK     1       3.778   0.780  -2.990  1.00  0.00     0.033 A 
HETATM   24  O1  UNK     1       2.189   2.625  -0.207  1.00  0.00    -0.273 OA
HETATM   25  C17 UNK     1       4.210   3.060  -1.423  1.00  0.00     0.047 A 
HETATM   26  C15 UNK     1       1.045   1.882   0.068  1.00  0.00     0.304 A 
HETATM   27  O3  UNK     1       0.265   2.215   0.954  1.00  0.00    -0.259 OA
HETATM   28 Br1  UNK     1       4.530   4.608  -0.381  1.00  0.00    -0.048 Br
HETATM   29  C20 UNK     1       5.119   2.717  -2.420  1.00  0.00     0.041 A 
HETATM   30  C19 UNK     1       4.904   1.580  -3.202  1.00  0.00     0.013 A 
HETATM   31 Br2  UNK     1       6.142   1.119  -4.555  1.00  0.00    -0.051 Br
ENDBRANCH   3  19
TORSDOF 3
