REMARK  2 active torsions:
REMARK  status: ('A' for Active; 'I' for Inactive)
REMARK    1  A    between atoms: C1_5  and  C4_8 
REMARK    2  A    between atoms: C2_6  and  C3_7 
ROOT
HETATM    1  N1  UNK     1      -1.183   2.660   0.740  1.00  0.00    -0.191 NA
HETATM    2  C3  UNK     1       0.288   0.757  -0.200  1.00  0.00     0.055 C 
HETATM    3  C4  UNK     1      -0.029  -0.539  -0.082  1.00  0.00     0.036 C 
HETATM    4  C15 UNK     1      -0.518   1.808   0.316  1.00  0.00     0.100 C 
ENDROOT
BRANCH   2   5
HETATM    5  C2  UNK     1       1.502   1.096  -0.925  1.00  0.00    -0.015 A 
HETATM    6  C7  UNK     1       2.710   1.231  -0.240  1.00  0.00     0.014 A 
HETATM    7  C11 UNK     1       3.874   1.556  -0.936  1.00  0.00     0.020 A 
HETATM    8  C14 UNK     1       3.831   1.746  -2.317  1.00  0.00     0.011 A 
HETATM    9 Br1  UNK     1       5.409   2.186  -3.260  1.00  0.00    -0.051 Br
HETATM   10  C12 UNK     1       2.624   1.611  -3.003  1.00  0.00     0.020 A 
HETATM   11  C8  UNK     1       1.459   1.286  -2.307  1.00  0.00     0.014 A 
ENDBRANCH   2   5
BRANCH   3  12
HETATM   12  C1  UNK     1      -1.218  -1.061   0.610  1.00  0.00    -0.013 A 
HETATM   13  C5  UNK     1      -2.428  -1.234  -0.047  1.00  0.00     0.045 A 
HETATM   14 Cl1  UNK     1      -2.635  -0.853  -1.721  1.00  0.00    -0.083 Cl
HETATM   15  C9  UNK     1      -3.526  -1.732   0.654  1.00  0.00     0.048 A 
HETATM   16  C13 UNK     1      -3.404  -2.053   2.006  1.00  0.00     0.035 A 
HETATM   17  C10 UNK     1      -2.183  -1.875   2.657  1.00  0.00     0.024 A 
HETATM   18 Cl2  UNK     1      -4.758  -2.668   2.872  1.00  0.00    -0.084 Cl
HETATM   19  C6  UNK     1      -1.085  -1.377   1.956  1.00  0.00     0.015 A 
ENDBRANCH   3  12
TORSDOF 2
