REMARK  7 active torsions:
REMARK  status: ('A' for Active; 'I' for Inactive)
REMARK    1  A    between atoms: C24_32  and  O4_4 
REMARK    2  A    between atoms: C26_34  and  O5_5 
REMARK    3  A    between atoms: C5_13  and  N1_6 
REMARK    4  A    between atoms: C6_14  and  N2_7 
REMARK    5  A    between atoms: C5_13  and  C7_15 
REMARK    6  A    between atoms: C6_14  and  C8_16 
REMARK    7  A    between atoms: C14_22  and  C20_28 
ROOT
HETATM    1  N1  UNK     1      -2.249  -0.641   1.535  1.00  0.00     0.096 N 
HETATM    2  N2  UNK     1       0.537  -0.444   0.785  1.00  0.00     0.097 N 
HETATM    3  C1  UNK     1      -1.781   0.396   0.607  1.00  0.00     0.303 C 
HETATM    4  C2  UNK     1      -1.180  -1.012   2.470  1.00  0.00     0.303 C 
HETATM    5  C3  UNK     1      -0.532  -0.071  -0.149  1.00  0.00     0.303 C 
HETATM    6  C4  UNK     1       0.068  -1.481   1.713  1.00  0.00     0.303 C 
ENDROOT
BRANCH   2   7
HETATM    7  C6  UNK     1       1.725  -0.893   0.062  1.00  0.00     0.334 C 
BRANCH   7   8
HETATM    8  C8  UNK     1       2.488   0.298  -0.420  1.00  0.00     0.095 A 
HETATM    9  C10 UNK     1       2.808   1.450   0.254  1.00  0.00     0.078 A 
HETATM   10  C16 UNK     1       2.564   1.961   1.607  1.00  0.00     0.079 C 
HETATM   11  O1  UNK     1       3.512   2.250  -0.594  1.00  0.00    -0.294 OA
HETATM   12  C14 UNK     1       3.574   1.521  -1.741  1.00  0.00     0.180 A 
HETATM   13  N3  UNK     1       2.982   0.349  -1.698  1.00  0.00    -0.224 NA
BRANCH  12  14
HETATM   14  C20 UNK     1       4.279   2.147  -2.826  1.00  0.00     0.020 A 
HETATM   15  C22 UNK     1       5.179   3.181  -2.569  1.00  0.00     0.055 A 
HETATM   16  C24 UNK     1       5.863   3.789  -3.622  1.00  0.00     0.102 A 
HETATM   17  C26 UNK     1       5.648   3.361  -4.932  1.00  0.00     0.101 A 
HETATM   18  C25 UNK     1       4.748   2.327  -5.189  1.00  0.00     0.040 A 
HETATM   19  C23 UNK     1       4.064   1.719  -4.136  1.00  0.00     0.019 A 
BRANCH  16  20
HETATM   20  O4  UNK     1       6.739   4.798  -3.358  1.00  0.00    -0.353 OA
HETATM   21  C27 UNK     1       6.902   5.175  -1.992  1.00  0.00     0.210 C 
ENDBRANCH  16  20
BRANCH  17  22
HETATM   22  O5  UNK     1       6.310   3.946  -5.969  1.00  0.00    -0.353 OA
HETATM   23  C28 UNK     1       6.033   3.450  -7.277  1.00  0.00     0.210 C 
ENDBRANCH  17  22
ENDBRANCH  12  14
ENDBRANCH   7   8
ENDBRANCH   2   7
BRANCH   1  24
HETATM   24  C5  UNK     1      -3.438  -0.193   2.257  1.00  0.00     0.312 C 
BRANCH  24  25
HETATM   25  C7  UNK     1      -4.211  -1.331   2.828  1.00  0.00    -0.011 A 
HETATM   26  C11 UNK     1      -3.957  -1.792   4.061  1.00  0.00     0.092 A 
HETATM   27  C15 UNK     1      -4.694  -2.913   4.667  1.00  0.00     0.288 A 
HETATM   28  O2  UNK     1      -5.689  -3.494   3.895  1.00  0.00    -0.275 OA
HETATM   29  O3  UNK     1      -4.435  -3.308   5.798  1.00  0.00    -0.260 OA
HETATM   30  C12 UNK     1      -5.979  -3.031   2.596  1.00  0.00     0.090 A 
HETATM   31  C9  UNK     1      -5.271  -1.967   2.035  1.00  0.00     0.006 A 
HETATM   32  C17 UNK     1      -7.001  -3.691   1.911  1.00  0.00     0.045 A 
HETATM   33  C13 UNK     1      -5.619  -1.568   0.737  1.00  0.00     0.015 A 
HETATM   34  C18 UNK     1      -6.641  -2.220   0.038  1.00  0.00     0.007 A 
HETATM   35  C19 UNK     1      -7.331  -3.280   0.625  1.00  0.00    -0.059 A 
HETATM   36  C21 UNK     1      -8.419  -3.969  -0.126  1.00  0.00     0.048 C 
ENDBRANCH  24  25
ENDBRANCH   1  24
TORSDOF 7
