REMARK  4 active torsions:
REMARK  status: ('A' for Active; 'I' for Inactive)
REMARK    1  A    between atoms: C3_8  and  N1_4 
REMARK       I    between atoms: C11_16  and  N2_5 
REMARK    2  A    between atoms: C2_7  and  N2_5 
REMARK    3  A    between atoms: C1_6  and  C2_7 
REMARK    4  A    between atoms: C11_16  and  C8_13 
ROOT
HETATM    1  O2  UNK     1      -2.287   0.783  -1.164  1.00  0.00    -0.267 OA
HETATM    2  N2  UNK     1      -0.790  -0.990  -1.506  1.00  0.00    -0.352 N 
HETATM    3  C11 UNK     1      -1.772  -0.284  -0.835  1.00  0.00     0.258 C 
HETATM    4  H7  UNK     1      -0.455  -1.871  -1.129  1.00  0.00     0.163 HD
ENDROOT
BRANCH   2   5
HETATM    5  C2  UNK     1      -0.200  -0.553  -2.751  1.00  0.00     0.161 C 
BRANCH   5   6
HETATM    6  C1  UNK     1       1.011   0.310  -2.535  1.00  0.00    -0.040 A 
HETATM    7  C4  UNK     1       2.266  -0.280  -2.449  1.00  0.00     0.011 A 
HETATM    8  C6  UNK     1       3.391   0.521  -2.248  1.00  0.00     0.030 A 
HETATM    9  C3  UNK     1       3.251   1.905  -2.136  1.00  0.00     0.038 A 
HETATM   10  C7  UNK     1       1.986   2.487  -2.224  1.00  0.00     0.030 A 
HETATM   11  C5  UNK     1       0.862   1.686  -2.424  1.00  0.00     0.011 A 
BRANCH   9  12
HETATM   12  N1  UNK     1       4.366   2.698  -1.937  1.00  0.00    -0.333 N 
HETATM   13  C13 UNK     1       4.362   4.070  -1.813  1.00  0.00     0.096 A 
HETATM   14  C18 UNK     1       5.661   4.489  -1.629  1.00  0.00     0.019 A 
HETATM   15  C19 UNK     1       6.484   3.336  -1.641  1.00  0.00     0.019 A 
HETATM   16  C14 UNK     1       5.663   2.247  -1.833  1.00  0.00     0.096 A 
ENDBRANCH   9  12
ENDBRANCH   5   6
ENDBRANCH   2   5
BRANCH   3  17
HETATM   17  C8  UNK     1      -2.218  -0.922   0.409  1.00  0.00     0.108 A 
HETATM   18  C10 UNK     1      -3.488  -0.697   0.767  1.00  0.00     0.037 A 
HETATM   19  C9  UNK     1      -4.022  -1.287   1.985  1.00  0.00    -0.001 A 
HETATM   20  C12 UNK     1      -3.192  -2.084   2.767  1.00  0.00     0.089 A 
HETATM   21  C16 UNK     1      -5.340  -1.079   2.397  1.00  0.00     0.014 A 
HETATM   22  O1  UNK     1      -1.857  -2.318   2.385  1.00  0.00    -0.274 OA
HETATM   23  C17 UNK     1      -3.642  -2.678   3.945  1.00  0.00     0.038 A 
HETATM   24  C15 UNK     1      -1.317  -1.768   1.225  1.00  0.00     0.304 A 
HETATM   25  O3  UNK     1      -0.153  -1.976   0.901  1.00  0.00    -0.259 OA
HETATM   26  C21 UNK     1      -4.958  -2.465   4.348  1.00  0.00     0.003 A 
HETATM   27  C20 UNK     1      -5.806  -1.668   3.576  1.00  0.00     0.001 A 
ENDBRANCH   3  17
TORSDOF 4
