REMARK  7 active torsions:
REMARK  status: ('A' for Active; 'I' for Inactive)
REMARK    1  A    between atoms: C10_21  and  O2_2 
REMARK    2  A    between atoms: C4_15  and  O2_2 
REMARK    3  A    between atoms: C12_23  and  N1_8 
REMARK    4  A    between atoms: N1_8  and  N2_9 
REMARK    5  A    between atoms: C14_25  and  N3_10 
REMARK    6  A    between atoms: C17_28  and  N4_11 
REMARK    7  A    between atoms: C10_21  and  C13_24 
ROOT
HETATM    1  N2  UNK     1      -1.409   0.001   0.648  1.00  0.00    -0.182 NA
HETATM    2  C13 UNK     1      -0.124   0.065   0.468  1.00  0.00     0.052 C 
HETATM    3  C19 UNK     1       0.756  -0.645   1.468  1.00  0.00     0.070 C 
ENDROOT
BRANCH   2   4
HETATM    4  C10 UNK     1       0.576   0.777  -0.671  1.00  0.00     0.231 C 
BRANCH   4   5
HETATM    5  O2  UNK     1       1.436   1.782  -0.134  1.00  0.00    -0.345 OA
BRANCH   5   6
HETATM    6  C4  UNK     1       2.545   2.097  -0.855  1.00  0.00     0.071 A 
HETATM    7  C6  UNK     1       2.534   1.983  -2.241  1.00  0.00     0.075 A 
HETATM    8  C2  UNK     1       3.683   2.312  -2.962  1.00  0.00     0.092 A 
HETATM    9  C1  UNK     1       4.852   2.755  -2.340  1.00  0.00     0.004 A 
HETATM   10  O1  UNK     1       3.610   2.175  -4.362  1.00  0.00    -0.275 OA
HETATM   11  C3  UNK     1       6.015   3.079  -3.177  1.00  0.00    -0.043 A 
HETATM   12  C5  UNK     1       4.843   2.864  -0.943  1.00  0.00     0.017 A 
HETATM   13  C8  UNK     1       5.917   2.940  -4.506  1.00  0.00     0.090 A 
HETATM   14  C9  UNK     1       7.286   3.558  -2.538  1.00  0.00     0.049 C 
HETATM   15  C11 UNK     1       4.691   2.474  -5.177  1.00  0.00     0.288 A 
HETATM   16  O3  UNK     1       4.639   2.359  -6.397  1.00  0.00    -0.260 OA
HETATM   17  C7  UNK     1       3.698   2.537  -0.207  1.00  0.00     0.038 A 
ENDBRANCH   5   6
ENDBRANCH   4   5
ENDBRANCH   2   4
BRANCH   1  18
HETATM   18  N1  UNK     1      -1.852  -0.694   1.711  1.00  0.00    -0.276 N 
HETATM   19  H12 UNK     1      -1.319  -0.705   2.568  1.00  0.00     0.189 HD
BRANCH  18  20
HETATM   20  C12 UNK     1      -3.097  -1.342   1.672  1.00  0.00     0.083 A 
HETATM   21  C14 UNK     1      -3.609  -2.005   2.794  1.00  0.00     0.133 A 
HETATM   22  C16 UNK     1      -4.849  -2.642   2.730  1.00  0.00     0.074 A 
HETATM   23  C17 UNK     1      -5.584  -2.619   1.545  1.00  0.00     0.105 A 
HETATM   24  C18 UNK     1      -5.080  -1.959   0.424  1.00  0.00     0.038 A 
HETATM   25  C15 UNK     1      -3.840  -1.323   0.487  1.00  0.00     0.036 A 
BRANCH  21  26
HETATM   26  N3  UNK     1      -2.880  -2.042   4.015  1.00  0.00    -0.113 N 
HETATM   27  O4  UNK     1      -3.374  -2.645   4.996  1.00  0.00    -0.532 OA
HETATM   28  O5  UNK     1      -1.766  -1.471   4.072  1.00  0.00    -0.532 OA
ENDBRANCH  21  26
BRANCH  23  29
HETATM   29  N4  UNK     1      -6.846  -3.266   1.479  1.00  0.00    -0.116 N 
HETATM   30  O6  UNK     1      -7.491  -3.233   0.403  1.00  0.00    -0.532 OA
HETATM   31  O7  UNK     1      -7.282  -3.854   2.498  1.00  0.00    -0.532 OA
ENDBRANCH  23  29
ENDBRANCH  18  20
ENDBRANCH   1  18
TORSDOF 7
