REMARK  3 active torsions:
REMARK  status: ('A' for Active; 'I' for Inactive)
REMARK    1  A    between atoms: C5_9  and  O2_2 
REMARK    2  A    between atoms: C14_18  and  O3_3 
REMARK    3  A    between atoms: C1_5  and  C4_8 
ROOT
HETATM    1  O1  UNK     1      -1.039  -0.566  -0.471  1.00  0.00    -0.306 OA
HETATM    2  O4  UNK     1      -1.764   0.693   3.336  1.00  0.00    -0.284 OA
HETATM    3  C1  UNK     1      -0.241   0.388   0.140  1.00  0.00     0.123 A 
HETATM    4  C2  UNK     1      -2.381  -0.714   1.546  1.00  0.00     0.051 A 
HETATM    5  C3  UNK     1      -2.082  -1.099   0.241  1.00  0.00     0.090 A 
HETATM    6  C5  UNK     1      -0.427   0.853   1.388  1.00  0.00     0.152 A 
HETATM    7  C6  UNK     1      -1.546   0.310   2.194  1.00  0.00     0.220 A 
HETATM    8  C7  UNK     1      -3.457  -1.292   2.224  1.00  0.00     0.018 A 
HETATM    9  C10 UNK     1      -2.860  -2.065  -0.396  1.00  0.00     0.038 A 
HETATM   10  C13 UNK     1      -4.234  -2.259   1.584  1.00  0.00     0.001 A 
HETATM   11  C15 UNK     1      -3.936  -2.645   0.277  1.00  0.00     0.003 A 
ENDROOT
BRANCH   3  12
HETATM   12  C4  UNK     1       0.841   0.876  -0.733  1.00  0.00     0.001 A 
HETATM   13  C8  UNK     1       2.087   0.249  -0.718  1.00  0.00     0.017 A 
HETATM   14  C11 UNK     1       3.112   0.711  -1.543  1.00  0.00     0.037 A 
HETATM   15  C14 UNK     1       2.891   1.802  -2.385  1.00  0.00     0.068 A 
HETATM   16  C12 UNK     1       1.646   2.430  -2.400  1.00  0.00     0.037 A 
HETATM   17  C9  UNK     1       0.621   1.967  -1.575  1.00  0.00     0.017 A 
BRANCH  15  18
HETATM   18  O3  UNK     1       3.891   2.253  -3.190  1.00  0.00    -0.356 OA
HETATM   19  C16 UNK     1       3.597   3.372  -4.025  1.00  0.00     0.210 C 
ENDBRANCH  15  18
ENDBRANCH   3  12
BRANCH   6  20
HETATM   20  O2  UNK     1       0.367   1.827   1.954  1.00  0.00    -0.355 OA
HETATM   21  H9  UNK     1       1.055   2.098   1.326  1.00  0.00     0.218 HD
ENDBRANCH   6  20
TORSDOF 3
