REMARK  7 active torsions:
REMARK  status: ('A' for Active; 'I' for Inactive)
REMARK    1  A    between atoms: C2_7  and  O1_1 
REMARK    2  A    between atoms: C3_8  and  O2_2 
REMARK    3  A    between atoms: C4_9  and  O3_3 
REMARK    4  A    between atoms: C15_20  and  O5_5 
REMARK    5  A    between atoms: C1_6  and  C7_12 
REMARK    6  A    between atoms: C7_12  and  C8_13 
REMARK    7  A    between atoms: C10_15  and  C9_14 
ROOT
HETATM    1  C1  UNK     1      -1.262  -0.451   0.225  1.00  0.00     0.081 A 
HETATM    2  C2  UNK     1      -1.251  -0.114   1.578  1.00  0.00     0.087 A 
HETATM    3  C3  UNK     1      -2.393  -1.044  -0.336  1.00  0.00     0.087 A 
HETATM    4  C4  UNK     1      -3.501  -0.962   1.809  1.00  0.00     0.073 A 
HETATM    5  C5  UNK     1      -2.370  -0.369   2.370  1.00  0.00     0.074 A 
HETATM    6  C6  UNK     1      -3.513  -1.300   0.456  1.00  0.00     0.074 A 
ENDROOT
BRANCH   1   7
HETATM    7  C7  UNK     1      -0.072  -0.181  -0.618  1.00  0.00     0.187 C 
HETATM    8  O4  UNK     1      -0.177   0.538  -1.605  1.00  0.00    -0.287 OA
BRANCH   7   9
HETATM    9  C8  UNK     1       1.209  -0.836  -0.233  1.00  0.00     0.056 C 
HETATM   10  C10 UNK     1       2.391  -0.252  -0.535  1.00  0.00     0.015 C 
BRANCH  10  11
HETATM   11  C9  UNK     1       2.547   1.015  -1.231  1.00  0.00    -0.036 A 
HETATM   12  C11 UNK     1       2.006   2.181  -0.689  1.00  0.00     0.014 A 
HETATM   13  C13 UNK     1       2.158   3.396  -1.356  1.00  0.00     0.037 A 
HETATM   14  C15 UNK     1       2.849   3.446  -2.566  1.00  0.00     0.065 A 
HETATM   15  C14 UNK     1       3.390   2.280  -3.109  1.00  0.00     0.037 A 
HETATM   16  C12 UNK     1       3.239   1.065  -2.442  1.00  0.00     0.014 A 
BRANCH  14  17
HETATM   17  O5  UNK     1       2.998   4.632  -3.217  1.00  0.00    -0.361 OA
HETATM   18  H18 UNK     1       2.563   5.332  -2.701  1.00  0.00     0.217 HD
ENDBRANCH  14  17
ENDBRANCH  10  11
ENDBRANCH   7   9
ENDBRANCH   1   7
BRANCH   2  19
HETATM   19  O1  UNK     1      -0.155   0.465   2.146  1.00  0.00    -0.355 OA
HETATM   20  C16 UNK     1      -0.235   0.775   3.536  1.00  0.00     0.210 C 
ENDBRANCH   2  19
BRANCH   3  21
HETATM   21  O2  UNK     1      -2.427  -1.382  -1.657  1.00  0.00    -0.355 OA
HETATM   22  C17 UNK     1      -1.980  -2.691  -2.001  1.00  0.00     0.210 C 
ENDBRANCH   3  21
BRANCH   4  23
HETATM   23  O3  UNK     1      -4.593  -1.212   2.582  1.00  0.00    -0.356 OA
HETATM   24  C18 UNK     1      -4.512  -0.842   3.958  1.00  0.00     0.210 C 
ENDBRANCH   4  23
TORSDOF 7
