REMARK  8 active torsions:
REMARK  status: ('A' for Active; 'I' for Inactive)
REMARK    1  A    between atoms: C1_8  and  O1_1 
REMARK    2  A    between atoms: C24_31  and  O6_6 
REMARK    3  A    between atoms: C6_13  and  N1_7 
REMARK    4  A    between atoms: C1_8  and  C5_12 
REMARK    5  A    between atoms: C10_17  and  C5_12 
REMARK    6  A    between atoms: C6_13  and  C9_16 
REMARK    7  A    between atoms: C13_20  and  C9_16 
REMARK    8  A    between atoms: C10_17  and  C14_21 
ROOT
HETATM    1  O2  UNK     1       2.468  -0.967  -0.605  1.00  0.00    -0.269 OA
HETATM    2  N1  UNK     1       3.165   1.227  -1.130  1.00  0.00    -0.314 N 
HETATM    3  C1  UNK     1       1.540   0.233  -2.538  1.00  0.00     0.175 A 
HETATM    4  C2  UNK     1       1.906   1.618  -2.993  1.00  0.00     0.013 A 
HETATM    5  C3  UNK     1       2.862   2.158  -2.133  1.00  0.00     0.047 A 
HETATM    6  C4  UNK     1       2.427   0.045  -1.290  1.00  0.00     0.264 A 
HETATM    7  C7  UNK     1       1.438   2.341  -4.077  1.00  0.00     0.013 A 
HETATM    8  C8  UNK     1       3.379   3.429  -2.322  1.00  0.00     0.030 A 
HETATM    9  C11 UNK     1       1.948   3.626  -4.283  1.00  0.00     0.001 A 
HETATM   10  C12 UNK     1       2.910   4.165  -3.412  1.00  0.00     0.002 A 
ENDROOT
BRANCH   3  11
HETATM   11  O1  UNK     1       1.932  -0.714  -3.512  1.00  0.00    -0.375 OA
HETATM   12  H9  UNK     1       1.830  -1.606  -3.141  1.00  0.00     0.211 HD
ENDBRANCH   3  11
BRANCH   3  13
HETATM   13  C5  UNK     1       0.065   0.079  -2.193  1.00  0.00     0.137 C 
BRANCH  13  14
HETATM   14  C10 UNK     1      -0.271  -1.321  -1.726  1.00  0.00     0.169 C 
HETATM   15  O3  UNK     1       0.311  -2.330  -2.112  1.00  0.00    -0.292 OA
BRANCH  14  16
HETATM   16  C14 UNK     1      -1.373  -1.437  -0.750  1.00  0.00     0.086 A 
HETATM   17  C15 UNK     1      -2.332  -0.507  -0.827  1.00  0.00     0.035 A 
HETATM   18  C19 UNK     1      -3.459  -0.537   0.092  1.00  0.00     0.002 A 
HETATM   19  C20 UNK     1      -3.520  -1.545   1.049  1.00  0.00     0.123 A 
HETATM   20  C23 UNK     1      -4.483   0.412   0.047  1.00  0.00     0.014 A 
HETATM   21  O4  UNK     1      -2.507  -2.521   1.126  1.00  0.00    -0.271 OA
HETATM   22  C24 UNK     1      -4.571  -1.630   1.959  1.00  0.00     0.102 A 
HETATM   23  C18 UNK     1      -1.417  -2.518   0.260  1.00  0.00     0.302 A 
HETATM   24  O5  UNK     1      -0.541  -3.373   0.334  1.00  0.00    -0.259 OA
HETATM   25  C27 UNK     1      -5.588  -0.679   1.908  1.00  0.00     0.040 A 
HETATM   26  C26 UNK     1      -5.544   0.340   0.954  1.00  0.00     0.004 A 
BRANCH  22  27
HETATM   27  O6  UNK     1      -4.618  -2.620   2.890  1.00  0.00    -0.353 OA
HETATM   28  C28 UNK     1      -3.996  -2.360   4.148  1.00  0.00     0.210 C 
ENDBRANCH  22  27
ENDBRANCH  14  16
ENDBRANCH  13  14
ENDBRANCH   3  13
BRANCH   2  29
HETATM   29  C6  UNK     1       4.125   1.476  -0.082  1.00  0.00     0.137 C 
BRANCH  29  30
HETATM   30  C9  UNK     1       3.548   2.316   1.055  1.00  0.00     0.058 C 
BRANCH  30  31
HETATM   31  C13 UNK     1       2.379   1.653   1.742  1.00  0.00    -0.057 A 
HETATM   32  C16 UNK     1       1.095   1.885   1.273  1.00  0.00     0.007 A 
HETATM   33  C21 UNK     1       0.014   1.273   1.908  1.00  0.00     0.001 A 
HETATM   34  C25 UNK     1       0.231   0.435   3.002  1.00  0.00     0.000 A 
HETATM   35  C22 UNK     1       1.529   0.211   3.462  1.00  0.00     0.001 A 
HETATM   36  C17 UNK     1       2.610   0.823   2.828  1.00  0.00     0.007 A 
ENDBRANCH  30  31
ENDBRANCH  29  30
ENDBRANCH   2  29
TORSDOF 8
