REMARK  3 active torsions:
REMARK  status: ('A' for Active; 'I' for Inactive)
REMARK    1  A    between atoms: C11_18  and  N1_6 
REMARK    2  A    between atoms: C5_12  and  N1_6 
REMARK    3  A    between atoms: C16_23  and  N2_7 
ROOT
HETATM    1  O1  UNK     1       0.248   0.267   3.276  1.00  0.00    -0.320 OA
HETATM    2  O2  UNK     1      -1.953  -0.945  -0.676  1.00  0.00    -0.274 OA
HETATM    3  O3  UNK     1      -2.991  -1.520  -2.630  1.00  0.00    -0.260 OA
HETATM    4  C1  UNK     1      -0.862  -0.338   1.405  1.00  0.00     0.061 A 
HETATM    5  C2  UNK     1      -1.972  -0.883   0.735  1.00  0.00     0.105 A 
HETATM    6  C3  UNK     1      -3.081  -1.358   1.454  1.00  0.00     0.005 A 
HETATM    7  C4  UNK     1      -0.899  -0.285   2.793  1.00  0.00     0.090 A 
HETATM    8  C5  UNK     1       0.389   0.220   1.031  1.00  0.00     0.071 A 
HETATM    9  C6  UNK     1      -4.216  -1.918   0.703  1.00  0.00    -0.043 A 
HETATM   10  C7  UNK     1      -3.058  -1.277   2.857  1.00  0.00     0.017 A 
HETATM   11  C8  UNK     1      -1.968  -0.740   3.558  1.00  0.00     0.039 A 
HETATM   12  C9  UNK     1       1.022   0.570   2.201  1.00  0.00     0.173 A 
HETATM   13  C10 UNK     1      -4.160  -1.960  -0.635  1.00  0.00     0.090 A 
HETATM   14  C12 UNK     1      -5.419  -2.436   1.438  1.00  0.00     0.049 C 
HETATM   15  C13 UNK     1      -3.008  -1.467  -1.406  1.00  0.00     0.288 A 
ENDROOT
BRANCH   8  16
HETATM   16  N1  UNK     1       0.878   0.383  -0.215  1.00  0.00    -0.354 N 
HETATM   17  H4  UNK     1       0.241   0.170  -0.982  1.00  0.00     0.166 HD
BRANCH  16  18
HETATM   18  C11 UNK     1       2.110   0.923  -0.760  1.00  0.00     0.035 A 
HETATM   19  C14 UNK     1       2.076   1.511  -2.002  1.00  0.00     0.065 A 
HETATM   20  C16 UNK     1       3.261   2.030  -2.526  1.00  0.00     0.105 A 
HETATM   21  C18 UNK     1       4.444   1.946  -1.792  1.00  0.00     0.036 A 
HETATM   22  C17 UNK     1       4.443   1.342  -0.534  1.00  0.00     0.005 A 
HETATM   23  C15 UNK     1       3.259   0.824  -0.010  1.00  0.00     0.029 A 
BRANCH  20  24
HETATM   24  N2  UNK     1       3.262   2.644  -3.806  1.00  0.00    -0.116 N 
HETATM   25  O4  UNK     1       4.338   3.106  -4.258  1.00  0.00    -0.532 OA
HETATM   26  O5  UNK     1       2.188   2.709  -4.451  1.00  0.00    -0.532 OA
ENDBRANCH  20  24
ENDBRANCH  16  18
ENDBRANCH   8  16
TORSDOF 3
