REMARK  2 active torsions:
REMARK  status: ('A' for Active; 'I' for Inactive)
REMARK    1  A    between atoms: C2_6  and  O1_2 
REMARK    2  A    between atoms: C7_11  and  O1_2 
ROOT
HETATM    1 Br1  UNK     1       3.957   1.897  -0.742  1.00  0.00    -0.051 Br
HETATM    2  O2  UNK     1      -1.622  -0.191  -1.876  1.00  0.00    -0.275 OA
HETATM    3  O3  UNK     1      -3.506  -1.319  -1.234  1.00  0.00    -0.260 OA
HETATM    4  C1  UNK     1       0.213   0.101  -0.283  1.00  0.00     0.033 A 
HETATM    5  C2  UNK     1      -0.604  -0.601   0.712  1.00  0.00     0.087 A 
HETATM    6  C3  UNK     1      -0.333   0.289  -1.556  1.00  0.00     0.092 A 
HETATM    7  C4  UNK     1       1.507   0.589  -0.059  1.00  0.00     0.036 A 
HETATM    8  C5  UNK     1       0.355   0.945  -2.578  1.00  0.00     0.040 A 
HETATM    9  C6  UNK     1      -1.816  -1.062   0.386  1.00  0.00     0.120 A 
HETATM   10  C8  UNK     1       2.211   1.248  -1.075  1.00  0.00     0.012 A 
HETATM   11  C9  UNK     1       1.635   1.428  -2.331  1.00  0.00     0.022 A 
HETATM   12  C10 UNK     1      -2.395  -0.883  -0.955  1.00  0.00     0.290 A 
ENDROOT
BRANCH   5  13
HETATM   13  O1  UNK     1      -0.130  -0.784   1.995  1.00  0.00    -0.350 OA
BRANCH  13  14
HETATM   14  C7  UNK     1      -0.501   0.299   2.825  1.00  0.00     0.171 C 
HETATM   15  C11 UNK     1       0.026   0.052   4.223  1.00  0.00     0.034 C 
ENDBRANCH  13  14
ENDBRANCH   5  13
TORSDOF 2
