REMARK  5 active torsions:
REMARK  status: ('A' for Active; 'I' for Inactive)
REMARK    1  A    between atoms: C7_13  and  O2_2 
REMARK    2  A    between atoms: C9_15  and  O4_4 
REMARK    3  A    between atoms: C13_19  and  O5_5 
REMARK    4  A    between atoms: C15_21  and  O6_6 
REMARK    5  A    between atoms: C3_9  and  C4_10 
ROOT
HETATM    1  O1  UNK     1      -0.592  -0.119  -0.225  1.00  0.00    -0.306 OA
HETATM    2  O3  UNK     1      -1.185   1.550   3.444  1.00  0.00    -0.287 OA
HETATM    3  C1  UNK     1      -1.857  -0.058   1.848  1.00  0.00     0.051 A 
HETATM    4  C2  UNK     1      -1.598  -0.585   0.584  1.00  0.00     0.126 A 
HETATM    5  C3  UNK     1       0.195   0.926   0.235  1.00  0.00     0.090 A 
HETATM    6  C5  UNK     1      -1.017   1.043   2.344  1.00  0.00     0.187 A 
HETATM    7  C6  UNK     1       0.049   1.510   1.435  1.00  0.00     0.093 A 
HETATM    8  C7  UNK     1      -2.379  -1.631   0.091  1.00  0.00     0.134 A 
HETATM    9  C8  UNK     1      -2.894  -0.573   2.629  1.00  0.00     0.021 A 
HETATM   10  C9  UNK     1      -3.417  -2.147   0.868  1.00  0.00     0.101 A 
HETATM   11  C12 UNK     1      -3.674  -1.619   2.134  1.00  0.00     0.040 A 
ENDROOT
BRANCH   5  12
HETATM   12  C4  UNK     1       1.249   1.344  -0.711  1.00  0.00     0.001 A 
HETATM   13  C10 UNK     1       1.043   1.227  -2.088  1.00  0.00     0.053 A 
HETATM   14  C13 UNK     1       2.039   1.623  -2.981  1.00  0.00     0.099 A 
HETATM   15  C15 UNK     1       3.243   2.136  -2.500  1.00  0.00     0.098 A 
HETATM   16  C14 UNK     1       3.452   2.254  -1.126  1.00  0.00     0.040 A 
HETATM   17  C11 UNK     1       2.457   1.859  -0.233  1.00  0.00     0.017 A 
BRANCH  14  18
HETATM   18  O5  UNK     1       1.823   1.502  -4.321  1.00  0.00    -0.358 OA
HETATM   19  H9  UNK     1       2.614   1.822  -4.788  1.00  0.00     0.217 HD
ENDBRANCH  14  18
BRANCH  15  20
HETATM   20  O6  UNK     1       4.223   2.525  -3.362  1.00  0.00    -0.358 OA
HETATM   21  H10 UNK     1       4.983   2.854  -2.851  1.00  0.00     0.217 HD
ENDBRANCH  15  20
ENDBRANCH   5  12
BRANCH   8  22
HETATM   22  O2  UNK     1      -2.132  -2.151  -1.145  1.00  0.00    -0.356 OA
HETATM   23  H7  UNK     1      -2.773  -2.864  -1.312  1.00  0.00     0.218 HD
ENDBRANCH   8  22
BRANCH  10  24
HETATM   24  O4  UNK     1      -4.188  -3.168   0.401  1.00  0.00    -0.358 OA
HETATM   25  H8  UNK     1      -4.854  -3.394   1.072  1.00  0.00     0.217 HD
ENDBRANCH  10  24
TORSDOF 5
