REMARK  3 active torsions:
REMARK  status: ('A' for Active; 'I' for Inactive)
REMARK    1  A    between atoms: C12_16  and  O3_3 
REMARK    2  A    between atoms: C10_14  and  C4_8 
REMARK    3  A    between atoms: C11_15  and  C12_16 
ROOT
HETATM    1  O1  UNK     1      -0.122   0.567  -2.218  1.00  0.00    -0.321 OA
HETATM    2  O2  UNK     1       1.040   0.410   1.691  1.00  0.00    -0.286 OA
HETATM    3  C1  UNK     1       1.591   0.933  -0.538  1.00  0.00     0.049 A 
HETATM    4  C2  UNK     1       1.140   0.964  -1.857  1.00  0.00     0.089 A 
HETATM    5  C3  UNK     1       0.682   0.454   0.521  1.00  0.00     0.197 A 
HETATM    6  C4  UNK     1      -0.676   0.030   0.084  1.00  0.00     0.037 A 
HETATM    7  C5  UNK     1       2.888   1.351  -0.228  1.00  0.00     0.018 A 
HETATM    8  C6  UNK     1       1.983   1.411  -2.874  1.00  0.00     0.038 A 
HETATM    9  C7  UNK     1      -0.958   0.121  -1.223  1.00  0.00     0.158 A 
HETATM   10  C8  UNK     1       3.730   1.798  -1.248  1.00  0.00     0.001 A 
HETATM   11  C9  UNK     1       3.279   1.829  -2.568  1.00  0.00     0.003 A 
ENDROOT
BRANCH   6  12
HETATM   12  C10 UNK     1      -1.633  -0.455   1.042  1.00  0.00     0.024 C 
HETATM   13  C11 UNK     1      -2.576  -1.351   0.737  1.00  0.00     0.082 C 
BRANCH  13  14
HETATM   14  C12 UNK     1      -3.520  -1.797   1.780  1.00  0.00     0.165 C 
HETATM   15  O4  UNK     1      -3.542  -1.427   2.942  1.00  0.00    -0.647 OA
BRANCH  14  16
HETATM   16  O3  UNK     1      -4.375  -2.695   1.237  1.00  0.00    -0.773 OA
HETATM   17  H8  UNK     1      -5.027  -3.024   1.892  1.00  0.00     0.167 HD
ENDBRANCH  14  16
ENDBRANCH  13  14
ENDBRANCH   6  12
TORSDOF 3
