REMARK  4 active torsions:
REMARK  status: ('A' for Active; 'I' for Inactive)
REMARK    1  A    between atoms: C12_19  and  O2_3 
REMARK    2  A    between atoms: C3_10  and  N1_7 
REMARK       I    between atoms: C9_16  and  N1_7 
REMARK    3  A    between atoms: C12_19  and  C2_9 
REMARK    4  A    between atoms: C6_13  and  C9_16 
ROOT
HETATM    1  O3  UNK     1      -1.223   0.165  -2.314  1.00  0.00    -0.267 OA
HETATM    2  N1  UNK     1      -0.924  -0.183  -0.004  1.00  0.00    -0.316 N 
HETATM    3  C9  UNK     1      -0.575   0.260  -1.273  1.00  0.00     0.262 C 
HETATM    4  H1  UNK     1      -0.270  -0.046   0.761  1.00  0.00     0.169 HD
ENDROOT
BRANCH   2   5
HETATM    5  C3  UNK     1      -2.112  -0.850   0.381  1.00  0.00     0.094 A 
HETATM    6  C2  UNK     1      -2.496  -1.298   1.592  1.00  0.00     0.080 A 
HETATM    7  C1  UNK     1      -3.780  -1.911   1.514  1.00  0.00    -0.030 A 
HETATM    8  C4  UNK     1      -4.288  -1.886   0.234  1.00  0.00    -0.012 A 
HETATM    9  C5  UNK     1      -4.489  -2.507   2.674  1.00  0.00     0.050 C 
HETATM   10  S1  UNK     1      -3.220  -1.126  -0.867  1.00  0.00    -0.076 SA
HETATM   11  C8  UNK     1      -5.579  -2.412  -0.264  1.00  0.00     0.057 C 
BRANCH   6  12
HETATM   12  C12 UNK     1      -1.704  -1.164   2.789  1.00  0.00     0.296 C 
HETATM   13  O4  UNK     1      -2.145  -1.057   3.943  1.00  0.00    -0.259 OA
BRANCH  12  14
HETATM   14  O2  UNK     1      -0.357  -1.169   2.511  1.00  0.00    -0.322 OA
HETATM   15  C18 UNK     1       0.533  -1.043   3.626  1.00  0.00     0.213 C 
ENDBRANCH  12  14
ENDBRANCH   6  12
ENDBRANCH   2   5
BRANCH   3  16
HETATM   16  C6  UNK     1       0.740   0.912  -1.290  1.00  0.00     0.108 A 
HETATM   17  C10 UNK     1       1.433   0.816  -2.430  1.00  0.00     0.037 A 
HETATM   18  C7  UNK     1       2.747   1.430  -2.544  1.00  0.00    -0.001 A 
HETATM   19  C11 UNK     1       3.267   2.114  -1.450  1.00  0.00     0.089 A 
HETATM   20  C14 UNK     1       3.505   1.356  -3.715  1.00  0.00     0.014 A 
HETATM   21  O1  UNK     1       2.533   2.211  -0.252  1.00  0.00    -0.274 OA
HETATM   22  C15 UNK     1       4.519   2.723  -1.493  1.00  0.00     0.038 A 
HETATM   23  C13 UNK     1       1.273   1.635  -0.113  1.00  0.00     0.304 A 
HETATM   24  O5  UNK     1       0.641   1.724   0.934  1.00  0.00    -0.259 OA
HETATM   25  C17 UNK     1       5.269   2.644  -2.664  1.00  0.00     0.003 A 
HETATM   26  C16 UNK     1       4.763   1.962  -3.773  1.00  0.00     0.001 A 
ENDBRANCH   3  16
TORSDOF 4
