REMARK  1 active torsions:
REMARK  status: ('A' for Active; 'I' for Inactive)
REMARK    1  A    between atoms: C1_6  and  C5_10 
ROOT
HETATM    1  O1  UNK     1       1.104   0.404   1.455  1.00  0.00    -0.277 OA
HETATM    2  O2  UNK     1       0.501   0.155  -2.704  1.00  0.00    -0.274 OA
HETATM    3  O3  UNK     1       0.602  -0.235   3.569  1.00  0.00    -0.265 OA
HETATM    4  O4  UNK     1      -1.073  -1.464  -2.384  1.00  0.00    -0.259 OA
HETATM    5  C1  UNK     1      -0.826  -1.491   0.475  1.00  0.00     0.070 C 
HETATM    6  C2  UNK     1      -0.033  -0.589  -0.434  1.00  0.00     0.061 A 
HETATM    7  C3  UNK     1      -0.082  -1.698   1.798  1.00  0.00     0.126 C 
HETATM    8  C4  UNK     1       0.879   0.254   0.070  1.00  0.00     0.105 A 
HETATM    9  C6  UNK     1       1.659   1.130  -0.798  1.00  0.00     0.033 A 
HETATM   10  C7  UNK     1       0.534  -0.442   2.361  1.00  0.00     0.265 C 
HETATM   11  C8  UNK     1      -0.258  -0.686  -1.898  1.00  0.00     0.298 A 
HETATM   12  C9  UNK     1       1.445   1.054  -2.172  1.00  0.00     0.092 A 
HETATM   13  C12 UNK     1       2.612   2.041  -0.327  1.00  0.00     0.017 A 
HETATM   14  C13 UNK     1       2.145   1.852  -3.076  1.00  0.00     0.038 A 
HETATM   15  C15 UNK     1       3.322   2.849  -1.221  1.00  0.00     0.001 A 
HETATM   16  C16 UNK     1       3.089   2.754  -2.594  1.00  0.00     0.003 A 
ENDROOT
BRANCH   5  17
HETATM   17  C5  UNK     1      -2.259  -1.020   0.683  1.00  0.00    -0.042 A 
HETATM   18  C10 UNK     1      -2.604   0.229   1.268  1.00  0.00     0.015 A 
HETATM   19  C14 UNK     1      -3.969   0.406   1.337  1.00  0.00     0.050 A 
HETATM   20  S1  UNK     1      -4.823  -0.934   0.697  1.00  0.00    -0.113 SA
HETATM   21  C11 UNK     1      -3.366  -1.754   0.326  1.00  0.00     0.057 A 
ENDBRANCH   5  17
TORSDOF 1
