REMARK  6 active torsions:
REMARK  status: ('A' for Active; 'I' for Inactive)
REMARK    1  A    between atoms: C16_23  and  O1_1 
REMARK    2  A    between atoms: C5_12  and  O1_1 
REMARK    3  A    between atoms: C3_10  and  O2_2 
REMARK    4  A    between atoms: C20_27  and  N2_6 
REMARK    5  A    between atoms: C1_8  and  C6_13 
REMARK    6  A    between atoms: C2_9  and  C7_14 
ROOT
HETATM    1  N3  UNK     1       5.170   3.051  -3.305  1.00  0.00    -0.191 NA
HETATM    2  C6  UNK     1       3.249   2.119  -0.526  1.00  0.00     0.035 C 
HETATM    3  C7  UNK     1       3.252   2.091  -1.868  1.00  0.00     0.055 C 
HETATM    4  C18 UNK     1       4.306   2.619  -2.662  1.00  0.00     0.100 C 
ENDROOT
BRANCH   3   5
HETATM    5  C2  UNK     1       2.136   1.439  -2.536  1.00  0.00    -0.015 A 
HETATM    6  C11 UNK     1       2.181   0.069  -2.792  1.00  0.00     0.013 A 
HETATM    7  C13 UNK     1       1.111  -0.556  -3.433  1.00  0.00     0.007 A 
HETATM    8  C10 UNK     1      -0.003   0.190  -3.818  1.00  0.00    -0.062 A 
HETATM    9  C14 UNK     1      -0.047   1.560  -3.563  1.00  0.00     0.007 A 
HETATM   10  C15 UNK     1      -1.146  -0.478  -4.505  1.00  0.00     0.048 C 
HETATM   11  C12 UNK     1       1.022   2.185  -2.922  1.00  0.00     0.013 A 
ENDBRANCH   3   5
BRANCH   2  12
HETATM   12  C1  UNK     1       2.226   1.608   0.350  1.00  0.00    -0.032 A 
HETATM   13  C4  UNK     1       2.301   0.298   0.845  1.00  0.00     0.051 A 
HETATM   14  C3  UNK     1       1.310  -0.196   1.693  1.00  0.00     0.102 A 
HETATM   15  C5  UNK     1       0.233   0.614   2.054  1.00  0.00     0.111 A 
HETATM   16  C9  UNK     1       0.147   1.918   1.567  1.00  0.00     0.041 A 
HETATM   17  C8  UNK     1       1.139   2.413   0.719  1.00  0.00     0.014 A 
BRANCH  14  18
HETATM   18  O2  UNK     1       1.405  -1.471   2.163  1.00  0.00    -0.353 OA
HETATM   19  C21 UNK     1       2.102  -1.659   3.393  1.00  0.00     0.210 C 
ENDBRANCH  14  18
BRANCH  15  20
HETATM   20  O1  UNK     1      -0.741   0.143   2.882  1.00  0.00    -0.289 OA
BRANCH  20  21
HETATM   21  C16 UNK     1      -1.830  -0.484   2.302  1.00  0.00     0.169 A 
HETATM   22  N1  UNK     1      -1.825  -0.571   0.959  1.00  0.00    -0.234 NA
HETATM   23  C22 UNK     1      -2.894  -1.186   0.405  1.00  0.00     0.155 A 
HETATM   24  C20 UNK     1      -3.951  -1.709   1.132  1.00  0.00     0.120 A 
HETATM   25  C19 UNK     1      -3.908  -1.594   2.517  1.00  0.00     0.042 A 
HETATM   26  C17 UNK     1      -2.825  -0.968   3.124  1.00  0.00     0.061 A 
BRANCH  24  27
HETATM   27  N2  UNK     1      -5.041  -2.341   0.484  1.00  0.00    -0.114 N 
HETATM   28  O3  UNK     1      -5.978  -2.801   1.183  1.00  0.00    -0.532 OA
HETATM   29  O4  UNK     1      -5.038  -2.422  -0.769  1.00  0.00    -0.532 OA
ENDBRANCH  24  27
ENDBRANCH  20  21
ENDBRANCH  15  20
ENDBRANCH   2  12
TORSDOF 6
