REMARK  3 active torsions:
REMARK  status: ('A' for Active; 'I' for Inactive)
REMARK    1  A    between atoms: C4_8  and  O1_2 
REMARK    2  A    between atoms: C8_12  and  O1_2 
REMARK    3  A    between atoms: C10_14  and  C8_12 
ROOT
HETATM    1  I1  UNK     1      -1.256   0.677  -2.274  1.00  0.00    -0.039 I 
HETATM    2  O2  UNK     1      -3.034  -1.038  -0.298  1.00  0.00    -0.273 OA
HETATM    3  O3  UNK     1      -4.993  -2.215  -0.356  1.00  0.00    -0.260 OA
HETATM    4  C1  UNK     1      -1.767  -0.927   1.788  1.00  0.00     0.005 A 
HETATM    5  C2  UNK     1      -1.920  -0.593   0.442  1.00  0.00     0.109 A 
HETATM    6  C3  UNK     1      -2.796  -1.758   2.428  1.00  0.00    -0.043 A 
HETATM    7  C4  UNK     1       0.132   0.660   0.435  1.00  0.00     0.088 A 
HETATM    8  C5  UNK     1      -0.631  -0.445   2.453  1.00  0.00     0.017 A 
HETATM    9  C6  UNK     1      -0.989   0.191  -0.242  1.00  0.00     0.074 A 
HETATM   10  C7  UNK     1       0.310   0.342   1.781  1.00  0.00     0.039 A 
HETATM   11  C9  UNK     1      -3.845  -2.167   1.700  1.00  0.00     0.090 A 
HETATM   12  C11 UNK     1      -2.661  -2.135   3.874  1.00  0.00     0.049 C 
HETATM   13  C12 UNK     1      -4.020  -1.823   0.279  1.00  0.00     0.288 A 
ENDROOT
BRANCH   7  14
HETATM   14  O1  UNK     1       1.079   1.431  -0.171  1.00  0.00    -0.345 OA
BRANCH  14  15
HETATM   15  C8  UNK     1       2.409   0.917  -0.201  1.00  0.00     0.214 C 
BRANCH  15  16
HETATM   16  C10 UNK     1       3.113   1.453  -1.413  1.00  0.00    -0.034 A 
HETATM   17  C14 UNK     1       3.817   2.649  -1.328  1.00  0.00     0.009 A 
HETATM   18  C16 UNK     1       4.471   3.147  -2.455  1.00  0.00     0.001 A 
HETATM   19  C17 UNK     1       4.417   2.447  -3.660  1.00  0.00     0.000 A 
HETATM   20  C15 UNK     1       3.708   1.248  -3.738  1.00  0.00     0.001 A 
HETATM   21  C13 UNK     1       3.054   0.750  -2.611  1.00  0.00     0.009 A 
ENDBRANCH  15  16
ENDBRANCH  14  15
ENDBRANCH   7  14
TORSDOF 3
