REMARK  4 active torsions:
REMARK  status: ('A' for Active; 'I' for Inactive)
REMARK    1  A    between atoms: C13_19  and  O2_3 
REMARK    2  A    between atoms: C6_12  and  O2_3 
REMARK    3  A    between atoms: C10_16  and  C3_9 
REMARK    4  A    between atoms: C12_18  and  C13_19 
ROOT
HETATM    1  O1  UNK     1       2.270   0.997  -2.319  1.00  0.00    -0.307 OA
HETATM    2  O4  UNK     1       2.072   1.841   1.662  1.00  0.00    -0.287 OA
HETATM    3  C1  UNK     1       1.168   0.667  -0.179  1.00  0.00     0.051 A 
HETATM    4  C2  UNK     1       1.294   0.421  -1.545  1.00  0.00     0.090 A 
HETATM    5  C3  UNK     1       3.165   1.866  -1.714  1.00  0.00     0.113 A 
HETATM    6  C4  UNK     1       0.155   0.052   0.559  1.00  0.00     0.055 A 
HETATM    7  C5  UNK     1       2.121   1.582   0.468  1.00  0.00     0.187 A 
HETATM    8  C6  UNK     1      -0.734  -0.813  -0.081  1.00  0.00     0.080 A 
HETATM    9  C7  UNK     1       0.404  -0.444  -2.183  1.00  0.00     0.041 A 
HETATM   10  C8  UNK     1       3.151   2.177  -0.408  1.00  0.00     0.095 A 
HETATM   11  C9  UNK     1      -0.610  -1.060  -1.449  1.00  0.00     0.040 A 
ENDROOT
BRANCH   8  12
HETATM   12  O2  UNK     1      -1.725  -1.417   0.631  1.00  0.00    -0.275 OA
BRANCH  12  13
HETATM   13  C13 UNK     1      -2.919  -0.694   0.684  1.00  0.00     0.298 C 
HETATM   14  O5  UNK     1      -3.119   0.388   0.151  1.00  0.00    -0.259 OA
BRANCH  13  15
HETATM   15  C12 UNK     1      -3.949  -1.414   1.474  1.00  0.00     0.041 A 
HETATM   16  C16 UNK     1      -3.545  -2.231   2.510  1.00  0.00     0.036 A 
HETATM   17  C18 UNK     1      -4.513  -2.907   3.252  1.00  0.00     0.011 A 
HETATM   18 Br1  UNK     1      -3.996  -4.035   4.677  1.00  0.00    -0.051 Br
HETATM   19  C20 UNK     1      -5.864  -2.751   2.942  1.00  0.00     0.019 A 
HETATM   20  C19 UNK     1      -6.247  -1.920   1.890  1.00  0.00     0.002 A 
HETATM   21  C17 UNK     1      -5.279  -1.243   1.147  1.00  0.00     0.017 A 
ENDBRANCH  13  15
ENDBRANCH  12  13
ENDBRANCH   8  12
BRANCH   5  22
HETATM   22  C10 UNK     1       4.176   2.422  -2.635  1.00  0.00     0.108 A 
HETATM   23  O3  UNK     1       5.156   3.280  -2.221  1.00  0.00    -0.320 OA
HETATM   24  C15 UNK     1       5.904   3.588  -3.313  1.00  0.00     0.142 A 
HETATM   25  C14 UNK     1       5.421   2.942  -4.427  1.00  0.00     0.027 A 
HETATM   26  C11 UNK     1       4.305   2.188  -3.992  1.00  0.00     0.042 A 
ENDBRANCH   5  22
TORSDOF 4
