REMARK  6 active torsions:
REMARK  status: ('A' for Active; 'I' for Inactive)
REMARK    1  A    between atoms: C17_22  and  O1_3 
REMARK    2  A    between atoms: C2_7  and  O1_3 
REMARK    3  A    between atoms: C1_6  and  C5_10 
REMARK    4  A    between atoms: C5_10  and  C9_14 
REMARK    5  A    between atoms: C10_15  and  C8_13 
REMARK    6  A    between atoms: C15_20  and  C17_22 
ROOT
HETATM    1  C1  UNK     1       0.615   1.005   0.477  1.00  0.00     0.014 A 
HETATM    2  C2  UNK     1      -1.554  -0.217   1.734  1.00  0.00     0.079 A 
HETATM    3  C3  UNK     1       0.774  -0.237   1.091  1.00  0.00     0.018 A 
HETATM    4  C4  UNK     1      -0.629   1.636   0.491  1.00  0.00     0.018 A 
HETATM    5  C6  UNK     1      -0.310  -0.848   1.720  1.00  0.00     0.038 A 
HETATM    6  C7  UNK     1      -1.713   1.025   1.120  1.00  0.00     0.038 A 
ENDROOT
BRANCH   1   7
HETATM    7  C5  UNK     1       1.747   1.643  -0.177  1.00  0.00     0.182 C 
HETATM    8  O2  UNK     1       2.662   0.966  -0.669  1.00  0.00    -0.288 OA
BRANCH   7   9
HETATM    9  C9  UNK     1       1.802   3.145  -0.218  1.00  0.00     0.056 C 
HETATM   10  C10 UNK     1       2.429   3.778  -1.220  1.00  0.00     0.015 C 
BRANCH  10  11
HETATM   11  C8  UNK     1       3.105   3.103  -2.342  1.00  0.00    -0.035 A 
HETATM   12  C11 UNK     1       2.381   2.264  -3.190  1.00  0.00     0.035 A 
HETATM   13  C13 UNK     1       3.021   1.625  -4.252  1.00  0.00     0.034 A 
HETATM   14 Cl1  UNK     1       2.129   0.590  -5.298  1.00  0.00    -0.084 Cl
HETATM   15  C16 UNK     1       4.385   1.825  -4.466  1.00  0.00     0.024 A 
HETATM   16  C14 UNK     1       5.109   2.664  -3.618  1.00  0.00     0.003 A 
HETATM   17  C12 UNK     1       4.468   3.303  -2.557  1.00  0.00     0.011 A 
ENDBRANCH  10  11
ENDBRANCH   7   9
ENDBRANCH   1   7
BRANCH   2  18
HETATM   18  O1  UNK     1      -2.613  -0.813   2.348  1.00  0.00    -0.275 OA
BRANCH  18  19
HETATM   19  C17 UNK     1      -3.367  -1.644   1.515  1.00  0.00     0.305 C 
HETATM   20  O3  UNK     1      -3.150  -1.850   0.330  1.00  0.00    -0.258 OA
BRANCH  19  21
HETATM   21  C15 UNK     1      -4.501  -2.257   2.253  1.00  0.00     0.080 A 
HETATM   22  S1  UNK     1      -5.568  -3.305   1.419  1.00  0.00    -0.096 SA
HETATM   23  C20 UNK     1      -6.504  -3.563   2.830  1.00  0.00     0.050 A 
HETATM   24  C19 UNK     1      -6.012  -2.865   3.911  1.00  0.00     0.009 A 
HETATM   25  C18 UNK     1      -4.852  -2.108   3.577  1.00  0.00     0.025 A 
ENDBRANCH  19  21
ENDBRANCH  18  19
ENDBRANCH   2  18
TORSDOF 6
