REMARK  3 active torsions:
REMARK  status: ('A' for Active; 'I' for Inactive)
REMARK    1  A    between atoms: C10_17  and  O2_2 
REMARK    2  A    between atoms: C5_12  and  O2_2 
REMARK    3  A    between atoms: C12_19  and  N1_6 
ROOT
HETATM    1  N2  UNK     1       5.837   2.452   0.002  1.00  0.00    -0.191 NA
HETATM    2  C10 UNK     1       1.268   0.216  -1.690  1.00  0.00     0.109 A 
HETATM    3  C12 UNK     1       1.529   1.538  -2.004  1.00  0.00     0.138 A 
HETATM    4  C13 UNK     1       2.159  -0.543  -0.949  1.00  0.00     0.041 A 
HETATM    5  C14 UNK     1       2.718   2.121  -1.564  1.00  0.00     0.061 A 
HETATM    6  C15 UNK     1       3.348   0.040  -0.510  1.00  0.00     0.025 A 
HETATM    7  C16 UNK     1       3.627   1.371  -0.817  1.00  0.00     0.047 A 
HETATM    8  C17 UNK     1       4.845   1.967  -0.366  1.00  0.00     0.099 C 
ENDROOT
BRANCH   3   9
HETATM    9  N1  UNK     1       0.613   2.317  -2.763  1.00  0.00    -0.113 N 
HETATM   10  O4  UNK     1       0.899   3.511  -3.018  1.00  0.00    -0.532 OA
HETATM   11  O5  UNK     1      -0.453   1.787  -3.155  1.00  0.00    -0.532 OA
ENDBRANCH   3   9
BRANCH   2  12
HETATM   12  O2  UNK     1       0.095  -0.386  -2.115  1.00  0.00    -0.308 OA
BRANCH  12  13
HETATM   13  C5  UNK     1      -0.747  -0.872  -1.162  1.00  0.00     0.077 A 
HETATM   14  C4  UNK     1      -1.036  -0.102  -0.030  1.00  0.00     0.052 A 
HETATM   15  C1  UNK     1      -1.900  -0.583   0.963  1.00  0.00     0.007 A 
HETATM   16  C2  UNK     1      -2.456  -1.850   0.779  1.00  0.00     0.090 A 
HETATM   17  C3  UNK     1      -2.249   0.168   2.177  1.00  0.00    -0.043 A 
HETATM   18  O1  UNK     1      -3.333  -2.406   1.731  1.00  0.00    -0.275 OA
HETATM   19  C6  UNK     1      -2.177  -2.630  -0.345  1.00  0.00     0.041 A 
HETATM   20  C11 UNK     1      -3.679  -1.722   2.886  1.00  0.00     0.288 A 
HETATM   21  O3  UNK     1      -4.440  -2.197   3.721  1.00  0.00    -0.260 OA
HETATM   22  C8  UNK     1      -3.085  -0.386   3.065  1.00  0.00     0.090 A 
HETATM   23  C7  UNK     1      -1.317  -2.134  -1.319  1.00  0.00     0.040 A 
HETATM   24  C9  UNK     1      -1.669   1.534   2.405  1.00  0.00     0.049 C 
ENDBRANCH  12  13
ENDBRANCH   2  12
TORSDOF 3
