REMARK  4 active torsions:
REMARK  status: ('A' for Active; 'I' for Inactive)
REMARK       I    between atoms: C5_8  and  N1_3 
REMARK    1  A    between atoms: C8_11  and  N1_3 
REMARK    2  A    between atoms: C1_4  and  C2_5 
REMARK    3  A    between atoms: C1_4  and  C5_8 
REMARK    4  A    between atoms: C3_6  and  C4_7 
ROOT
HETATM    1  C1  UNK     1      -0.402  -0.051   0.616  1.00  0.00     0.043 C 
HETATM    2  C3  UNK     1      -0.733  -0.353   1.899  1.00  0.00     0.029 C 
ENDROOT
BRANCH   1   3
HETATM    3  C2  UNK     1      -1.291  -0.368  -0.520  1.00  0.00    -0.021 A 
HETATM    4  C6  UNK     1      -2.229   0.565  -0.924  1.00  0.00     0.012 A 
HETATM    5  C11 UNK     1      -3.069   0.266  -1.997  1.00  0.00     0.001 A 
HETATM    6  C15 UNK     1      -2.955  -0.962  -2.650  1.00  0.00     0.000 A 
HETATM    7  C12 UNK     1      -2.003  -1.890  -2.229  1.00  0.00     0.001 A 
HETATM    8  C7  UNK     1      -1.164  -1.591  -1.156  1.00  0.00     0.012 A 
ENDBRANCH   1   3
BRANCH   1   9
HETATM    9  C5  UNK     1       0.948   0.598   0.406  1.00  0.00     0.257 C 
HETATM   10  O1  UNK     1       1.663   0.857   1.370  1.00  0.00    -0.267 OA
HETATM   11  N1  UNK     1       1.221   0.841  -0.934  1.00  0.00    -0.323 N 
HETATM   12  H4  UNK     1       0.537   0.591  -1.641  1.00  0.00     0.169 HD
BRANCH  11  13
HETATM   13  C8  UNK     1       2.385   1.428  -1.442  1.00  0.00     0.035 A 
HETATM   14  C13 UNK     1       2.517   1.633  -2.813  1.00  0.00     0.032 A 
HETATM   15  C19 UNK     1       3.678   2.217  -3.320  1.00  0.00     0.044 A 
HETATM   16  C21 UNK     1       4.703   2.595  -2.454  1.00  0.00     0.116 A 
HETATM   17  C20 UNK     1       4.568   2.389  -1.081  1.00  0.00     0.044 A 
HETATM   18  F1  UNK     1       5.818   3.156  -2.940  1.00  0.00    -0.206 F 
HETATM   19  C14 UNK     1       3.408   1.805  -0.574  1.00  0.00     0.032 A 
ENDBRANCH  11  13
ENDBRANCH   1   9
BRANCH   2  20
HETATM   20  C4  UNK     1      -1.947  -1.017   2.348  1.00  0.00    -0.035 A 
HETATM   21  C10 UNK     1      -1.978  -2.406   2.469  1.00  0.00     0.011 A 
HETATM   22  C17 UNK     1      -3.142  -3.043   2.899  1.00  0.00     0.001 A 
HETATM   23  C18 UNK     1      -4.275  -2.290   3.208  1.00  0.00     0.000 A 
HETATM   24  C16 UNK     1      -4.244  -0.901   3.087  1.00  0.00     0.001 A 
HETATM   25  C9  UNK     1      -3.080  -0.264   2.657  1.00  0.00     0.011 A 
ENDBRANCH   2  20
TORSDOF 4
