REMARK  7 active torsions:
REMARK  status: ('A' for Active; 'I' for Inactive)
REMARK    1  A    between atoms: C12_21  and  O2_3 
REMARK    2  A    between atoms: C14_23  and  O5_6 
REMARK    3  A    between atoms: C21_30  and  O5_6 
REMARK    4  A    between atoms: C12_21  and  C2_11 
REMARK    5  A    between atoms: C11_20  and  C6_15 
REMARK    6  A    between atoms: C14_23  and  C8_17 
REMARK    7  A    between atoms: C21_30  and  C24_33 
ROOT
HETATM    1  O1  UNK     1       2.565  -0.255  -0.224  1.00  0.00    -0.292 OA
HETATM    2  N1  UNK     1      -0.440   1.277  -3.548  1.00  0.00    -0.362 N 
HETATM    3  C1  UNK     1       2.772   2.764  -2.222  1.00  0.00     0.008 C 
HETATM    4  C2  UNK     1       3.387   1.462  -1.691  1.00  0.00     0.164 C 
HETATM    5  C3  UNK     1       1.719   2.418  -3.286  1.00  0.00     0.063 C 
HETATM    6  C4  UNK     1       0.984   0.509  -1.818  1.00  0.00     0.025 C 
HETATM    7  C5  UNK     1       0.744   1.357  -2.841  1.00  0.00     0.020 C 
HETATM    8  C6  UNK     1      -0.068  -0.503  -1.368  1.00  0.00     0.104 C 
HETATM    9  C7  UNK     1       2.323   0.523  -1.146  1.00  0.00     0.172 C 
HETATM   10  C8  UNK     1      -1.233  -0.608  -2.356  1.00  0.00     0.052 C 
HETATM   11  C9  UNK     1       2.172   3.650  -1.119  1.00  0.00     0.011 C 
HETATM   12  C10 UNK     1      -1.389   0.284  -3.362  1.00  0.00     0.018 C 
HETATM   13  C13 UNK     1      -2.529   0.301  -4.344  1.00  0.00     0.069 C 
HETATM   14  H9  UNK     1      -0.581   1.927  -4.313  1.00  0.00     0.165 HD
ENDROOT
BRANCH   8  15
HETATM   15  C11 UNK     1      -0.581  -0.156   0.008  1.00  0.00     0.029 A 
HETATM   16  C15 UNK     1      -0.368  -1.127   1.110  1.00  0.00     0.194 A 
HETATM   17  O7  UNK     1       0.208  -2.193   0.936  1.00  0.00    -0.287 OA
HETATM   18  C17 UNK     1      -0.889  -0.738   2.434  1.00  0.00     0.050 A 
HETATM   19  C18 UNK     1      -1.537   0.489   2.573  1.00  0.00     0.089 A 
HETATM   20  C19 UNK     1      -0.739  -1.584   3.535  1.00  0.00     0.042 A 
HETATM   21  O3  UNK     1      -1.713   1.359   1.526  1.00  0.00    -0.321 OA
HETATM   22  C22 UNK     1      -2.038   0.878   3.816  1.00  0.00     0.040 A 
HETATM   23  C16 UNK     1      -1.222   0.983   0.300  1.00  0.00     0.154 A 
HETATM   24  C25 UNK     1      -1.889   0.035   4.918  1.00  0.00     0.026 A 
HETATM   25  C23 UNK     1      -1.241  -1.193   4.777  1.00  0.00     0.035 A 
HETATM   26 Cl1  UNK     1      -1.060  -2.228   6.141  1.00  0.00    -0.084 Cl
ENDBRANCH   8  15
BRANCH  10  27
HETATM   27  C14 UNK     1      -2.139  -1.756  -2.191  1.00  0.00     0.292 C 
HETATM   28  O6  UNK     1      -1.945  -2.840  -2.709  1.00  0.00    -0.259 OA
BRANCH  27  29
HETATM   29  O5  UNK     1      -3.167  -1.378  -1.394  1.00  0.00    -0.318 OA
BRANCH  29  30
HETATM   30  C21 UNK     1      -4.141  -2.395  -1.137  1.00  0.00     0.178 C 
BRANCH  30  31
HETATM   31  C24 UNK     1      -5.224  -1.823  -0.235  1.00  0.00     0.022 C 
HETATM   32  C26 UNK     1      -4.657  -1.334   1.086  1.00  0.00     0.007 C 
ENDBRANCH  30  31
ENDBRANCH  29  30
ENDBRANCH  27  29
ENDBRANCH  10  27
BRANCH   4  33
HETATM   33  C12 UNK     1       4.490   1.754  -0.720  1.00  0.00     0.270 C 
HETATM   34  O4  UNK     1       4.511   1.351   0.436  1.00  0.00    -0.264 OA
BRANCH  33  35
HETATM   35  O2  UNK     1       5.439   2.524  -1.325  1.00  0.00    -0.326 OA
HETATM   36  C20 UNK     1       6.557   2.880  -0.506  1.00  0.00     0.213 C 
ENDBRANCH  33  35
ENDBRANCH   4  33
TORSDOF 7
