REMARK  6 active torsions:
REMARK  status: ('A' for Active; 'I' for Inactive)
REMARK    1  A    between atoms: C15_22  and  O3_3 
REMARK    2  A    between atoms: C26_33  and  O3_3 
REMARK    3  A    between atoms: C21_28  and  N2_7 
REMARK    4  A    between atoms: C1_8  and  C9_16 
REMARK    5  A    between atoms: C11_18  and  C5_12 
REMARK    6  A    between atoms: C15_22  and  C8_15 
ROOT
HETATM    1  O1  UNK     1       1.225  -2.416  -0.737  1.00  0.00    -0.293 OA
HETATM    2  N1  UNK     1      -1.616   1.115  -2.117  1.00  0.00    -0.362 N 
HETATM    3  C1  UNK     1       2.090   1.011  -1.495  1.00  0.00     0.031 C 
HETATM    4  C2  UNK     1       0.816   1.435  -2.240  1.00  0.00     0.067 C 
HETATM    5  C3  UNK     1      -0.252  -0.657  -1.336  1.00  0.00     0.024 C 
HETATM    6  C4  UNK     1      -0.367   0.576  -1.874  1.00  0.00     0.021 C 
HETATM    7  C5  UNK     1      -1.484  -1.462  -0.936  1.00  0.00     0.104 C 
HETATM    8  C6  UNK     1       2.312  -0.495  -1.648  1.00  0.00     0.093 C 
HETATM    9  C7  UNK     1       1.102  -1.274  -1.179  1.00  0.00     0.159 C 
HETATM   10  C8  UNK     1      -2.790  -0.808  -1.390  1.00  0.00     0.052 C 
HETATM   11  C10 UNK     1      -2.808   0.435  -1.926  1.00  0.00     0.018 C 
HETATM   12  C14 UNK     1      -4.042   1.181  -2.357  1.00  0.00     0.069 C 
HETATM   13  H7  UNK     1      -1.661   2.042  -2.524  1.00  0.00     0.165 HD
ENDROOT
BRANCH   7  14
HETATM   14  C11 UNK     1      -1.506  -1.680   0.553  1.00  0.00     0.029 A 
HETATM   15  C16 UNK     1      -1.592  -0.495   1.443  1.00  0.00     0.194 A 
HETATM   16  O5  UNK     1      -1.646   0.646   1.004  1.00  0.00    -0.287 OA
HETATM   17  C18 UNK     1      -1.609  -0.765   2.893  1.00  0.00     0.049 A 
HETATM   18  C22 UNK     1      -1.544  -2.086   3.337  1.00  0.00     0.089 A 
HETATM   19  C23 UNK     1      -1.688   0.283   3.813  1.00  0.00     0.025 A 
HETATM   20  O2  UNK     1      -1.465  -3.154   2.478  1.00  0.00    -0.321 OA
HETATM   21  C24 UNK     1      -1.559  -2.366   4.704  1.00  0.00     0.039 A 
HETATM   22  C17 UNK     1      -1.450  -2.887   1.132  1.00  0.00     0.154 A 
HETATM   23  C27 UNK     1      -1.638  -1.320   5.624  1.00  0.00     0.009 A 
HETATM   24  C25 UNK     1      -1.702   0.001   5.179  1.00  0.00    -0.061 A 
HETATM   25  C30 UNK     1      -1.788   1.115   6.168  1.00  0.00     0.048 C 
ENDBRANCH   7  14
BRANCH  10  26
HETATM   26  C15 UNK     1      -4.013  -1.618  -1.267  1.00  0.00     0.292 C 
HETATM   27  O4  UNK     1      -4.399  -2.381  -2.133  1.00  0.00    -0.259 OA
BRANCH  26  28
HETATM   28  O3  UNK     1      -4.581  -1.354  -0.066  1.00  0.00    -0.318 OA
BRANCH  28  29
HETATM   29  C26 UNK     1      -5.789  -2.073   0.204  1.00  0.00     0.174 C 
HETATM   30  C31 UNK     1      -6.303  -1.677   1.572  1.00  0.00     0.034 C 
ENDBRANCH  28  29
ENDBRANCH  26  28
ENDBRANCH  10  26
BRANCH   3  31
HETATM   31  C9  UNK     1       3.298   1.818  -1.932  1.00  0.00    -0.053 A 
HETATM   32  C12 UNK     1       3.967   2.622  -1.012  1.00  0.00     0.010 A 
HETATM   33  C19 UNK     1       5.078   3.364  -1.414  1.00  0.00     0.030 A 
HETATM   34  C21 UNK     1       5.518   3.299  -2.736  1.00  0.00     0.029 A 
HETATM   35  C20 UNK     1       4.847   2.492  -3.656  1.00  0.00     0.030 A 
HETATM   36  C13 UNK     1       3.736   1.751  -3.253  1.00  0.00     0.010 A 
BRANCH  34  37
HETATM   37  N2  UNK     1       6.642   4.048  -3.143  1.00  0.00    -0.390 N 
HETATM   38  C28 UNK     1       7.703   4.348  -2.202  1.00  0.00     0.149 C 
HETATM   39  C29 UNK     1       6.757   4.515  -4.510  1.00  0.00     0.149 C 
ENDBRANCH  34  37
ENDBRANCH   3  31
TORSDOF 6
