REMARK  2 active torsions:
REMARK  status: ('A' for Active; 'I' for Inactive)
REMARK    1  A    between atoms: C2_6  and  O2_2 
REMARK    2  A    between atoms: C1_5  and  C2_6 
ROOT
HETATM    1  O1  UNK     1      -1.108  -0.266   1.618  1.00  0.00    -0.342 OA
HETATM    2  O3  UNK     1       2.873   1.536  -0.436  1.00  0.00    -0.275 OA
HETATM    3  O4  UNK     1       4.726   2.377  -1.487  1.00  0.00    -0.260 OA
HETATM    4  C1  UNK     1      -2.428  -0.465   1.045  1.00  0.00     0.166 C 
HETATM    5  C3  UNK     1      -2.282  -0.688  -0.468  1.00  0.00     0.077 C 
HETATM    6  C4  UNK     1      -0.961  -0.053  -0.675  1.00  0.00    -0.021 A 
HETATM    7  C5  UNK     1      -0.341   0.133   0.554  1.00  0.00     0.078 A 
HETATM    8  C8  UNK     1      -0.321   0.280  -1.858  1.00  0.00     0.024 A 
HETATM    9  C9  UNK     1       0.933   0.652   0.660  1.00  0.00     0.075 A 
HETATM   10  C10 UNK     1       0.967   0.821  -1.784  1.00  0.00    -0.001 A 
HETATM   11  C11 UNK     1       1.572   0.997  -0.531  1.00  0.00     0.092 A 
HETATM   12  C12 UNK     1       1.709   1.203  -2.975  1.00  0.00     0.020 A 
HETATM   13  C13 UNK     1       2.939   1.712  -2.870  1.00  0.00     0.083 A 
HETATM   14  C14 UNK     1       3.596   1.908  -1.565  1.00  0.00     0.288 A 
ENDROOT
BRANCH   4  15
HETATM   15  C2  UNK     1      -3.098  -1.636   1.744  1.00  0.00     0.077 C 
HETATM   16  C6  UNK     1      -4.504  -1.880   1.191  1.00  0.00     0.048 C 
HETATM   17  C7  UNK     1      -3.155  -1.408   3.256  1.00  0.00     0.048 C 
BRANCH  15  18
HETATM   18  O2  UNK     1      -2.318  -2.815   1.523  1.00  0.00    -0.388 OA
HETATM   19  H12 UNK     1      -2.764  -3.558   1.964  1.00  0.00     0.210 HD
ENDBRANCH  15  18
ENDBRANCH   4  15
TORSDOF 2
