REMARK  4 active torsions:
REMARK  status: ('A' for Active; 'I' for Inactive)
REMARK       I    between atoms: C12_18  and  N2_6 
REMARK    1  A    between atoms: C6_12  and  N2_6 
REMARK    2  A    between atoms: C1_7  and  C2_8 
REMARK    3  A    between atoms: C2_8  and  C6_12 
REMARK    4  A    between atoms: C12_18  and  C13_19 
ROOT
HETATM    1  O2  UNK     1      -1.751   1.621  -2.540  1.00  0.00    -0.267 OA
HETATM    2  N2  UNK     1      -1.668  -0.511  -1.599  1.00  0.00    -0.356 N 
HETATM    3  C12 UNK     1      -1.125   0.662  -2.093  1.00  0.00     0.257 C 
HETATM    4  H11 UNK     1      -1.064  -1.235  -1.223  1.00  0.00     0.162 HD
ENDROOT
BRANCH   2   5
HETATM    5  C6  UNK     1      -3.091  -0.759  -1.549  1.00  0.00     0.127 C 
BRANCH   5   6
HETATM    6  C2  UNK     1      -3.683  -0.279  -0.224  1.00  0.00     0.061 C 
BRANCH   6   7
HETATM    7  C1  UNK     1      -3.110  -0.996   0.975  1.00  0.00    -0.022 A 
HETATM    8  C3  UNK     1      -1.978  -0.585   1.698  1.00  0.00     0.000 A 
HETATM    9  C5  UNK     1      -1.806  -1.529   2.714  1.00  0.00     0.043 A 
HETATM   10  C7  UNK     1      -1.069   0.488   1.609  1.00  0.00     0.033 A 
HETATM   11  N1  UNK     1      -2.813  -2.458   2.578  1.00  0.00    -0.359 N 
HETATM   12  C9  UNK     1      -0.766  -1.452   3.648  1.00  0.00     0.031 A 
HETATM   13  C4  UNK     1      -3.613  -2.135   1.515  1.00  0.00     0.013 A 
HETATM   14  H3  UNK     1      -2.939  -3.260   3.180  1.00  0.00     0.166 HD
HETATM   15  C8  UNK     1      -4.771  -2.974   1.153  1.00  0.00     0.068 C 
HETATM   16  C11 UNK     1       0.122  -0.379   3.539  1.00  0.00     0.021 A 
HETATM   17  C10 UNK     1      -0.025   0.578   2.536  1.00  0.00     0.011 A 
HETATM   18 Br1  UNK     1       1.201   2.015   2.424  1.00  0.00    -0.051 Br
ENDBRANCH   6   7
ENDBRANCH   5   6
ENDBRANCH   2   5
BRANCH   3  19
HETATM   19  C13 UNK     1       0.342   0.679  -2.037  1.00  0.00     0.108 A 
HETATM   20  C15 UNK     1       0.914   1.879  -1.884  1.00  0.00     0.037 A 
HETATM   21  C14 UNK     1       2.362   1.998  -1.818  1.00  0.00    -0.001 A 
HETATM   22  C16 UNK     1       3.137   0.847  -1.914  1.00  0.00     0.089 A 
HETATM   23  C18 UNK     1       3.002   3.230  -1.660  1.00  0.00     0.014 A 
HETATM   24  O1  UNK     1       2.529  -0.414  -2.074  1.00  0.00    -0.274 OA
HETATM   25  C19 UNK     1       4.529   0.892  -1.859  1.00  0.00     0.038 A 
HETATM   26  C17 UNK     1       1.146  -0.559  -2.142  1.00  0.00     0.304 A 
HETATM   27  O3  UNK     1       0.626  -1.661  -2.281  1.00  0.00    -0.259 OA
HETATM   28  C21 UNK     1       5.159   2.125  -1.701  1.00  0.00     0.003 A 
HETATM   29  C20 UNK     1       4.397   3.291  -1.602  1.00  0.00     0.001 A 
ENDBRANCH   3  19
TORSDOF 4
