REMARK  4 active torsions:
REMARK  status: ('A' for Active; 'I' for Inactive)
REMARK    1  A    between atoms: C3_8  and  O2_2 
REMARK    2  A    between atoms: C4_9  and  O3_3 
REMARK    3  A    between atoms: C8_13  and  O4_4 
REMARK    4  A    between atoms: C10_15  and  C5_10 
ROOT
HETATM    1  O1  UNK     1       0.010   0.001   0.067  1.00  0.00    -0.309 OA
HETATM    2  O5  UNK     1       1.205  -1.041   3.820  1.00  0.00    -0.287 OA
HETATM    3  C1  UNK     1       0.821  -1.712   1.587  1.00  0.00     0.084 A 
HETATM    4  C2  UNK     1       0.402  -1.288   0.327  1.00  0.00     0.096 A 
HETATM    5  C3  UNK     1       1.209  -3.037   1.794  1.00  0.00     0.121 A 
HETATM    6  C4  UNK     1       1.176  -3.938   0.729  1.00  0.00     0.136 A 
HETATM    7  C5  UNK     1       0.024   0.918   1.107  1.00  0.00     0.090 A 
HETATM    8  C6  UNK     1       0.369  -2.190  -0.736  1.00  0.00     0.078 A 
HETATM    9  C7  UNK     1       0.846  -0.739   2.690  1.00  0.00     0.190 A 
HETATM   10  C8  UNK     1       0.756  -3.515  -0.534  1.00  0.00     0.107 A 
HETATM   11  C9  UNK     1       0.413   0.633   2.360  1.00  0.00     0.094 A 
ENDROOT
BRANCH   7  12
HETATM   12  C10 UNK     1      -0.410   2.274   0.717  1.00  0.00    -0.002 A 
HETATM   13  C11 UNK     1       0.522   3.201   0.242  1.00  0.00     0.014 A 
HETATM   14  C13 UNK     1       0.112   4.482  -0.127  1.00  0.00     0.001 A 
HETATM   15  C16 UNK     1      -1.232   4.840  -0.023  1.00  0.00     0.000 A 
HETATM   16  C14 UNK     1      -2.166   3.918   0.450  1.00  0.00     0.001 A 
HETATM   17  C12 UNK     1      -1.755   2.637   0.819  1.00  0.00     0.014 A 
ENDBRANCH   7  12
BRANCH   5  18
HETATM   18  O2  UNK     1       1.624  -3.487   3.012  1.00  0.00    -0.352 OA
HETATM   19  C15 UNK     1       0.623  -4.006   3.885  1.00  0.00     0.210 C 
ENDBRANCH   5  18
BRANCH  10  20
HETATM   20  O4  UNK     1       0.721  -4.389  -1.579  1.00  0.00    -0.353 OA
HETATM   21  C18 UNK     1       0.280  -3.877  -2.836  1.00  0.00     0.210 C 
ENDBRANCH  10  20
BRANCH   6  22
HETATM   22  O3  UNK     1       1.553  -5.235   0.917  1.00  0.00    -0.351 OA
HETATM   23  C17 UNK     1       0.576  -6.238   0.651  1.00  0.00     0.210 C 
ENDBRANCH   6  22
TORSDOF 4
