REMARK  4 active torsions:
REMARK  status: ('A' for Active; 'I' for Inactive)
REMARK    1  A    between atoms: C16_22  and  O2_2 
REMARK    2  A    between atoms: C17_23  and  O4_4 
REMARK       I    between atoms: C11_17  and  N1_6 
REMARK    3  A    between atoms: C2_8  and  N1_6 
REMARK    4  A    between atoms: C11_17  and  C12_18 
ROOT
HETATM    1  O3  UNK     1      -0.227  -0.529  -2.144  1.00  0.00    -0.267 OA
HETATM    2  N1  UNK     1       0.389   0.083   0.027  1.00  0.00    -0.322 N 
HETATM    3  C11 UNK     1       0.546   0.026  -1.368  1.00  0.00     0.256 C 
HETATM    4  H3  UNK     1       1.200   0.386   0.557  1.00  0.00     0.169 HD
ENDROOT
BRANCH   2   5
HETATM    5  C2  UNK     1      -0.641  -0.459   0.802  1.00  0.00     0.042 A 
HETATM    6  C3  UNK     1      -0.411  -0.836   2.124  1.00  0.00    -0.033 A 
HETATM    7  C7  UNK     1      -1.449  -1.371   2.880  1.00  0.00     0.047 A 
HETATM    8  C8  UNK     1       0.935  -0.677   2.753  1.00  0.00     0.050 C 
HETATM    9  C4  UNK     1      -2.708  -1.522   2.297  1.00  0.00     0.090 A 
HETATM   10  C1  UNK     1      -2.967  -1.154   0.976  1.00  0.00     0.006 A 
HETATM   11  O1  UNK     1      -3.719  -2.069   3.112  1.00  0.00    -0.275 OA
HETATM   12  C5  UNK     1      -1.909  -0.616   0.232  1.00  0.00     0.044 A 
HETATM   13  C6  UNK     1      -4.323  -1.349   0.444  1.00  0.00    -0.043 A 
HETATM   14  C10 UNK     1      -4.634  -0.964  -0.973  1.00  0.00     0.049 C 
HETATM   15  C9  UNK     1      -5.265  -1.870   1.243  1.00  0.00     0.090 A 
HETATM   16  C13 UNK     1      -5.007  -2.263   2.639  1.00  0.00     0.288 A 
HETATM   17  O5  UNK     1      -5.894  -2.738   3.340  1.00  0.00    -0.260 OA
ENDBRANCH   2   5
BRANCH   3  18
HETATM   18  C12 UNK     1       1.727   0.738  -1.887  1.00  0.00     0.035 A 
HETATM   19  C14 UNK     1       2.239   1.812  -1.176  1.00  0.00     0.056 A 
HETATM   20  C16 UNK     1       3.356   2.487  -1.669  1.00  0.00     0.102 A 
HETATM   21  C17 UNK     1       3.946   2.079  -2.865  1.00  0.00     0.101 A 
HETATM   22  C18 UNK     1       3.419   0.996  -3.569  1.00  0.00     0.040 A 
HETATM   23  C15 UNK     1       2.302   0.321  -3.077  1.00  0.00     0.020 A 
BRANCH  20  24
HETATM   24  O2  UNK     1       3.861   3.543  -0.973  1.00  0.00    -0.353 OA
HETATM   25  C19 UNK     1       4.862   3.257   0.002  1.00  0.00     0.210 C 
ENDBRANCH  20  24
BRANCH  21  26
HETATM   26  O4  UNK     1       5.038   2.730  -3.356  1.00  0.00    -0.353 OA
HETATM   27  C20 UNK     1       4.797   3.828  -4.233  1.00  0.00     0.210 C 
ENDBRANCH  21  26
ENDBRANCH   3  18
TORSDOF 4
