REMARK  5 active torsions:
REMARK  status: ('A' for Active; 'I' for Inactive)
REMARK    1  A    between atoms: C1_9  and  N1_7 
REMARK       I    between atoms: C4_12  and  N1_7 
REMARK    2  A    between atoms: C2_10  and  N2_8 
REMARK       I    between atoms: C6_14  and  N2_8 
REMARK    3  A    between atoms: C1_9  and  C2_10 
REMARK    4  A    between atoms: C4_12  and  C5_13 
REMARK    5  A    between atoms: C6_14  and  C7_15 
ROOT
HETATM    1  C1  UNK     1       1.137   0.094   3.378  1.00  0.00     0.098 C 
HETATM    2  C3  UNK     1       1.342   1.539   3.823  1.00  0.00     0.034 C 
ENDROOT
BRANCH   1   3
HETATM    3  N1  UNK     1      -0.103  -0.043   2.652  1.00  0.00    -0.351 N 
HETATM    4  C4  UNK     1      -0.875  -1.187   2.698  1.00  0.00     0.258 C 
HETATM    5  O3  UNK     1      -0.634  -2.209   3.332  1.00  0.00    -0.267 OA
HETATM    6  H4  UNK     1      -0.362   0.718   2.031  1.00  0.00     0.163 HD
BRANCH   4   7
HETATM    7  C5  UNK     1      -2.095  -1.084   1.876  1.00  0.00     0.108 A 
HETATM    8  C14 UNK     1      -2.774   0.210   1.637  1.00  0.00     0.304 A 
HETATM    9  O1  UNK     1      -3.917   0.179   0.843  1.00  0.00    -0.274 OA
HETATM   10  O5  UNK     1      -2.354   1.259   2.113  1.00  0.00    -0.259 OA
HETATM   11  C12 UNK     1      -4.406  -1.021   0.292  1.00  0.00     0.089 A 
HETATM   12  C8  UNK     1      -3.753  -2.226   0.529  1.00  0.00    -0.001 A 
HETATM   13  C18 UNK     1      -5.557  -0.952  -0.491  1.00  0.00     0.038 A 
HETATM   14  C16 UNK     1      -4.269  -3.395  -0.035  1.00  0.00     0.014 A 
HETATM   15  C9  UNK     1      -2.555  -2.227   1.355  1.00  0.00     0.037 A 
HETATM   16  C20 UNK     1      -5.423  -3.342  -0.822  1.00  0.00     0.001 A 
HETATM   17  C21 UNK     1      -6.066  -2.122  -1.049  1.00  0.00     0.003 A 
ENDBRANCH   4   7
ENDBRANCH   1   3
BRANCH   1  18
HETATM   18  C2  UNK     1       2.314  -0.445   2.563  1.00  0.00     0.147 C 
BRANCH  18  19
HETATM   19  N2  UNK     1       2.559   0.306   1.352  1.00  0.00    -0.355 N 
HETATM   20  C6  UNK     1       1.965  -0.001   0.142  1.00  0.00     0.257 C 
HETATM   21  O4  UNK     1       1.176  -0.921  -0.068  1.00  0.00    -0.267 OA
HETATM   22  H8  UNK     1       3.217   1.076   1.418  1.00  0.00     0.162 HD
BRANCH  20  23
HETATM   23  C7  UNK     1       2.368   0.907  -0.939  1.00  0.00     0.108 A 
HETATM   24  C11 UNK     1       2.385   0.388  -2.172  1.00  0.00     0.037 A 
HETATM   25  C10 UNK     1       2.771   1.210  -3.308  1.00  0.00    -0.001 A 
HETATM   26  C13 UNK     1       3.121   2.539  -3.090  1.00  0.00     0.089 A 
HETATM   27  C17 UNK     1       2.802   0.711  -4.613  1.00  0.00     0.014 A 
HETATM   28  O2  UNK     1       3.101   3.079  -1.789  1.00  0.00    -0.274 OA
HETATM   29  C19 UNK     1       3.501   3.379  -4.134  1.00  0.00     0.038 A 
HETATM   30  C15 UNK     1       2.736   2.317  -0.683  1.00  0.00     0.304 A 
HETATM   31  O6  UNK     1       2.723   2.796   0.446  1.00  0.00    -0.259 OA
HETATM   32  C23 UNK     1       3.530   2.873  -5.432  1.00  0.00     0.003 A 
HETATM   33  C22 UNK     1       3.181   1.542  -5.671  1.00  0.00     0.001 A 
ENDBRANCH  20  23
ENDBRANCH  18  19
ENDBRANCH   1  18
TORSDOF 5
