REMARK  5 active torsions:
REMARK  status: ('A' for Active; 'I' for Inactive)
REMARK    1  A    between atoms: C10_16  and  O2_3 
REMARK    2  A    between atoms: C9_15  and  O2_3 
REMARK    3  A    between atoms: C10_16  and  C3_9 
REMARK    4  A    between atoms: C12_18  and  C8_14 
REMARK    5  A    between atoms: C12_18  and  C9_15 
ROOT
HETATM    1  O4  UNK     1      -0.301  -0.534  -2.437  1.00  0.00    -0.259 OA
HETATM    2  C10 UNK     1       0.216  -0.061  -1.439  1.00  0.00     0.299 C 
ENDROOT
BRANCH   2   3
HETATM    3  O2  UNK     1      -0.240  -0.103  -0.163  1.00  0.00    -0.309 OA
BRANCH   3   4
HETATM    4  C9  UNK     1      -1.483  -0.791   0.019  1.00  0.00     0.263 C 
BRANCH   4   5
HETATM    5  C12 UNK     1      -1.881  -0.767   1.481  1.00  0.00     0.183 C 
HETATM    6  O5  UNK     1      -1.169  -0.245   2.336  1.00  0.00    -0.290 OA
BRANCH   5   7
HETATM    7  C8  UNK     1      -3.171  -1.398   1.883  1.00  0.00     0.012 A 
HETATM    8  C14 UNK     1      -3.953  -1.979   0.911  1.00  0.00     0.016 A 
HETATM    9  C16 UNK     1      -5.160  -2.570   1.287  1.00  0.00     0.019 A 
HETATM   10  C18 UNK     1      -5.552  -2.564   2.625  1.00  0.00     0.006 A 
HETATM   11  C17 UNK     1      -4.738  -1.967   3.588  1.00  0.00     0.019 A 
HETATM   12  I1  UNK     1      -7.348  -3.444   3.186  1.00  0.00    -0.045 I 
HETATM   13  C15 UNK     1      -3.531  -1.377   3.212  1.00  0.00     0.016 A 
ENDBRANCH   5   7
ENDBRANCH   4   5
ENDBRANCH   3   4
ENDBRANCH   2   3
BRANCH   2  14
HETATM   14  C3  UNK     1       1.488   0.672  -1.456  1.00  0.00     0.115 A 
HETATM   15  C4  UNK     1       1.771   1.340  -2.580  1.00  0.00     0.038 A 
HETATM   16  C1  UNK     1       3.009   2.096  -2.693  1.00  0.00    -0.001 A 
HETATM   17  C2  UNK     1       3.889   2.110  -1.615  1.00  0.00     0.089 A 
HETATM   18  C5  UNK     1       3.344   2.808  -3.847  1.00  0.00     0.014 A 
HETATM   19  O1  UNK     1       3.586   1.404  -0.435  1.00  0.00    -0.274 OA
HETATM   20  C6  UNK     1       5.091   2.813  -1.659  1.00  0.00     0.038 A 
HETATM   21  C7  UNK     1       2.410   0.672  -0.297  1.00  0.00     0.304 A 
HETATM   22  O3  UNK     1       2.155   0.060   0.734  1.00  0.00    -0.259 OA
HETATM   23  C13 UNK     1       5.418   3.521  -2.814  1.00  0.00     0.003 A 
HETATM   24  C11 UNK     1       4.547   3.519  -3.905  1.00  0.00     0.001 A 
ENDBRANCH   2  14
TORSDOF 5
