REMARK  6 active torsions:
REMARK  status: ('A' for Active; 'I' for Inactive)
REMARK    1  A    between atoms: C18_24  and  O3_3 
REMARK    2  A    between atoms: C8_14  and  O3_3 
REMARK    3  A    between atoms: C1_7  and  C2_8 
REMARK    4  A    between atoms: C1_7  and  C5_11 
REMARK    5  A    between atoms: C2_8  and  C8_14 
REMARK    6  A    between atoms: C18_24  and  C19_25 
ROOT
HETATM    1  O1  UNK     1      -1.409  -3.207   0.898  1.00  0.00    -0.291 OA
HETATM    2  O2  UNK     1      -3.146   1.172   1.566  1.00  0.00    -0.291 OA
HETATM    3  C1  UNK     1      -2.419  -0.975   0.588  1.00  0.00     0.119 A 
HETATM    4  C3  UNK     1      -1.817  -2.157   1.360  1.00  0.00     0.181 A 
HETATM    5  C4  UNK     1      -2.692   0.050   1.696  1.00  0.00     0.181 A 
HETATM    6  C6  UNK     1      -1.808  -1.824   2.787  1.00  0.00     0.025 A 
HETATM    7  C7  UNK     1      -2.316  -0.544   2.982  1.00  0.00     0.025 A 
HETATM    8  C11 UNK     1      -1.372  -2.601   3.843  1.00  0.00     0.016 A 
HETATM    9  C12 UNK     1      -2.411   0.016   4.241  1.00  0.00     0.016 A 
HETATM   10  C13 UNK     1      -1.462  -2.052   5.125  1.00  0.00     0.001 A 
HETATM   11  C14 UNK     1      -1.977  -0.756   5.323  1.00  0.00     0.001 A 
ENDROOT
BRANCH   3  12
HETATM   12  C2  UNK     1      -1.412  -0.424  -0.412  1.00  0.00     0.058 C 
BRANCH  12  13
HETATM   13  C8  UNK     1      -0.099  -0.057   0.258  1.00  0.00     0.181 C 
BRANCH  13  14
HETATM   14  O3  UNK     1       0.785   0.463  -0.726  1.00  0.00    -0.317 OA
BRANCH  14  15
HETATM   15  C18 UNK     1       2.013   0.840  -0.277  1.00  0.00     0.299 C 
HETATM   16  O5  UNK     1       2.434   0.781   0.868  1.00  0.00    -0.259 OA
BRANCH  15  17
HETATM   17  C19 UNK     1       2.799   1.351  -1.404  1.00  0.00     0.115 A 
HETATM   18  C20 UNK     1       3.707   2.290  -1.114  1.00  0.00     0.038 A 
HETATM   19  C21 UNK     1       4.535   2.859  -2.166  1.00  0.00    -0.001 A 
HETATM   20  C23 UNK     1       4.365   2.411  -3.472  1.00  0.00     0.089 A 
HETATM   21  C24 UNK     1       5.495   3.841  -1.910  1.00  0.00     0.014 A 
HETATM   22  O4  UNK     1       3.408   1.422  -3.771  1.00  0.00    -0.274 OA
HETATM   23  C25 UNK     1       5.126   2.915  -4.526  1.00  0.00     0.038 A 
HETATM   24  C22 UNK     1       2.601   0.859  -2.786  1.00  0.00     0.304 A 
HETATM   25  O6  UNK     1       1.769  -0.000  -3.055  1.00  0.00    -0.259 OA
HETATM   26  C27 UNK     1       6.081   3.894  -4.261  1.00  0.00     0.003 A 
HETATM   27  C26 UNK     1       6.266   4.356  -2.956  1.00  0.00     0.001 A 
ENDBRANCH  15  17
ENDBRANCH  14  15
ENDBRANCH  13  14
ENDBRANCH  12  13
ENDBRANCH   3  12
BRANCH   3  28
HETATM   28  C5  UNK     1      -3.689  -1.376  -0.087  1.00  0.00    -0.034 A 
HETATM   29  C10 UNK     1      -3.799  -1.285  -1.474  1.00  0.00     0.009 A 
HETATM   30  C16 UNK     1      -4.986  -1.660  -2.105  1.00  0.00     0.001 A 
HETATM   31  C17 UNK     1      -6.061  -2.126  -1.348  1.00  0.00     0.000 A 
HETATM   32  C15 UNK     1      -5.950  -2.217   0.039  1.00  0.00     0.001 A 
HETATM   33  C9  UNK     1      -4.763  -1.842   0.670  1.00  0.00     0.009 A 
ENDBRANCH   3  28
TORSDOF 6
