REMARK  6 active torsions:
REMARK  status: ('A' for Active; 'I' for Inactive)
REMARK    1  A    between atoms: C11_20  and  O2_5 
REMARK    2  A    between atoms: C22_31  and  O2_5 
REMARK    3  A    between atoms: C3_12  and  N1_9 
REMARK       I    between atoms: C8_17  and  N1_9 
REMARK    4  A    between atoms: C1_10  and  C4_13 
REMARK    5  A    between atoms: C11_20  and  C2_11 
REMARK    6  A    between atoms: C6_15  and  C8_17 
ROOT
HETATM    1  S1  UNK     1       0.495  -0.315   2.584  1.00  0.00    -0.082 SA
HETATM    2  C1  UNK     1      -1.924  -1.105   2.233  1.00  0.00    -0.000 A 
HETATM    3  C2  UNK     1      -1.449  -0.704   0.951  1.00  0.00     0.085 A 
HETATM    4  C3  UNK     1      -0.166  -0.263   1.020  1.00  0.00     0.094 A 
HETATM    5  C5  UNK     1      -0.968  -0.945   3.212  1.00  0.00     0.065 A 
ENDROOT
BRANCH   4   6
HETATM    6  N1  UNK     1       0.683   0.218   0.018  1.00  0.00    -0.316 N 
HETATM    7  C8  UNK     1       1.991   0.648   0.191  1.00  0.00     0.262 C 
HETATM    8  O3  UNK     1       2.653   0.694   1.227  1.00  0.00    -0.267 OA
HETATM    9  H2  UNK     1       0.259   0.259  -0.905  1.00  0.00     0.169 HD
BRANCH   7  10
HETATM   10  C6  UNK     1       2.593   1.091  -1.072  1.00  0.00     0.108 A 
HETATM   11  C14 UNK     1       2.196   0.513  -2.376  1.00  0.00     0.304 A 
HETATM   12  O1  UNK     1       2.840   1.015  -3.504  1.00  0.00    -0.274 OA
HETATM   13  O5  UNK     1       1.345  -0.365  -2.464  1.00  0.00    -0.259 OA
HETATM   14  C10 UNK     1       3.819   2.023  -3.414  1.00  0.00     0.089 A 
HETATM   15  C7  UNK     1       4.177   2.552  -2.178  1.00  0.00     0.001 A 
HETATM   16  C16 UNK     1       4.407   2.462  -4.599  1.00  0.00     0.040 A 
HETATM   17  C15 UNK     1       5.153   3.551  -2.130  1.00  0.00     0.038 A 
HETATM   18  C9  UNK     1       3.523   2.048  -0.981  1.00  0.00     0.037 A 
HETATM   19  C19 UNK     1       5.752   4.002  -3.310  1.00  0.00     0.035 A 
HETATM   20 Cl1  UNK     1       6.954   5.232  -3.246  1.00  0.00    -0.084 Cl
HETATM   21  C21 UNK     1       5.379   3.458  -4.542  1.00  0.00     0.026 A 
ENDBRANCH   7  10
ENDBRANCH   4   6
BRANCH   3  22
HETATM   22  C11 UNK     1      -2.206  -0.748  -0.276  1.00  0.00     0.297 C 
HETATM   23  O4  UNK     1      -1.760  -0.391  -1.376  1.00  0.00    -0.259 OA
BRANCH  22  24
HETATM   24  O2  UNK     1      -3.488  -1.228  -0.124  1.00  0.00    -0.318 OA
BRANCH  24  25
HETATM   25  C22 UNK     1      -4.297  -1.299  -1.304  1.00  0.00     0.174 C 
HETATM   26  C23 UNK     1      -5.659  -1.846  -0.937  1.00  0.00     0.034 C 
ENDBRANCH  24  25
ENDBRANCH  22  24
ENDBRANCH   3  22
BRANCH   2  27
HETATM   27  C4  UNK     1      -3.225  -1.625   2.567  1.00  0.00    -0.024 A 
HETATM   28  C12 UNK     1      -4.247  -0.752   2.931  1.00  0.00     0.014 A 
HETATM   29  C17 UNK     1      -5.507  -1.256   3.256  1.00  0.00     0.024 A 
HETATM   30  C20 UNK     1      -5.740  -2.631   3.216  1.00  0.00     0.034 A 
HETATM   31  C18 UNK     1      -4.714  -3.501   2.850  1.00  0.00     0.024 A 
HETATM   32 Cl2  UNK     1      -7.294  -3.252   3.617  1.00  0.00    -0.084 Cl
HETATM   33  C13 UNK     1      -3.454  -2.998   2.525  1.00  0.00     0.014 A 
ENDBRANCH   2  27
TORSDOF 6
