REMARK  4 active torsions:
REMARK  status: ('A' for Active; 'I' for Inactive)
REMARK    1  A    between atoms: C6_11  and  O2_2 
REMARK    2  A    between atoms: C9_14  and  O3_3 
REMARK    3  A    between atoms: C5_10  and  O4_4 
REMARK    4  A    between atoms: C1_6  and  C2_7 
ROOT
HETATM    1  O1  UNK     1      -1.432  -0.179  -0.554  1.00  0.00    -0.306 OA
HETATM    2  O5  UNK     1      -1.441   0.199   3.504  1.00  0.00    -0.284 OA
HETATM    3  C2  UNK     1      -0.587   0.710   0.092  1.00  0.00     0.126 A 
HETATM    4  C3  UNK     1      -2.322  -0.871   1.596  1.00  0.00     0.051 A 
HETATM    5  C4  UNK     1      -2.273  -0.950   0.206  1.00  0.00     0.090 A 
HETATM    6  C5  UNK     1      -0.543   0.890   1.424  1.00  0.00     0.152 A 
HETATM    7  C7  UNK     1      -1.438   0.080   2.285  1.00  0.00     0.220 A 
HETATM    8  C10 UNK     1      -3.201  -1.682   2.318  1.00  0.00     0.018 A 
HETATM    9  C11 UNK     1      -3.104  -1.843  -0.472  1.00  0.00     0.038 A 
HETATM   10  C14 UNK     1      -4.030  -2.575   1.637  1.00  0.00     0.001 A 
HETATM   11  C15 UNK     1      -3.982  -2.655   0.245  1.00  0.00     0.003 A 
ENDROOT
BRANCH   3  12
HETATM   12  C1  UNK     1       0.261   1.476  -0.839  1.00  0.00     0.037 A 
HETATM   13  C6  UNK     1       1.526   1.015  -1.212  1.00  0.00     0.114 A 
HETATM   14  C9  UNK     1       2.309   1.759  -2.095  1.00  0.00     0.102 A 
HETATM   15  C13 UNK     1       1.829   2.965  -2.607  1.00  0.00     0.040 A 
HETATM   16  C12 UNK     1       0.566   3.427  -2.236  1.00  0.00     0.004 A 
HETATM   17  C8  UNK     1      -0.217   2.683  -1.353  1.00  0.00     0.017 A 
BRANCH  13  18
HETATM   18  O2  UNK     1       2.007  -0.163  -0.719  1.00  0.00    -0.352 OA
HETATM   19  C16 UNK     1       3.217  -0.102   0.031  1.00  0.00     0.210 C 
ENDBRANCH  13  18
BRANCH  14  20
HETATM   20  O3  UNK     1       3.543   1.320  -2.467  1.00  0.00    -0.353 OA
HETATM   21  C17 UNK     1       3.615   0.490  -3.624  1.00  0.00     0.210 C 
ENDBRANCH  14  20
ENDBRANCH   3  12
BRANCH   6  22
HETATM   22  O4  UNK     1       0.287   1.807   2.033  1.00  0.00    -0.355 OA
HETATM   23  H8  UNK     1       0.819   2.266   1.363  1.00  0.00     0.218 HD
ENDBRANCH   6  22
TORSDOF 4
