REMARK  3 active torsions:
REMARK  status: ('A' for Active; 'I' for Inactive)
REMARK    1  A    between atoms: C5_10  and  N1_5 
REMARK       I    between atoms: C6_11  and  N1_5 
REMARK    2  A    between atoms: C1_6  and  C5_10 
REMARK    3  A    between atoms: C6_11  and  C7_12 
ROOT
HETATM    1  O2  UNK     1       2.197   1.232   0.375  1.00  0.00    -0.274 OA
HETATM    2  O4  UNK     1       0.424   0.414   1.561  1.00  0.00    -0.259 OA
HETATM    3  C7  UNK     1       0.215   0.410  -0.799  1.00  0.00     0.108 A 
HETATM    4  C8  UNK     1       0.766   0.694  -1.985  1.00  0.00     0.037 A 
HETATM    5  C9  UNK     1       2.097   1.277  -2.054  1.00  0.00    -0.001 A 
HETATM    6  C10 UNK     1       2.782   1.533  -0.871  1.00  0.00     0.089 A 
HETATM    7  C11 UNK     1       0.925   0.674   0.473  1.00  0.00     0.304 A 
HETATM    8  C12 UNK     1       2.711   1.590  -3.269  1.00  0.00     0.014 A 
HETATM    9  C13 UNK     1       4.059   2.090  -0.868  1.00  0.00     0.038 A 
HETATM   10  C14 UNK     1       3.992   2.150  -3.282  1.00  0.00     0.001 A 
HETATM   11  C15 UNK     1       4.664   2.399  -2.084  1.00  0.00     0.003 A 
ENDROOT
BRANCH   3  12
HETATM   12  C6  UNK     1      -1.130  -0.177  -0.833  1.00  0.00     0.257 C 
HETATM   13  O3  UNK     1      -1.491  -0.874  -1.779  1.00  0.00    -0.267 OA
HETATM   14  N1  UNK     1      -1.886   0.148   0.279  1.00  0.00    -0.354 N 
HETATM   15  H10 UNK     1      -1.503   0.751   1.000  1.00  0.00     0.162 HD
BRANCH  14  16
HETATM   16  C5  UNK     1      -3.244  -0.311   0.469  1.00  0.00     0.155 C 
BRANCH  16  17
HETATM   17  C1  UNK     1      -3.248  -1.635   1.207  1.00  0.00     0.139 C 
HETATM   18  O1  UNK     1      -2.663  -1.470   2.510  1.00  0.00    -0.384 OA
HETATM   19  C4  UNK     1      -3.444  -2.217   3.456  1.00  0.00     0.168 C 
HETATM   20  C3  UNK     1      -4.422  -3.053   2.659  1.00  0.00     0.029 C 
HETATM   21  C2  UNK     1      -4.641  -2.196   1.437  1.00  0.00     0.035 C 
ENDBRANCH  16  17
ENDBRANCH  14  16
ENDBRANCH   3  12
TORSDOF 3
