REMARK  3 active torsions:
REMARK  status: ('A' for Active; 'I' for Inactive)
REMARK    1  A    between atoms: C9_13  and  O2_2 
REMARK    2  A    between atoms: C10_14  and  O3_3 
REMARK    3  A    between atoms: C3_7  and  C4_8 
ROOT
HETATM    1  O1  UNK     1       0.046  -0.848   1.723  1.00  0.00    -0.309 OA
HETATM    2  O4  UNK     1       0.471  -2.653  -1.905  1.00  0.00    -0.287 OA
HETATM    3  C1  UNK     1       0.609  -2.837   0.447  1.00  0.00     0.051 A 
HETATM    4  C2  UNK     1       0.446  -2.159   1.654  1.00  0.00     0.090 A 
HETATM    5  C3  UNK     1      -0.215  -0.174   0.540  1.00  0.00     0.093 A 
HETATM    6  C5  UNK     1       0.343  -2.122  -0.810  1.00  0.00     0.187 A 
HETATM    7  C6  UNK     1      -0.088  -0.715  -0.682  1.00  0.00     0.094 A 
HETATM    8  C7  UNK     1       1.020  -4.172   0.437  1.00  0.00     0.055 A 
HETATM    9  C8  UNK     1       0.694  -2.813   2.861  1.00  0.00     0.041 A 
HETATM   10  C10 UNK     1       1.267  -4.824   1.646  1.00  0.00     0.069 A 
HETATM   11  C12 UNK     1       1.104  -4.147   2.855  1.00  0.00     0.039 A 
ENDROOT
BRANCH   5  12
HETATM   12  C4  UNK     1      -0.634   1.229   0.729  1.00  0.00     0.031 A 
HETATM   13  C11 UNK     1      -1.995   1.524   0.851  1.00  0.00     0.017 A 
HETATM   14  C14 UNK     1      -2.414   2.843   1.030  1.00  0.00     0.001 A 
HETATM   15  C15 UNK     1      -1.475   3.872   1.088  1.00  0.00     0.003 A 
HETATM   16  C13 UNK     1      -0.116   3.583   0.967  1.00  0.00     0.038 A 
HETATM   17  C9  UNK     1       0.304   2.265   0.788  1.00  0.00     0.081 A 
BRANCH  17  18
HETATM   18  O2  UNK     1       1.639   2.010   0.672  1.00  0.00    -0.355 OA
HETATM   19  C16 UNK     1       2.519   3.129   0.744  1.00  0.00     0.210 C 
ENDBRANCH  17  18
ENDBRANCH   5  12
BRANCH  10  20
HETATM   20  O3  UNK     1       1.668  -6.125   1.646  1.00  0.00    -0.356 OA
HETATM   21  C17 UNK     1       1.815  -6.759   0.376  1.00  0.00     0.210 C 
ENDBRANCH  10  20
TORSDOF 3
