REMARK  6 active torsions:
REMARK  status: ('A' for Active; 'I' for Inactive)
REMARK    1  A    between atoms: C1_5  and  O1_1 
REMARK    2  A    between atoms: C9_13  and  O1_1 
REMARK    3  A    between atoms: C3_7  and  C5_9 
REMARK    4  A    between atoms: C3_7  and  C7_11 
REMARK    5  A    between atoms: C14_18  and  C7_11 
REMARK    6  A    between atoms: C11_15  and  C9_13 
ROOT
HETATM    1  O2  UNK     1      -2.288  -2.922   2.996  1.00  0.00    -0.322 OA
HETATM    2  O3  UNK     1      -3.505  -1.085  -1.311  1.00  0.00    -0.275 OA
HETATM    3  O4  UNK     1      -4.008  -0.139  -3.335  1.00  0.00    -0.260 OA
HETATM    4  C1  UNK     1      -1.058  -0.038   1.283  1.00  0.00     0.095 A 
HETATM    5  C2  UNK     1      -1.273  -1.052   2.236  1.00  0.00     0.034 A 
HETATM    6  C4  UNK     1      -1.807  -0.051   0.097  1.00  0.00     0.033 A 
HETATM    7  C6  UNK     1      -2.222  -2.033   1.965  1.00  0.00     0.090 A 
HETATM    8  C8  UNK     1      -2.744  -1.061  -0.118  1.00  0.00     0.095 A 
HETATM    9  C10 UNK     1      -2.987  -2.085   0.802  1.00  0.00     0.076 A 
HETATM   10  C12 UNK     1      -0.738  -1.375   3.511  1.00  0.00     0.041 A 
HETATM   11  C13 UNK     1      -1.630   0.969  -0.925  1.00  0.00     0.023 A 
HETATM   12  C16 UNK     1      -1.386  -2.515   3.927  1.00  0.00     0.143 A 
HETATM   13  C18 UNK     1      -2.354   0.936  -2.046  1.00  0.00     0.083 A 
HETATM   14  C19 UNK     1      -3.351  -0.119  -2.300  1.00  0.00     0.288 A 
ENDROOT
BRANCH   4  15
HETATM   15  O1  UNK     1      -0.130   0.941   1.523  1.00  0.00    -0.346 OA
BRANCH  15  16
HETATM   16  C9  UNK     1       1.197   0.689   1.080  1.00  0.00     0.203 C 
BRANCH  16  17
HETATM   17  C11 UNK     1       2.056   1.853   1.461  1.00  0.00     0.002 C 
HETATM   18  C5  UNK     1       2.788   2.643   0.651  1.00  0.00    -0.085 C 
HETATM   19  C15 UNK     1       3.606   3.767   1.233  1.00  0.00     0.043 C 
BRANCH  18  20
HETATM   20  C3  UNK     1       2.844   2.521  -0.858  1.00  0.00     0.037 C 
BRANCH  20  21
HETATM   21  C7  UNK     1       3.936   1.569  -1.361  1.00  0.00     0.031 C 
BRANCH  21  22
HETATM   22  C14 UNK     1       3.959   1.456  -2.860  1.00  0.00    -0.024 C 
HETATM   23  C17 UNK     1       3.374   0.522  -3.633  1.00  0.00    -0.091 C 
HETATM   24  C20 UNK     1       3.519   0.575  -5.131  1.00  0.00     0.042 C 
HETATM   25  C21 UNK     1       2.534  -0.619  -3.133  1.00  0.00     0.042 C 
ENDBRANCH  21  22
ENDBRANCH  20  21
ENDBRANCH  18  20
ENDBRANCH  16  17
ENDBRANCH  15  16
ENDBRANCH   4  15
TORSDOF 6
