REMARK  6 active torsions:
REMARK  status: ('A' for Active; 'I' for Inactive)
REMARK    1  A    between atoms: C6_14  and  S1_1 
REMARK    2  A    between atoms: N2_8  and  S1_1 
REMARK       I    between atoms: C10_18  and  N1_7 
REMARK    3  A    between atoms: C3_11  and  N1_7 
REMARK    4  A    between atoms: C1_9  and  C2_10 
REMARK    5  A    between atoms: C1_9  and  C3_11 
REMARK    6  A    between atoms: C10_18  and  C9_17 
ROOT
HETATM    1  O2  UNK     1       2.311   1.910   1.999  1.00  0.00    -0.267 OA
HETATM    2  N1  UNK     1       1.213  -0.123   1.689  1.00  0.00    -0.356 N 
HETATM    3  C10 UNK     1       1.928   0.988   1.281  1.00  0.00     0.257 C 
HETATM    4  H7  UNK     1       0.917  -0.817   1.010  1.00  0.00     0.162 HD
ENDROOT
BRANCH   2   5
HETATM    5  C3  UNK     1       0.813  -0.343   3.060  1.00  0.00     0.127 C 
BRANCH   5   6
HETATM    6  C1  UNK     1      -0.556   0.257   3.375  1.00  0.00     0.058 C 
BRANCH   6   7
HETATM    7  C2  UNK     1      -1.664  -0.338   2.541  1.00  0.00    -0.057 A 
HETATM    8  C4  UNK     1      -1.987   0.243   1.325  1.00  0.00     0.009 A 
HETATM    9  C7  UNK     1      -3.013  -0.306   0.555  1.00  0.00     0.026 A 
HETATM   10  C6  UNK     1      -3.703  -1.429   1.012  1.00  0.00     0.079 A 
HETATM   11  C8  UNK     1      -3.367  -2.003   2.238  1.00  0.00     0.026 A 
HETATM   12  C5  UNK     1      -2.342  -1.454   3.008  1.00  0.00     0.009 A 
BRANCH  10  13
HETATM   13  S1  UNK     1      -4.987  -2.115   0.049  1.00  0.00     0.256 S 
HETATM   14  O3  UNK     1      -5.885  -2.844   0.934  1.00  0.00    -0.201 OA
HETATM   15  O4  UNK     1      -5.517  -1.077  -0.824  1.00  0.00    -0.201 OA
BRANCH  13  16
HETATM   16  N2  UNK     1      -4.117  -3.239  -0.900  1.00  0.00    -0.324 N 
HETATM   17  H15 UNK     1      -4.251  -4.237  -0.699  1.00  0.00     0.169 HD
HETATM   18  H16 UNK     1      -3.998  -3.028  -1.899  1.00  0.00     0.169 HD
ENDBRANCH  13  16
ENDBRANCH  10  13
ENDBRANCH   6   7
ENDBRANCH   5   6
ENDBRANCH   2   5
BRANCH   3  19
HETATM   19  C9  UNK     1       2.217   0.985  -0.158  1.00  0.00     0.108 A 
HETATM   20  C12 UNK     1       2.318   2.184  -0.744  1.00  0.00     0.037 A 
HETATM   21  C11 UNK     1       2.601   2.283  -2.167  1.00  0.00    -0.001 A 
HETATM   22  C13 UNK     1       2.765   1.114  -2.904  1.00  0.00     0.089 A 
HETATM   23  C15 UNK     1       2.715   3.512  -2.820  1.00  0.00     0.014 A 
HETATM   24  O1  UNK     1       2.659  -0.145  -2.281  1.00  0.00    -0.274 OA
HETATM   25  C16 UNK     1       3.038   1.140  -4.270  1.00  0.00     0.038 A 
HETATM   26  C14 UNK     1       2.388  -0.272  -0.922  1.00  0.00     0.304 A 
HETATM   27  O5  UNK     1       2.296  -1.372  -0.388  1.00  0.00    -0.259 OA
HETATM   28  C18 UNK     1       3.150   2.370  -4.914  1.00  0.00     0.003 A 
HETATM   29  C17 UNK     1       2.989   3.554  -4.191  1.00  0.00     0.001 A 
ENDBRANCH   3  19
TORSDOF 6
