REMARK  3 active torsions:
REMARK  status: ('A' for Active; 'I' for Inactive)
REMARK    1  A    between atoms: C1_8  and  N1_6 
REMARK       I    between atoms: C8_15  and  N1_6 
REMARK    2  A    between atoms: C10_17  and  N2_7 
REMARK    3  A    between atoms: C4_11  and  C8_15 
ROOT
HETATM    1  O2  UNK     1      -0.893  -0.534  -1.507  1.00  0.00    -0.267 OA
HETATM    2  N1  UNK     1      -0.445  -0.077   0.759  1.00  0.00    -0.322 N 
HETATM    3  C8  UNK     1      -0.189  -0.082  -0.605  1.00  0.00     0.262 C 
HETATM    4  H2  UNK     1       0.242   0.364   1.363  1.00  0.00     0.169 HD
ENDROOT
BRANCH   3   5
HETATM    5  C4  UNK     1       1.096   0.548  -0.930  1.00  0.00     0.108 A 
HETATM    6  C11 UNK     1       2.242   0.524   0.007  1.00  0.00     0.304 A 
HETATM    7  O1  UNK     1       3.408   1.155  -0.415  1.00  0.00    -0.274 OA
HETATM    8  O3  UNK     1       2.173  -0.026   1.101  1.00  0.00    -0.259 OA
HETATM    9  C5  UNK     1       3.499   1.788  -1.670  1.00  0.00     0.089 A 
HETATM   10  C15 UNK     1       4.708   2.393  -2.005  1.00  0.00     0.038 A 
HETATM   11  C3  UNK     1       2.409   1.799  -2.536  1.00  0.00    -0.001 A 
HETATM   12  C17 UNK     1       4.828   3.027  -3.239  1.00  0.00     0.003 A 
HETATM   13  C16 UNK     1       3.745   3.049  -4.121  1.00  0.00     0.001 A 
HETATM   14  C13 UNK     1       2.538   2.437  -3.772  1.00  0.00     0.014 A 
HETATM   15  C6  UNK     1       1.176   1.147  -2.124  1.00  0.00     0.037 A 
ENDBRANCH   3   5
BRANCH   2  16
HETATM   16  C1  UNK     1      -1.582  -0.594   1.427  1.00  0.00     0.043 A 
HETATM   17  C2  UNK     1      -1.679  -0.506   2.806  1.00  0.00    -0.035 A 
HETATM   18  C14 UNK     1      -0.608   0.128   3.632  1.00  0.00     0.050 C 
HETATM   19  C9  UNK     1      -2.806  -1.021   3.446  1.00  0.00     0.011 A 
HETATM   20  C12 UNK     1      -3.821  -1.618   2.697  1.00  0.00     0.037 A 
HETATM   21  C10 UNK     1      -3.709  -1.700   1.309  1.00  0.00     0.105 A 
HETATM   22  C7  UNK     1      -2.581  -1.184   0.670  1.00  0.00     0.066 A 
BRANCH  21  23
HETATM   23  N2  UNK     1      -4.742  -2.307   0.548  1.00  0.00    -0.116 N 
HETATM   24  O4  UNK     1      -5.747  -2.764   1.144  1.00  0.00    -0.532 OA
HETATM   25  O5  UNK     1      -4.622  -2.370  -0.699  1.00  0.00    -0.532 OA
ENDBRANCH  21  23
ENDBRANCH   2  16
TORSDOF 3
