REMARK  5 active torsions:
REMARK  status: ('A' for Active; 'I' for Inactive)
REMARK       I    between atoms: C10_17  and  N1_6 
REMARK    1  A    between atoms: C3_10  and  N1_6 
REMARK       I    between atoms: C11_18  and  N2_7 
REMARK    2  A    between atoms: C6_13  and  N2_7 
REMARK    3  A    between atoms: C10_17  and  C2_9 
REMARK    4  A    between atoms: C11_18  and  C4_11 
REMARK    5  A    between atoms: C6_13  and  C9_16 
ROOT
HETATM    1  C3  UNK     1      -1.022  -0.115  -1.293  1.00  0.00     0.035 A 
HETATM    2  C4  UNK     1      -2.643  -1.609  -0.350  1.00  0.00     0.034 A 
HETATM    3  C8  UNK     1      -1.372  -1.036  -0.320  1.00  0.00     0.046 A 
HETATM    4  C13 UNK     1      -1.905   0.249  -2.296  1.00  0.00     0.029 A 
HETATM    5  C14 UNK     1      -3.545  -1.254  -1.353  1.00  0.00     0.017 A 
HETATM    6  C17 UNK     1      -3.176  -0.325  -2.325  1.00  0.00     0.003 A 
ENDROOT
BRANCH   1   7
HETATM    7  N1  UNK     1       0.268   0.468  -1.262  1.00  0.00    -0.323 N 
HETATM    8  C10 UNK     1       0.796   1.402  -2.143  1.00  0.00     0.262 C 
HETATM    9  O2  UNK     1       0.256   1.911  -3.124  1.00  0.00    -0.267 OA
HETATM   10  H5  UNK     1       0.858   0.129  -0.507  1.00  0.00     0.169 HD
BRANCH   8  11
HETATM   11  C2  UNK     1       2.171   1.779  -1.792  1.00  0.00     0.108 A 
HETATM   12  C15 UNK     1       2.655   1.770  -0.393  1.00  0.00     0.304 A 
HETATM   13  O1  UNK     1       3.979   2.148  -0.187  1.00  0.00    -0.274 OA
HETATM   14  O4  UNK     1       1.930   1.445   0.541  1.00  0.00    -0.259 OA
HETATM   15  C5  UNK     1       4.820   2.521  -1.254  1.00  0.00     0.089 A 
HETATM   16  C1  UNK     1       4.344   2.524  -2.561  1.00  0.00     0.001 A 
HETATM   17  C16 UNK     1       6.130   2.883  -0.949  1.00  0.00     0.040 A 
HETATM   18  C7  UNK     1       2.965   2.134  -2.809  1.00  0.00     0.037 A 
HETATM   19  C12 UNK     1       5.209   2.901  -3.592  1.00  0.00     0.038 A 
HETATM   20  C18 UNK     1       6.526   3.267  -3.302  1.00  0.00     0.035 A 
HETATM   21  C19 UNK     1       6.985   3.258  -1.983  1.00  0.00     0.026 A 
HETATM   22 Cl1  UNK     1       7.588   3.731  -4.575  1.00  0.00    -0.084 Cl
ENDBRANCH   8  11
ENDBRANCH   1   7
BRANCH   2  23
HETATM   23  C11 UNK     1      -3.028  -2.578   0.664  1.00  0.00     0.252 C 
HETATM   24  O3  UNK     1      -2.192  -3.266   1.265  1.00  0.00    -0.268 OA
HETATM   25  N2  UNK     1      -4.394  -2.666   0.941  1.00  0.00    -0.353 N 
HETATM   26  H6  UNK     1      -5.054  -2.035   0.499  1.00  0.00     0.163 HD
BRANCH  25  27
HETATM   27  C6  UNK     1      -4.931  -3.559   1.943  1.00  0.00     0.161 C 
BRANCH  27  28
HETATM   28  C9  UNK     1      -5.009  -2.907   3.293  1.00  0.00    -0.041 A 
HETATM   29  C20 UNK     1      -3.929  -2.998   4.164  1.00  0.00     0.009 A 
HETATM   30  C22 UNK     1      -4.001  -2.392   5.418  1.00  0.00     0.001 A 
HETATM   31  C24 UNK     1      -5.153  -1.700   5.794  1.00  0.00     0.000 A 
HETATM   32  C23 UNK     1      -6.232  -1.615   4.915  1.00  0.00     0.001 A 
HETATM   33  C21 UNK     1      -6.160  -2.220   3.660  1.00  0.00     0.009 A 
ENDBRANCH  27  28
ENDBRANCH  25  27
ENDBRANCH   2  23
TORSDOF 5
