REMARK  2 active torsions:
REMARK  status: ('A' for Active; 'I' for Inactive)
REMARK       I    between atoms: C10_16  and  N2_6 
REMARK    1  A    between atoms: C3_9  and  N2_6 
REMARK    2  A    between atoms: C10_16  and  C11_17 
ROOT
HETATM    1  O1  UNK     1       0.966  -1.257   0.875  1.00  0.00    -0.267 OA
HETATM    2  N2  UNK     1      -1.040  -0.415   0.038  1.00  0.00    -0.352 N 
HETATM    3  C10 UNK     1       0.333  -0.543   0.105  1.00  0.00     0.258 C 
HETATM    4  H19 UNK     1      -1.455   0.265  -0.592  1.00  0.00     0.163 HD
ENDROOT
BRANCH   3   5
HETATM    5  C11 UNK     1       1.031   0.295  -0.887  1.00  0.00     0.108 A 
HETATM    6  C12 UNK     1       2.249   0.730  -0.542  1.00  0.00     0.037 A 
HETATM    7  C14 UNK     1       3.016   1.564  -1.455  1.00  0.00     0.000 A 
HETATM    8  C15 UNK     1       2.463   1.898  -2.687  1.00  0.00     0.089 A 
HETATM    9  C16 UNK     1       4.290   2.040  -1.136  1.00  0.00     0.033 A 
HETATM   10  O2  UNK     1       1.181   1.436  -3.045  1.00  0.00    -0.274 OA
HETATM   11  C17 UNK     1       3.145   2.693  -3.606  1.00  0.00     0.039 A 
HETATM   12  C13 UNK     1       0.423   0.638  -2.192  1.00  0.00     0.304 A 
HETATM   13  O3  UNK     1      -0.692   0.241  -2.512  1.00  0.00    -0.259 OA
HETATM   14  C19 UNK     1       4.415   3.164  -3.280  1.00  0.00     0.022 A 
HETATM   15  C18 UNK     1       4.986   2.839  -2.049  1.00  0.00     0.011 A 
HETATM   16 Br1  UNK     1       6.711   3.481  -1.613  1.00  0.00    -0.051 Br
ENDBRANCH   3   5
BRANCH   2  17
HETATM   17  C3  UNK     1      -1.937  -1.139   0.908  1.00  0.00     0.089 C 
HETATM   18  C4  UNK     1      -2.202  -0.344   2.186  1.00  0.00     0.066 C 
HETATM   19  C1  UNK     1      -3.208  -1.039   3.126  1.00  0.00     0.153 C 
HETATM   20  N1  UNK     1      -4.434  -1.457   2.418  1.00  0.00     0.101 N 
HETATM   21  C6  UNK     1      -2.552  -2.212   3.877  1.00  0.00     0.048 C 
HETATM   22  C7  UNK     1      -3.649  -0.017   4.200  1.00  0.00     0.048 C 
HETATM   23  C2  UNK     1      -4.285  -2.133   1.115  1.00  0.00     0.153 C 
HETATM   24  H6  UNK     1      -5.034  -2.002   3.036  1.00  0.00     0.317 HD
HETATM   25  C5  UNK     1      -3.264  -1.421   0.204  1.00  0.00     0.066 C 
HETATM   26  C8  UNK     1      -5.670  -2.069   0.428  1.00  0.00     0.048 C 
HETATM   27  C9  UNK     1      -3.945  -3.625   1.279  1.00  0.00     0.048 C 
ENDBRANCH   2  17
TORSDOF 2
