REMARK  8 active torsions:
REMARK  status: ('A' for Active; 'I' for Inactive)
REMARK       I    between atoms: C5_12  and  N1_5 
REMARK    1  A    between atoms: N1_5  and  N2_6 
REMARK    2  A    between atoms: C24_31  and  N2_6 
REMARK    3  A    between atoms: C19_26  and  N3_7 
REMARK    4  A    between atoms: C24_31  and  N3_7 
REMARK    5  A    between atoms: C1_8  and  C2_9 
REMARK    6  A    between atoms: C1_8  and  C3_10 
REMARK    7  A    between atoms: C1_8  and  C4_11 
REMARK    8  A    between atoms: C2_9  and  C5_12 
ROOT
HETATM    1  O1  UNK     1       0.468   1.388  -0.301  1.00  0.00    -0.272 OA
HETATM    2  N1  UNK     1       0.964  -0.868  -0.531  1.00  0.00    -0.268 N 
HETATM    3  C5  UNK     1       1.273   0.476  -0.481  1.00  0.00     0.237 C 
HETATM    4  H12 UNK     1       1.651  -1.605  -0.659  1.00  0.00     0.190 HD
ENDROOT
BRANCH   2   5
HETATM    5  N2  UNK     1      -0.347  -1.256  -0.369  1.00  0.00    -0.274 N 
HETATM    6  H18 UNK     1      -0.908  -0.672   0.242  1.00  0.00     0.189 HD
BRANCH   5   7
HETATM    7  C24 UNK     1      -0.892  -2.294  -1.091  1.00  0.00     0.191 C 
HETATM    8  S1  UNK     1      -0.024  -3.293  -2.138  1.00  0.00    -0.039 SA
BRANCH   7   9
HETATM    9  N3  UNK     1      -2.270  -2.485  -0.984  1.00  0.00    -0.332 N 
HETATM   10  H19 UNK     1      -2.702  -2.876  -1.818  1.00  0.00     0.168 HD
BRANCH   9  11
HETATM   11  C19 UNK     1      -3.161  -2.264   0.067  1.00  0.00     0.037 A 
HETATM   12  C20 UNK     1      -2.719  -2.336   1.384  1.00  0.00     0.067 A 
HETATM   13  C17 UNK     1      -3.627  -2.110   2.420  1.00  0.00     0.092 A 
HETATM   14  C14 UNK     1      -4.970  -1.813   2.183  1.00  0.00     0.004 A 
HETATM   15  O2  UNK     1      -3.120  -2.196   3.732  1.00  0.00    -0.275 OA
HETATM   16  C18 UNK     1      -5.855  -1.590   3.334  1.00  0.00    -0.043 A 
HETATM   17  C21 UNK     1      -5.395  -1.745   0.849  1.00  0.00     0.017 A 
HETATM   18  C23 UNK     1      -5.345  -1.679   4.571  1.00  0.00     0.090 A 
HETATM   19  C25 UNK     1      -7.304  -1.269   3.113  1.00  0.00     0.049 C 
HETATM   20  C26 UNK     1      -3.931  -1.991   4.837  1.00  0.00     0.288 A 
HETATM   21  O3  UNK     1      -3.501  -2.064   5.983  1.00  0.00    -0.260 OA
HETATM   22  C22 UNK     1      -4.497  -1.969  -0.200  1.00  0.00     0.030 A 
ENDBRANCH   9  11
ENDBRANCH   7   9
ENDBRANCH   5   7
ENDBRANCH   2   5
BRANCH   3  23
HETATM   23  C2  UNK     1       2.756   0.747  -0.664  1.00  0.00     0.118 C 
BRANCH  23  24
HETATM   24  C1  UNK     1       3.027   2.161  -1.228  1.00  0.00     0.060 C 
BRANCH  24  25
HETATM   25  C3  UNK     1       2.423   2.395  -2.608  1.00  0.00    -0.049 A 
HETATM   26  C6  UNK     1       2.287   1.323  -3.464  1.00  0.00     0.008 A 
HETATM   27  C10 UNK     1       1.735   1.537  -4.727  1.00  0.00     0.001 A 
HETATM   28  C15 UNK     1       1.331   2.818  -5.104  1.00  0.00     0.000 A 
HETATM   29  C12 UNK     1       1.480   3.885  -4.218  1.00  0.00     0.001 A 
HETATM   30  C8  UNK     1       2.033   3.671  -2.955  1.00  0.00     0.008 A 
ENDBRANCH  24  25
BRANCH  24  31
HETATM   31  C4  UNK     1       4.504   2.536  -1.197  1.00  0.00    -0.049 A 
HETATM   32  C7  UNK     1       5.446   1.537  -1.314  1.00  0.00     0.008 A 
HETATM   33  C11 UNK     1       6.798   1.880  -1.286  1.00  0.00     0.001 A 
HETATM   34  C16 UNK     1       7.176   3.215  -1.141  1.00  0.00     0.000 A 
HETATM   35  C13 UNK     1       6.201   4.207  -1.025  1.00  0.00     0.001 A 
HETATM   36  C9  UNK     1       4.850   3.863  -1.053  1.00  0.00     0.008 A 
ENDBRANCH  24  31
ENDBRANCH  23  24
ENDBRANCH   3  23
TORSDOF 8
