REMARK  3 active torsions:
REMARK  status: ('A' for Active; 'I' for Inactive)
REMARK    1  A    between atoms: C6_15  and  S1_1 
REMARK    2  A    between atoms: N1_8  and  S1_1 
REMARK       I    between atoms: C5_14  and  N2_9 
REMARK    3  A    between atoms: C5_14  and  C7_16 
ROOT
HETATM    1  O3  UNK     1       0.144  -0.355  -3.737  1.00  0.00    -0.267 OA
HETATM    2  N1  UNK     1      -2.591  -1.316   0.262  1.00  0.00    -0.203 NA
HETATM    3  N2  UNK     1      -0.444  -0.710  -1.515  1.00  0.00    -0.345 N 
HETATM    4  C1  UNK     1      -2.768  -1.484  -1.210  1.00  0.00     0.127 C 
HETATM    5  C2  UNK     1      -1.662  -0.190   0.574  1.00  0.00     0.127 C 
HETATM    6  C3  UNK     1      -1.412  -1.758  -1.848  1.00  0.00     0.141 C 
HETATM    7  C4  UNK     1      -0.304  -0.448  -0.075  1.00  0.00     0.141 C 
HETATM    8  C5  UNK     1       0.287  -0.112  -2.538  1.00  0.00     0.260 C 
ENDROOT
BRANCH   8   9
HETATM    9  C7  UNK     1       1.313   0.881  -2.161  1.00  0.00     0.108 A 
HETATM   10  C10 UNK     1       1.002   2.323  -2.037  1.00  0.00     0.304 A 
HETATM   11  O4  UNK     1       2.054   3.160  -1.673  1.00  0.00    -0.274 OA
HETATM   12  O5  UNK     1      -0.123   2.764  -2.242  1.00  0.00    -0.259 OA
HETATM   13  C13 UNK     1       3.350   2.664  -1.435  1.00  0.00     0.089 A 
HETATM   14  C11 UNK     1       3.621   1.305  -1.557  1.00  0.00    -0.001 A 
HETATM   15  C16 UNK     1       4.338   3.580  -1.077  1.00  0.00     0.038 A 
HETATM   16  C9  UNK     1       2.543   0.404  -1.935  1.00  0.00     0.037 A 
HETATM   17  C15 UNK     1       4.919   0.852  -1.313  1.00  0.00     0.014 A 
HETATM   18  C17 UNK     1       5.921   1.758  -0.953  1.00  0.00     0.001 A 
HETATM   19  C18 UNK     1       5.630   3.119  -0.835  1.00  0.00     0.003 A 
ENDBRANCH   8   9
BRANCH   2  20
HETATM   20  S1  UNK     1      -4.035  -1.351   1.184  1.00  0.00     0.250 S 
HETATM   21  O1  UNK     1      -4.749  -2.576   0.894  1.00  0.00    -0.205 OA
HETATM   22  O2  UNK     1      -4.688  -0.064   1.082  1.00  0.00    -0.205 OA
BRANCH  20  23
HETATM   23  C6  UNK     1      -3.359  -1.491   2.809  1.00  0.00     0.115 A 
HETATM   24  S2  UNK     1      -2.632  -3.001   3.148  1.00  0.00    -0.089 SA
HETATM   25  C14 UNK     1      -2.224  -2.501   4.735  1.00  0.00     0.051 A 
HETATM   26  C12 UNK     1      -2.637  -1.212   4.993  1.00  0.00     0.009 A 
HETATM   27  C8  UNK     1      -3.296  -0.627   3.873  1.00  0.00     0.033 A 
ENDBRANCH  20  23
ENDBRANCH   2  20
TORSDOF 3
