REMARK  4 active torsions:
REMARK  status: ('A' for Active; 'I' for Inactive)
REMARK    1  A    between atoms: C11_15  and  O2_2 
REMARK    2  A    between atoms: C18_22  and  O2_2 
REMARK    3  A    between atoms: C1_5  and  C4_8 
REMARK    4  A    between atoms: C4_8  and  C6_10 
ROOT
HETATM    1  O1  UNK     1      -0.646   1.740  -0.432  1.00  0.00    -0.274 OA
HETATM    2  O3  UNK     1      -2.708   1.440   0.466  1.00  0.00    -0.259 OA
HETATM    3  C1  UNK     1      -0.958   0.102   1.373  1.00  0.00     0.029 A 
HETATM    4  C2  UNK     1       0.344  -0.250   1.321  1.00  0.00    -0.036 A 
HETATM    5  C3  UNK     1       1.245   0.438   0.373  1.00  0.00     0.005 A 
HETATM    6  C5  UNK     1       0.717   1.409  -0.473  1.00  0.00     0.093 A 
HETATM    7  C7  UNK     1      -1.520   1.134   0.455  1.00  0.00     0.295 A 
HETATM    8  C8  UNK     1       0.953  -1.335   2.175  1.00  0.00     0.050 C 
HETATM    9  C9  UNK     1       2.621   0.182   0.272  1.00  0.00     0.017 A 
HETATM   10  C10 UNK     1       1.498   2.106  -1.398  1.00  0.00     0.075 A 
HETATM   11  C11 UNK     1       2.858   1.832  -1.484  1.00  0.00     0.081 A 
HETATM   12  C12 UNK     1       3.420   0.871  -0.649  1.00  0.00     0.038 A 
ENDROOT
BRANCH   3  13
HETATM   13  C4  UNK     1      -1.968  -0.472   2.334  1.00  0.00     0.084 C 
BRANCH  13  14
HETATM   14  C6  UNK     1      -2.898  -1.441   1.665  1.00  0.00    -0.054 A 
HETATM   15  C13 UNK     1      -2.386  -2.399   0.796  1.00  0.00     0.007 A 
HETATM   16  C15 UNK     1      -3.251  -3.299   0.174  1.00  0.00     0.001 A 
HETATM   17  C17 UNK     1      -4.622  -3.236   0.424  1.00  0.00     0.000 A 
HETATM   18  C16 UNK     1      -5.128  -2.273   1.296  1.00  0.00     0.001 A 
HETATM   19  C14 UNK     1      -4.264  -1.372   1.919  1.00  0.00     0.007 A 
ENDBRANCH  13  14
ENDBRANCH   3  13
BRANCH  11  20
HETATM   20  O2  UNK     1       3.636   2.500  -2.378  1.00  0.00    -0.279 OA
BRANCH  20  21
HETATM   21  C18 UNK     1       3.730   1.880  -3.635  1.00  0.00     0.260 C 
HETATM   22  O4  UNK     1       3.186   0.832  -3.957  1.00  0.00    -0.265 OA
HETATM   23  C19 UNK     1       4.605   2.690  -4.545  1.00  0.00     0.126 C 
ENDBRANCH  20  21
ENDBRANCH  11  20
TORSDOF 4
