REMARK  6 active torsions:
REMARK  status: ('A' for Active; 'I' for Inactive)
REMARK    1  A    between atoms: C5_11  and  N1_4 
REMARK    2  A    between atoms: C6_12  and  N2_5 
REMARK    3  A    between atoms: C18_24  and  N3_6 
REMARK       I    between atoms: C9_15  and  N3_6 
REMARK    4  A    between atoms: C5_11  and  C7_13 
REMARK    5  A    between atoms: C6_12  and  C9_15 
REMARK    6  A    between atoms: C13_19  and  C17_23 
ROOT
HETATM    1  N1  UNK     1       1.578  -0.306  -0.618  1.00  0.00     0.096 N 
HETATM    2  N2  UNK     1      -0.355  -1.323   1.276  1.00  0.00     0.100 N 
HETATM    3  C1  UNK     1       1.995  -1.091   0.551  1.00  0.00     0.303 C 
HETATM    4  C2  UNK     1       0.228  -0.697  -1.042  1.00  0.00     0.303 C 
HETATM    5  C3  UNK     1       0.994  -0.931   1.700  1.00  0.00     0.303 C 
HETATM    6  C4  UNK     1      -0.773  -0.538   0.108  1.00  0.00     0.303 C 
ENDROOT
BRANCH   1   7
HETATM    7  C5  UNK     1       2.532  -0.462  -1.715  1.00  0.00     0.312 C 
BRANCH   7   8
HETATM    8  C7  UNK     1       2.477   0.677  -2.673  1.00  0.00    -0.011 A 
HETATM    9  C10 UNK     1       1.655   0.652  -3.732  1.00  0.00     0.092 A 
HETATM   10  C14 UNK     1       1.566   1.754  -4.705  1.00  0.00     0.288 A 
HETATM   11  O1  UNK     1       2.385   2.850  -4.482  1.00  0.00    -0.275 OA
HETATM   12  O3  UNK     1       0.801   1.696  -5.661  1.00  0.00    -0.260 OA
HETATM   13  C11 UNK     1       3.259   2.905  -3.378  1.00  0.00     0.090 A 
HETATM   14  C8  UNK     1       3.333   1.853  -2.464  1.00  0.00     0.007 A 
HETATM   15  C15 UNK     1       4.037   4.057  -3.254  1.00  0.00     0.039 A 
HETATM   16  C12 UNK     1       4.227   1.984  -1.393  1.00  0.00     0.022 A 
HETATM   17  C13 UNK     1       5.014   3.134  -1.255  1.00  0.00    -0.058 A 
HETATM   18  C16 UNK     1       4.918   4.168  -2.184  1.00  0.00     0.010 A 
BRANCH  17  19
HETATM   19  C17 UNK     1       5.960   3.252  -0.107  1.00  0.00     0.034 C 
HETATM   20  C20 UNK     1       5.312   3.900   1.114  1.00  0.00     0.010 C 
ENDBRANCH  17  19
ENDBRANCH   7   8
ENDBRANCH   1   7
BRANCH   2  21
HETATM   21  C6  UNK     1      -1.309  -1.170   2.372  1.00  0.00     0.375 C 
BRANCH  21  22
HETATM   22  C9  UNK     1      -2.508  -2.071   2.129  1.00  0.00     0.250 C 
HETATM   23  O2  UNK     1      -2.424  -3.134   1.522  1.00  0.00    -0.271 OA
HETATM   24  N3  UNK     1      -3.654  -1.511   2.691  1.00  0.00    -0.325 N 
HETATM   25  H15 UNK     1      -3.543  -0.622   3.170  1.00  0.00     0.169 HD
BRANCH  24  26
HETATM   26  C18 UNK     1      -4.967  -2.039   2.680  1.00  0.00     0.040 A 
HETATM   27  C19 UNK     1      -6.018  -1.354   3.291  1.00  0.00    -0.035 A 
HETATM   28  C22 UNK     1      -7.305  -1.891   3.271  1.00  0.00     0.009 A 
HETATM   29  C23 UNK     1      -5.794  -0.044   3.975  1.00  0.00     0.050 C 
HETATM   30  C25 UNK     1      -7.541  -3.112   2.639  1.00  0.00     0.001 A 
HETATM   31  C24 UNK     1      -6.490  -3.797   2.029  1.00  0.00     0.002 A 
HETATM   32  C21 UNK     1      -5.203  -3.260   2.049  1.00  0.00     0.030 A 
ENDBRANCH  24  26
ENDBRANCH  21  22
ENDBRANCH   2  21
TORSDOF 6
