REMARK  7 active torsions:
REMARK  status: ('A' for Active; 'I' for Inactive)
REMARK    1  A    between atoms: C4_12  and  O2_2 
REMARK    2  A    between atoms: C6_14  and  O3_3 
REMARK    3  A    between atoms: C10_18  and  O4_4 
REMARK    4  A    between atoms: C9_17  and  O5_5 
REMARK    5  A    between atoms: C15_23  and  O7_7 
REMARK    6  A    between atoms: C13_21  and  O8_8 
REMARK    7  A    between atoms: C3_11  and  C7_15 
ROOT
HETATM    1  O1  UNK     1      -0.087   0.814   0.552  1.00  0.00    -0.306 OA
HETATM    2  O6  UNK     1      -2.115  -2.055  -1.510  1.00  0.00    -0.284 OA
HETATM    3  C1  UNK     1      -1.927  -0.765   0.455  1.00  0.00     0.087 A 
HETATM    4  C2  UNK     1      -1.189   0.219   1.108  1.00  0.00     0.096 A 
HETATM    5  C3  UNK     1       0.302   0.427  -0.721  1.00  0.00     0.123 A 
HETATM    6  C4  UNK     1      -0.317  -0.516  -1.454  1.00  0.00     0.154 A 
HETATM    7  C5  UNK     1      -1.511  -1.190  -0.890  1.00  0.00     0.223 A 
HETATM    8  C6  UNK     1      -3.042  -1.338   1.072  1.00  0.00     0.121 A 
HETATM    9  C8  UNK     1      -1.562   0.638   2.386  1.00  0.00     0.078 A 
HETATM   10  C9  UNK     1      -3.413  -0.917   2.350  1.00  0.00     0.134 A 
HETATM   11  C10 UNK     1      -2.674   0.069   3.006  1.00  0.00     0.106 A 
ENDROOT
BRANCH   5  12
HETATM   12  C7  UNK     1       1.499   1.142  -1.199  1.00  0.00     0.004 A 
HETATM   13  C11 UNK     1       1.363   2.328  -1.921  1.00  0.00     0.053 A 
HETATM   14  C13 UNK     1       2.496   3.004  -2.374  1.00  0.00     0.099 A 
HETATM   15  C15 UNK     1       3.766   2.494  -2.104  1.00  0.00     0.101 A 
HETATM   16  C14 UNK     1       3.903   1.309  -1.382  1.00  0.00     0.040 A 
HETATM   17  C12 UNK     1       2.770   0.633  -0.929  1.00  0.00     0.017 A 
BRANCH  14  18
HETATM   18  O8  UNK     1       2.350   4.161  -3.077  1.00  0.00    -0.358 OA
HETATM   19  H15 UNK     1       3.231   4.473  -3.346  1.00  0.00     0.217 HD
ENDBRANCH  14  18
BRANCH  15  20
HETATM   20  O7  UNK     1       4.880   3.146  -2.539  1.00  0.00    -0.353 OA
HETATM   21  C19 UNK     1       5.446   4.118  -1.663  1.00  0.00     0.210 C 
ENDBRANCH  15  20
ENDBRANCH   5  12
BRANCH   6  22
HETATM   22  O2  UNK     1       0.115  -0.901  -2.705  1.00  0.00    -0.350 OA
HETATM   23  C16 UNK     1      -0.519  -0.086  -3.636  1.00  0.00     0.210 C 
ENDBRANCH   6  22
BRANCH   8  24
HETATM   24  O3  UNK     1      -3.788  -2.304   0.466  1.00  0.00    -0.352 OA
HETATM   25  C17 UNK     1      -3.400  -3.657   0.689  1.00  0.00     0.210 C 
ENDBRANCH   8  24
BRANCH  11  26
HETATM   26  O4  UNK     1      -3.030   0.485   4.254  1.00  0.00    -0.353 OA
HETATM   27  C18 UNK     1      -2.456  -0.212   5.357  1.00  0.00     0.210 C 
ENDBRANCH  11  26
BRANCH  10  28
HETATM   28  O5  UNK     1      -4.499  -1.470   2.964  1.00  0.00    -0.356 OA
HETATM   29  H5  UNK     1      -4.930  -2.081   2.342  1.00  0.00     0.218 HD
ENDBRANCH  10  28
TORSDOF 7
