REMARK  7 active torsions:
REMARK  status: ('A' for Active; 'I' for Inactive)
REMARK    1  A    between atoms: C13_21  and  O2_2 
REMARK    2  A    between atoms: C15_23  and  O3_3 
REMARK    3  A    between atoms: C5_13  and  N1_5 
REMARK    4  A    between atoms: C6_14  and  N2_6 
REMARK    5  A    between atoms: C11_19  and  C5_13 
REMARK    6  A    between atoms: C12_20  and  C6_14 
REMARK    7  A    between atoms: C20_28  and  C22_30 
ROOT
HETATM    1  O1  UNK     1       0.167   1.357   1.147  1.00  0.00    -0.308 OA
HETATM    2  O4  UNK     1      -1.131   0.314   4.865  1.00  0.00    -0.287 OA
HETATM    3  C11 UNK     1       0.445  -0.905   0.527  1.00  0.00     0.039 A 
HETATM    4  C12 UNK     1      -0.064  -2.691   2.076  1.00  0.00     0.038 A 
HETATM    5  C13 UNK     1       0.374  -2.267   0.821  1.00  0.00     0.087 A 
HETATM    6  C14 UNK     1       0.076   0.033   1.493  1.00  0.00     0.103 A 
HETATM    7  C15 UNK     1      -0.433  -1.756   3.044  1.00  0.00     0.093 A 
HETATM    8  C16 UNK     1      -0.361  -0.393   2.746  1.00  0.00     0.082 A 
HETATM    9  C19 UNK     1      -0.742   0.616   3.746  1.00  0.00     0.190 A 
HETATM   10  C20 UNK     1      -0.200   2.311   2.084  1.00  0.00     0.090 A 
HETATM   11  C21 UNK     1      -0.629   2.027   3.324  1.00  0.00     0.094 A 
ENDROOT
BRANCH   3  12
HETATM   12  C5  UNK     1       0.916  -0.456  -0.823  1.00  0.00     0.317 C 
BRANCH  12  13
HETATM   13  N1  UNK     1       0.302  -1.230  -1.899  1.00  0.00     0.096 N 
HETATM   14  C1  UNK     1       0.831  -0.819  -3.205  1.00  0.00     0.303 C 
HETATM   15  C7  UNK     1       0.187  -1.631  -4.335  1.00  0.00     0.302 C 
HETATM   16  N3  UNK     1      -1.275  -1.494  -4.308  1.00  0.00     0.087 N 
HETATM   17  C17 UNK     1      -1.888  -2.270  -5.384  1.00  0.00     0.310 C 
HETATM   18  C8  UNK     1      -1.805  -1.903  -3.002  1.00  0.00     0.302 C 
HETATM   19  C2  UNK     1      -1.159  -1.093  -1.872  1.00  0.00     0.303 C 
ENDBRANCH  12  13
ENDBRANCH   3  12
BRANCH   5  20
HETATM   20  O2  UNK     1       0.734  -3.188  -0.122  1.00  0.00    -0.359 OA
HETATM   21  H27 UNK     1       0.476  -4.083   0.149  1.00  0.00     0.217 HD
ENDBRANCH   5  20
BRANCH   4  22
HETATM   22  C6  UNK     1      -0.136  -4.154   2.382  1.00  0.00     0.317 C 
BRANCH  22  23
HETATM   23  N2  UNK     1       1.057  -4.871   1.937  1.00  0.00     0.096 N 
HETATM   24  C3  UNK     1       0.924  -6.311   2.190  1.00  0.00     0.303 C 
HETATM   25  C9  UNK     1       2.175  -7.064   1.724  1.00  0.00     0.302 C 
HETATM   26  N4  UNK     1       3.377  -6.538   2.383  1.00  0.00     0.087 N 
HETATM   27  C10 UNK     1       3.510  -5.098   2.133  1.00  0.00     0.302 C 
HETATM   28  C18 UNK     1       4.570  -7.255   1.937  1.00  0.00     0.310 C 
HETATM   29  C4  UNK     1       2.258  -4.345   2.597  1.00  0.00     0.303 C 
ENDBRANCH  22  23
ENDBRANCH   4  22
BRANCH   7  30
HETATM   30  O3  UNK     1      -0.856  -2.205   4.260  1.00  0.00    -0.359 OA
HETATM   31  H29 UNK     1      -1.084  -1.464   4.841  1.00  0.00     0.217 HD
ENDBRANCH   7  30
BRANCH  10  32
HETATM   32  C22 UNK     1      -0.058   3.703   1.610  1.00  0.00    -0.002 A 
HETATM   33  C23 UNK     1       0.248   4.724   2.513  1.00  0.00     0.014 A 
HETATM   34  C25 UNK     1       0.382   6.038   2.066  1.00  0.00     0.001 A 
HETATM   35  C27 UNK     1       0.210   6.336   0.714  1.00  0.00     0.000 A 
HETATM   36  C26 UNK     1      -0.096   5.319  -0.190  1.00  0.00     0.001 A 
HETATM   37  C24 UNK     1      -0.230   4.005   0.257  1.00  0.00     0.014 A 
ENDBRANCH  10  32
TORSDOF 7
