REMARK  0 active torsions:
REMARK  status: ('A' for Active; 'I' for Inactive)
ROOT
HETATM    1  O1  UNK     1       1.751   0.882   0.802  1.00  0.00    -0.274 OA
HETATM    2  O2  UNK     1       3.788   1.904   0.517  1.00  0.00    -0.259 OA
HETATM    3  N1  UNK     1      -2.605  -1.184   1.483  1.00  0.00    -0.380 N 
HETATM    4  C1  UNK     1      -1.635  -0.648   0.631  1.00  0.00     0.045 A 
HETATM    5  C2  UNK     1      -0.401  -0.179   1.138  1.00  0.00     0.004 A 
HETATM    6  C3  UNK     1      -1.849  -0.595  -0.768  1.00  0.00    -0.030 A 
HETATM    7  C4  UNK     1      -2.455  -1.020   2.926  1.00  0.00     0.123 C 
HETATM    8  C5  UNK     1      -3.940  -1.462   0.961  1.00  0.00     0.123 C 
HETATM    9  C6  UNK     1      -0.113  -0.224   2.620  1.00  0.00     0.045 C 
HETATM   10  C7  UNK     1      -3.143  -1.090  -1.369  1.00  0.00     0.042 C 
HETATM   11  C8  UNK     1      -1.005  -1.233   3.333  1.00  0.00     0.025 C 
HETATM   12  C9  UNK     1       0.316   0.454  -1.121  1.00  0.00     0.006 A 
HETATM   13  C10 UNK     1      -3.852  -2.062  -0.434  1.00  0.00     0.024 C 
HETATM   14  C11 UNK     1       0.539   0.378   0.253  1.00  0.00     0.099 A 
HETATM   15  C12 UNK     1       1.352   1.045  -1.945  1.00  0.00    -0.033 A 
HETATM   16  C13 UNK     1      -0.885  -0.037  -1.626  1.00  0.00     0.024 A 
HETATM   17  C14 UNK     1       1.326   1.222  -3.425  1.00  0.00     0.040 C 
HETATM   18  C15 UNK     1       2.478   1.517  -1.408  1.00  0.00     0.025 A 
HETATM   19  C16 UNK     1       2.784   1.583  -3.736  1.00  0.00     0.009 C 
HETATM   20  C17 UNK     1       3.396   2.093  -2.428  1.00  0.00     0.046 C 
HETATM   21  C18 UNK     1       2.753   1.467   0.028  1.00  0.00     0.295 A 
ENDROOT
TORSDOF 0
