REMARK  2 active torsions:
REMARK  status: ('A' for Active; 'I' for Inactive)
REMARK    1  A    between atoms: C1_5  and  C2_6 
REMARK    2  A    between atoms: C13_17  and  C8_12 
ROOT
HETATM    1  S1  UNK     1       1.035   2.465   0.565  1.00  0.00    -0.117 SA
HETATM    2  N1  UNK     1      -0.391   0.186   2.391  1.00  0.00    -0.251 NA
HETATM    3  C1  UNK     1       1.144   0.850  -0.273  1.00  0.00     0.093 C 
HETATM    4  C3  UNK     1      -0.197   0.137  -0.165  1.00  0.00     0.080 C 
HETATM    5  C8  UNK     1      -0.822  -0.097   1.201  1.00  0.00     0.053 C 
HETATM    6  C12 UNK     1       1.462   1.869   2.187  1.00  0.00     0.030 A 
HETATM    7  C14 UNK     1       0.796   0.802   2.810  1.00  0.00     0.073 A 
HETATM    8  C22 UNK     1       2.567   2.475   2.812  1.00  0.00     0.021 A 
HETATM    9  C24 UNK     1       1.279   0.369   4.060  1.00  0.00     0.033 A 
HETATM   10  C27 UNK     1       3.025   2.024   4.047  1.00  0.00     0.002 A 
HETATM   11  C28 UNK     1       2.383   0.964   4.670  1.00  0.00     0.002 A 
ENDROOT
BRANCH   3  12
HETATM   12  C2  UNK     1       1.617   1.017  -1.707  1.00  0.00    -0.021 A 
HETATM   13  C4  UNK     1       2.828   0.427  -2.105  1.00  0.00    -0.018 A 
HETATM   14  C10 UNK     1       3.612  -0.314  -1.206  1.00  0.00     0.013 A 
HETATM   15  C6  UNK     1       3.268   0.583  -3.438  1.00  0.00    -0.025 A 
HETATM   16  C17 UNK     1       4.813  -0.894  -1.616  1.00  0.00     0.001 A 
HETATM   17  C19 UNK     1       5.246  -0.741  -2.930  1.00  0.00     0.001 A 
HETATM   18  C15 UNK     1       4.479  -0.008  -3.835  1.00  0.00     0.012 A 
HETATM   19  C9  UNK     1       2.484   1.324  -4.338  1.00  0.00     0.024 A 
HETATM   20  C7  UNK     1       1.273   1.914  -3.940  1.00  0.00    -0.025 A 
HETATM   21  C16 UNK     1       0.489   2.656  -4.840  1.00  0.00     0.012 A 
HETATM   22  C5  UNK     1       0.834   1.759  -2.607  1.00  0.00    -0.018 A 
HETATM   23  C20 UNK     1      -0.711   3.236  -4.429  1.00  0.00     0.001 A 
HETATM   24  C18 UNK     1      -1.144   3.083  -3.116  1.00  0.00     0.001 A 
HETATM   25  C11 UNK     1      -0.377   2.349  -2.210  1.00  0.00     0.013 A 
ENDBRANCH   3  12
BRANCH   5  26
HETATM   26  C13 UNK     1      -2.149  -0.770   1.145  1.00  0.00     0.065 A 
HETATM   27  C21 UNK     1      -2.137  -2.108   1.186  1.00  0.00     0.034 A 
HETATM   28  C25 UNK     1      -3.384  -2.855   1.136  1.00  0.00    -0.001 A 
HETATM   29  C26 UNK     1      -4.584  -2.156   1.045  1.00  0.00     0.089 A 
HETATM   30  C29 UNK     1      -3.418  -4.251   1.176  1.00  0.00     0.014 A 
HETATM   31  O1  UNK     1      -4.590  -0.749   1.002  1.00  0.00    -0.274 OA
HETATM   32  C30 UNK     1      -5.812  -2.812   0.993  1.00  0.00     0.038 A 
HETATM   33  C23 UNK     1      -3.414  -0.006   1.048  1.00  0.00     0.300 A 
HETATM   34  O2  UNK     1      -3.429   1.219   1.009  1.00  0.00    -0.259 OA
HETATM   35  C32 UNK     1      -5.837  -4.204   1.033  1.00  0.00     0.003 A 
HETATM   36  C31 UNK     1      -4.643  -4.922   1.125  1.00  0.00     0.001 A 
ENDBRANCH   5  26
TORSDOF 2
