REMARK  3 active torsions:
REMARK  status: ('A' for Active; 'I' for Inactive)
REMARK    1  A    between atoms: C15_22  and  O3_4 
REMARK    2  A    between atoms: C7_14  and  N1_6 
REMARK       I    between atoms: C9_16  and  N1_6 
REMARK    3  A    between atoms: C10_17  and  C9_16 
ROOT
HETATM    1  S1  UNK     1       2.085   0.555  -3.332  1.00  0.00    -0.075 SA
HETATM    2  N2  UNK     1       2.912   3.073   1.063  1.00  0.00    -0.191 NA
HETATM    3  C1  UNK     1       5.577   2.432  -3.830  1.00  0.00     0.010 C 
HETATM    4  C2  UNK     1       4.980   3.028  -2.516  1.00  0.00     0.042 C 
HETATM    5  C3  UNK     1       4.409   1.714  -4.574  1.00  0.00     0.047 C 
HETATM    6  C4  UNK     1       3.757   2.211  -2.329  1.00  0.00    -0.021 A 
HETATM    7  C5  UNK     1       3.458   1.502  -3.459  1.00  0.00    -0.007 A 
HETATM    8  C6  UNK     1       2.830   1.983  -1.292  1.00  0.00     0.085 A 
HETATM    9  C7  UNK     1       1.852   1.090  -1.703  1.00  0.00     0.098 A 
HETATM   10  C8  UNK     1       2.871   2.582   0.008  1.00  0.00     0.103 C 
ENDROOT
BRANCH   9  11
HETATM   11  N1  UNK     1       0.749   0.570  -1.046  1.00  0.00    -0.316 N 
HETATM   12  C9  UNK     1       0.605   0.336   0.315  1.00  0.00     0.262 C 
HETATM   13  O2  UNK     1       1.423   0.542   1.210  1.00  0.00    -0.267 OA
HETATM   14  H7  UNK     1       0.074   0.140  -1.674  1.00  0.00     0.170 HD
BRANCH  12  15
HETATM   15  C10 UNK     1      -0.711  -0.225   0.645  1.00  0.00     0.108 A 
HETATM   16  C12 UNK     1      -0.758  -1.032   1.711  1.00  0.00     0.037 A 
HETATM   17  C11 UNK     1      -2.018  -1.635   2.118  1.00  0.00     0.002 A 
HETATM   18  C13 UNK     1      -3.166  -1.358   1.383  1.00  0.00     0.123 A 
HETATM   19  C16 UNK     1      -2.114  -2.484   3.224  1.00  0.00     0.014 A 
HETATM   20  C15 UNK     1      -4.403  -1.904   1.720  1.00  0.00     0.102 A 
HETATM   21  O1  UNK     1      -3.109  -0.508   0.261  1.00  0.00    -0.271 OA
HETATM   22  C17 UNK     1      -4.490  -2.749   2.824  1.00  0.00     0.040 A 
HETATM   23  C18 UNK     1      -3.348  -3.038   3.575  1.00  0.00     0.004 A 
HETATM   24  C14 UNK     1      -1.919   0.084  -0.153  1.00  0.00     0.304 A 
HETATM   25  O4  UNK     1      -1.879   0.825  -1.129  1.00  0.00    -0.259 OA
BRANCH  20  26
HETATM   26  O3  UNK     1      -5.517  -1.624   0.992  1.00  0.00    -0.353 OA
HETATM   27  C19 UNK     1      -5.813  -2.489  -0.104  1.00  0.00     0.210 C 
ENDBRANCH  20  26
ENDBRANCH  12  15
ENDBRANCH   9  11
TORSDOF 3
