REMARK  4 active torsions:
REMARK  status: ('A' for Active; 'I' for Inactive)
REMARK    1  A    between atoms: C6_11  and  O2_2 
REMARK    2  A    between atoms: C5_10  and  O3_3 
REMARK    3  A    between atoms: C12_17  and  O4_4 
REMARK    4  A    between atoms: C1_6  and  C2_7 
ROOT
HETATM    1  O1  UNK     1       0.033  -1.979   0.093  1.00  0.00    -0.306 OA
HETATM    2  O5  UNK     1       1.690  -3.484   3.498  1.00  0.00    -0.284 OA
HETATM    3  C1  UNK     1       0.331  -1.164   1.173  1.00  0.00     0.126 A 
HETATM    4  C3  UNK     1       0.890  -3.892   1.317  1.00  0.00     0.051 A 
HETATM    5  C4  UNK     1       0.322  -3.317   0.183  1.00  0.00     0.090 A 
HETATM    6  C5  UNK     1       0.871  -1.595   2.328  1.00  0.00     0.152 A 
HETATM    7  C7  UNK     1       1.196  -3.034   2.473  1.00  0.00     0.220 A 
HETATM    8  C10 UNK     1       1.162  -5.262   1.353  1.00  0.00     0.018 A 
HETATM    9  C11 UNK     1       0.020  -4.109  -0.925  1.00  0.00     0.038 A 
HETATM   10  C14 UNK     1       0.860  -6.052   0.243  1.00  0.00     0.001 A 
HETATM   11  C15 UNK     1       0.290  -5.477  -0.893  1.00  0.00     0.003 A 
ENDROOT
BRANCH   3  12
HETATM   12  C2  UNK     1      -0.030   0.246   0.945  1.00  0.00     0.034 A 
HETATM   13  C6  UNK     1       0.887   1.148   0.400  1.00  0.00     0.084 A 
HETATM   14  C9  UNK     1       0.522   2.478   0.194  1.00  0.00     0.074 A 
HETATM   15  C12 UNK     1      -0.760   2.910   0.533  1.00  0.00     0.070 A 
HETATM   16  C13 UNK     1      -1.678   2.011   1.078  1.00  0.00     0.038 A 
HETATM   17  C8  UNK     1      -1.313   0.681   1.284  1.00  0.00     0.020 A 
BRANCH  13  18
HETATM   18  O2  UNK     1       2.147   0.751   0.060  1.00  0.00    -0.355 OA
HETATM   19  C16 UNK     1       2.337   0.271  -1.268  1.00  0.00     0.210 C 
ENDBRANCH  13  18
BRANCH  15  20
HETATM   20  O4  UNK     1      -1.117   4.208   0.333  1.00  0.00    -0.356 OA
HETATM   21  C17 UNK     1      -2.443   4.582   0.702  1.00  0.00     0.210 C 
ENDBRANCH  15  20
ENDBRANCH   3  12
BRANCH   6  22
HETATM   22  O3  UNK     1       1.125  -0.762   3.396  1.00  0.00    -0.355 OA
HETATM   23  H8  UNK     1       0.867   0.147   3.175  1.00  0.00     0.218 HD
ENDBRANCH   6  22
TORSDOF 4
