REMARK  6 active torsions:
REMARK  status: ('A' for Active; 'I' for Inactive)
REMARK    1  A    between atoms: C16_22  and  O2_2 
REMARK    2  A    between atoms: C9_15  and  O2_2 
REMARK    3  A    between atoms: C15_21  and  O4_4 
REMARK    4  A    between atoms: C17_23  and  O5_5 
REMARK    5  A    between atoms: C2_8  and  C5_11 
REMARK    6  A    between atoms: C16_22  and  C17_23 
ROOT
HETATM    1  O1  UNK     1       0.798   0.205   1.493  1.00  0.00    -0.321 OA
HETATM    2  O3  UNK     1      -2.048  -0.725  -1.279  1.00  0.00    -0.286 OA
HETATM    3  C1  UNK     1       0.142   0.016  -0.836  1.00  0.00     0.049 A 
HETATM    4  C2  UNK     1      -1.442  -0.607   1.021  1.00  0.00     0.048 A 
HETATM    5  C3  UNK     1       1.071   0.330   0.156  1.00  0.00     0.091 A 
HETATM    6  C4  UNK     1      -1.194  -0.467  -0.441  1.00  0.00     0.197 A 
HETATM    7  C6  UNK     1       0.476   0.164  -2.185  1.00  0.00     0.021 A 
HETATM    8  C7  UNK     1       2.339   0.793  -0.196  1.00  0.00     0.075 A 
HETATM    9  C8  UNK     1      -0.443  -0.266   1.849  1.00  0.00     0.159 A 
HETATM   10  C9  UNK     1       2.675   0.941  -1.542  1.00  0.00     0.072 A 
HETATM   11  C10 UNK     1       1.746   0.627  -2.534  1.00  0.00     0.038 A 
ENDROOT
BRANCH   4  12
HETATM   12  C5  UNK     1      -2.718  -1.116   1.549  1.00  0.00    -0.020 A 
HETATM   13  C11 UNK     1      -3.754  -0.230   1.853  1.00  0.00     0.015 A 
HETATM   14  C13 UNK     1      -4.963  -0.712   2.354  1.00  0.00     0.037 A 
HETATM   15  C15 UNK     1      -5.139  -2.081   2.553  1.00  0.00     0.068 A 
HETATM   16  C14 UNK     1      -4.106  -2.968   2.250  1.00  0.00     0.037 A 
HETATM   17  C12 UNK     1      -2.897  -2.486   1.749  1.00  0.00     0.015 A 
BRANCH  15  18
HETATM   18  O4  UNK     1      -6.320  -2.552   3.040  1.00  0.00    -0.356 OA
HETATM   19  C18 UNK     1      -6.432  -3.963   3.219  1.00  0.00     0.210 C 
ENDBRANCH  15  18
ENDBRANCH   4  12
BRANCH  10  20
HETATM   20  O2  UNK     1       3.912   1.392  -1.888  1.00  0.00    -0.341 OA
BRANCH  20  21
HETATM   21  C16 UNK     1       4.017   2.129  -3.105  1.00  0.00     0.286 C 
BRANCH  21  22
HETATM   22  C17 UNK     1       5.156   3.107  -2.985  1.00  0.00     0.282 C 
HETATM   23  O6  UNK     1       5.855   3.251  -1.991  1.00  0.00    -0.263 OA
BRANCH  22  24
HETATM   24  O5  UNK     1       5.275   3.796  -4.158  1.00  0.00    -0.325 OA
HETATM   25  C19 UNK     1       6.323   4.770  -4.196  1.00  0.00     0.213 C 
ENDBRANCH  22  24
ENDBRANCH  21  22
ENDBRANCH  20  21
ENDBRANCH  10  20
TORSDOF 6
