REMARK  1 active torsions:
REMARK  status: ('A' for Active; 'I' for Inactive)
REMARK    1  A    between atoms: C6_10  and  O2_3 
ROOT
HETATM    1  I1  UNK     1       0.090   0.818  -3.386  1.00  0.00    -0.039 I 
HETATM    2  O1  UNK     1      -1.562  -0.450  -1.004  1.00  0.00    -0.273 OA
HETATM    3  O3  UNK     1      -3.535  -1.566  -0.704  1.00  0.00    -0.260 OA
HETATM    4  C1  UNK     1      -0.147   0.017   0.932  1.00  0.00     0.005 A 
HETATM    5  C2  UNK     1      -0.392   0.097  -0.440  1.00  0.00     0.109 A 
HETATM    6  C3  UNK     1      -1.137  -0.653   1.786  1.00  0.00    -0.043 A 
HETATM    7  C4  UNK     1       1.040   0.585   1.414  1.00  0.00     0.017 A 
HETATM    8  C5  UNK     1       0.497   0.715  -1.321  1.00  0.00     0.074 A 
HETATM    9  C6  UNK     1       1.669   1.273  -0.823  1.00  0.00     0.087 A 
HETATM   10  C7  UNK     1       1.940   1.208   0.543  1.00  0.00     0.039 A 
HETATM   11  C8  UNK     1      -2.241  -1.164   1.222  1.00  0.00     0.090 A 
HETATM   12  C9  UNK     1      -0.903  -0.755   3.264  1.00  0.00     0.049 C 
HETATM   13  C10 UNK     1      -2.514  -1.087  -0.224  1.00  0.00     0.288 A 
ENDROOT
BRANCH   9  14
HETATM   14  O2  UNK     1       2.580   1.892  -1.626  1.00  0.00    -0.355 OA
HETATM   15  C11 UNK     1       3.612   1.080  -2.181  1.00  0.00     0.210 C 
ENDBRANCH   9  14
TORSDOF 1
