REMARK  5 active torsions:
REMARK  status: ('A' for Active; 'I' for Inactive)
REMARK    1  A    between atoms: C13_16  and  O2_2 
REMARK    2  A    between atoms: C15_18  and  O2_2 
REMARK    3  A    between atoms: C1_4  and  C2_5 
REMARK    4  A    between atoms: C1_4  and  C3_6 
REMARK    5  A    between atoms: C3_6  and  C6_9 
ROOT
HETATM    1  O1  UNK     1       0.906  -0.058   1.096  1.00  0.00    -0.274 OA
HETATM    2  O3  UNK     1      -0.243  -1.055   2.781  1.00  0.00    -0.259 OA
HETATM    3  C2  UNK     1      -1.263  -1.115   0.629  1.00  0.00     0.024 A 
HETATM    4  C4  UNK     1      -1.198  -0.746  -0.669  1.00  0.00    -0.037 A 
HETATM    5  C5  UNK     1      -0.009  -0.020  -1.158  1.00  0.00     0.005 A 
HETATM    6  C7  UNK     1       1.002   0.301  -0.257  1.00  0.00     0.092 A 
HETATM    7  C8  UNK     1      -0.182  -0.757   1.592  1.00  0.00     0.295 A 
HETATM    8  C9  UNK     1      -2.292  -1.019  -1.672  1.00  0.00     0.050 C 
HETATM    9  C10 UNK     1       0.179   0.367  -2.495  1.00  0.00     0.017 A 
HETATM   10  C11 UNK     1       2.159   0.986  -0.637  1.00  0.00     0.075 A 
HETATM   11  C13 UNK     1       2.321   1.365  -1.964  1.00  0.00     0.071 A 
HETATM   12  C14 UNK     1       1.332   1.054  -2.893  1.00  0.00     0.038 A 
ENDROOT
BRANCH   3  13
HETATM   13  C1  UNK     1      -2.385  -1.913   1.243  1.00  0.00     0.045 C 
BRANCH  13  14
HETATM   14  C3  UNK     1      -3.484  -1.004   1.777  1.00  0.00     0.004 C 
BRANCH  14  15
HETATM   15  C6  UNK     1      -4.627  -1.828   2.369  1.00  0.00    -0.004 C 
HETATM   16  C12 UNK     1      -5.752  -0.938   2.875  1.00  0.00     0.005 C 
ENDBRANCH  14  15
ENDBRANCH  13  14
ENDBRANCH   3  13
BRANCH  11  17
HETATM   17  O2  UNK     1       3.440   2.032  -2.354  1.00  0.00    -0.351 OA
BRANCH  17  18
HETATM   18  C15 UNK     1       4.066   2.875  -1.387  1.00  0.00     0.171 C 
HETATM   19  C16 UNK     1       4.759   4.016  -2.101  1.00  0.00     0.034 C 
ENDBRANCH  17  18
ENDBRANCH  11  17
TORSDOF 5
