REMARK  6 active torsions:
REMARK  status: ('A' for Active; 'I' for Inactive)
REMARK    1  A    between atoms: C11_20  and  O2_2 
REMARK    2  A    between atoms: C14_23  and  O2_2 
REMARK    3  A    between atoms: C15_24  and  N1_8 
REMARK    4  A    between atoms: C18_27  and  N2_9 
REMARK    5  A    between atoms: C1_10  and  C3_12 
REMARK    6  A    between atoms: C3_12  and  C6_15 
ROOT
HETATM    1  O1  UNK     1      -0.935  -1.770   1.096  1.00  0.00    -0.274 OA
HETATM    2  O3  UNK     1      -1.362  -3.212   2.796  1.00  0.00    -0.259 OA
HETATM    3  C1  UNK     1      -3.233  -2.017   1.932  1.00  0.00     0.024 A 
HETATM    4  C2  UNK     1      -3.682  -1.085   1.065  1.00  0.00    -0.037 A 
HETATM    5  C4  UNK     1      -2.737  -0.462   0.115  1.00  0.00     0.005 A 
HETATM    6  C5  UNK     1      -1.395  -0.826   0.165  1.00  0.00     0.092 A 
HETATM    7  C7  UNK     1      -1.790  -2.392   1.989  1.00  0.00     0.295 A 
HETATM    8  C8  UNK     1      -3.109   0.479  -0.858  1.00  0.00     0.017 A 
HETATM    9  C9  UNK     1      -5.115  -0.615   1.009  1.00  0.00     0.050 C 
HETATM   10  C10 UNK     1      -0.436  -0.286  -0.696  1.00  0.00     0.075 A 
HETATM   11  C11 UNK     1      -0.826   0.650  -1.647  1.00  0.00     0.079 A 
HETATM   12  C12 UNK     1      -2.162   1.031  -1.729  1.00  0.00     0.038 A 
ENDROOT
BRANCH  11  13
HETATM   13  O2  UNK     1       0.092   1.187  -2.495  1.00  0.00    -0.308 OA
BRANCH  13  14
HETATM   14  C14 UNK     1       1.297   1.608  -1.958  1.00  0.00     0.109 A 
HETATM   15  C15 UNK     1       2.487   1.052  -2.393  1.00  0.00     0.139 A 
HETATM   16  C17 UNK     1       3.688   1.491  -1.835  1.00  0.00     0.075 A 
HETATM   17  C18 UNK     1       3.680   2.481  -0.852  1.00  0.00     0.105 A 
HETATM   18  C19 UNK     1       2.471   3.031  -0.426  1.00  0.00     0.039 A 
HETATM   19  C16 UNK     1       1.270   2.591  -0.983  1.00  0.00     0.042 A 
BRANCH  15  20
HETATM   20  N1  UNK     1       2.514   0.042  -3.394  1.00  0.00    -0.113 N 
HETATM   21  O4  UNK     1       3.620  -0.428  -3.751  1.00  0.00    -0.532 OA
HETATM   22  O5  UNK     1       1.430  -0.348  -3.890  1.00  0.00    -0.532 OA
ENDBRANCH  15  20
BRANCH  17  23
HETATM   23  N2  UNK     1       4.902   2.928  -0.285  1.00  0.00    -0.116 N 
HETATM   24  O6  UNK     1       4.872   3.819   0.598  1.00  0.00    -0.532 OA
HETATM   25  O7  UNK     1       5.979   2.421  -0.681  1.00  0.00    -0.532 OA
ENDBRANCH  17  23
ENDBRANCH  13  14
ENDBRANCH  11  13
BRANCH   3  26
HETATM   26  C3  UNK     1      -4.098  -2.774   2.908  1.00  0.00     0.045 C 
BRANCH  26  27
HETATM   27  C6  UNK     1      -4.201  -2.043   4.239  1.00  0.00     0.000 C 
HETATM   28  C13 UNK     1      -5.093  -2.804   5.207  1.00  0.00     0.005 C 
ENDBRANCH  26  27
ENDBRANCH   3  26
TORSDOF 6
