REMARK  3 active torsions:
REMARK  status: ('A' for Active; 'I' for Inactive)
REMARK    1  A    between atoms: C11_16  and  O2_3 
REMARK    2  A    between atoms: C5_10  and  O2_3 
REMARK    3  A    between atoms: C11_16  and  C12_17 
ROOT
HETATM    1  O1  UNK     1      -3.556  -1.692   0.453  1.00  0.00    -0.275 OA
HETATM    2  O3  UNK     1      -4.759  -2.776   2.068  1.00  0.00    -0.260 OA
HETATM    3  C1  UNK     1      -1.537  -0.472   1.085  1.00  0.00     0.007 A 
HETATM    4  C2  UNK     1      -1.762  -0.871   2.481  1.00  0.00    -0.043 A 
HETATM    5  C3  UNK     1      -2.444  -0.897   0.113  1.00  0.00     0.090 A 
HETATM    6  C4  UNK     1      -0.456   0.316   0.665  1.00  0.00     0.052 A 
HETATM    7  C5  UNK     1      -0.302   0.659  -0.683  1.00  0.00     0.080 A 
HETATM    8  C6  UNK     1      -2.303  -0.563  -1.235  1.00  0.00     0.041 A 
HETATM    9  C7  UNK     1      -1.224   0.220  -1.631  1.00  0.00     0.040 A 
HETATM   10  C8  UNK     1      -2.829  -1.627   2.775  1.00  0.00     0.090 A 
HETATM   11  C9  UNK     1      -0.805  -0.430   3.550  1.00  0.00     0.049 C 
HETATM   12  C10 UNK     1      -3.795  -2.084   1.761  1.00  0.00     0.288 A 
ENDROOT
BRANCH   7  13
HETATM   13  O2  UNK     1       0.755   1.425  -1.070  1.00  0.00    -0.275 OA
BRANCH  13  14
HETATM   14  C11 UNK     1       1.895   0.698  -1.421  1.00  0.00     0.305 C 
HETATM   15  O4  UNK     1       1.993  -0.520  -1.410  1.00  0.00    -0.258 OA
BRANCH  14  16
HETATM   16  C12 UNK     1       3.002   1.599  -1.830  1.00  0.00     0.080 A 
HETATM   17  S1  UNK     1       4.453   0.882  -2.298  1.00  0.00    -0.096 SA
HETATM   18  C15 UNK     1       5.128   2.429  -2.584  1.00  0.00     0.050 A 
HETATM   19  C14 UNK     1       4.234   3.441  -2.316  1.00  0.00     0.009 A 
HETATM   20  C13 UNK     1       2.977   2.940  -1.870  1.00  0.00     0.025 A 
ENDBRANCH  14  16
ENDBRANCH  13  14
ENDBRANCH   7  13
TORSDOF 3
