REMARK  6 active torsions:
REMARK  status: ('A' for Active; 'I' for Inactive)
REMARK    1  A    between atoms: C11_14  and  O1_1 
REMARK    2  A    between atoms: C2_5  and  O1_1 
REMARK    3  A    between atoms: C3_6  and  O2_2 
REMARK    4  A    between atoms: C1_4  and  C7_10 
REMARK    5  A    between atoms: C8_11  and  C9_12 
REMARK    6  A    between atoms: C10_13  and  C11_14 
ROOT
HETATM    1  C1  UNK     1      -0.382   0.048  -0.188  1.00  0.00    -0.033 A 
HETATM    2  C2  UNK     1       1.655   1.678  -1.121  1.00  0.00     0.112 A 
HETATM    3  C3  UNK     1       0.962   0.851  -2.006  1.00  0.00     0.102 A 
HETATM    4  C4  UNK     1      -0.063   0.030  -1.536  1.00  0.00     0.051 A 
HETATM    5  C5  UNK     1       0.296   0.864   0.703  1.00  0.00     0.014 A 
HETATM    6  C6  UNK     1       1.322   1.685   0.233  1.00  0.00     0.041 A 
ENDROOT
BRANCH   1   7
HETATM    7  C7  UNK     1      -1.466  -0.818   0.308  1.00  0.00     0.012 C 
HETATM    8  C9  UNK     1      -2.135  -0.641   1.472  1.00  0.00     0.012 C 
BRANCH   8   9
HETATM    9  C8  UNK     1      -3.218  -1.485   1.953  1.00  0.00    -0.036 A 
HETATM   10  C12 UNK     1      -3.372  -2.777   1.450  1.00  0.00     0.011 A 
HETATM   11  C14 UNK     1      -4.410  -3.586   1.911  1.00  0.00     0.001 A 
HETATM   12  C17 UNK     1      -5.294  -3.104   2.877  1.00  0.00     0.000 A 
HETATM   13  C15 UNK     1      -5.140  -1.812   3.380  1.00  0.00     0.001 A 
HETATM   14  C13 UNK     1      -4.102  -1.003   2.918  1.00  0.00     0.011 A 
ENDBRANCH   8   9
ENDBRANCH   1   7
BRANCH   3  15
HETATM   15  O2  UNK     1       1.280   0.835  -3.330  1.00  0.00    -0.353 OA
HETATM   16  C18 UNK     1       0.592   1.757  -4.173  1.00  0.00     0.210 C 
ENDBRANCH   3  15
BRANCH   2  17
HETATM   17  O1  UNK     1       2.657   2.485  -1.568  1.00  0.00    -0.276 OA
BRANCH  17  18
HETATM   18  C11 UNK     1       3.932   1.889  -1.544  1.00  0.00     0.263 C 
HETATM   19  O3  UNK     1       4.173   0.751  -1.166  1.00  0.00    -0.265 OA
BRANCH  18  20
HETATM   20  C10 UNK     1       4.955   2.876  -2.060  1.00  0.00     0.107 C 
HETATM   21  C16 UNK     1       6.355   2.287  -2.081  1.00  0.00     0.015 C 
ENDBRANCH  18  20
ENDBRANCH  17  18
ENDBRANCH   2  17
TORSDOF 6
