REMARK  5 active torsions:
REMARK  status: ('A' for Active; 'I' for Inactive)
REMARK    1  A    between atoms: C7_10  and  O2_2 
REMARK    2  A    between atoms: C9_12  and  O2_2 
REMARK    3  A    between atoms: C3_6  and  C5_8 
REMARK    4  A    between atoms: C12_15  and  C6_9 
REMARK    5  A    between atoms: C6_9  and  C9_12 
ROOT
HETATM    1  O1  UNK     1      -1.556  -0.745  -1.000  1.00  0.00    -0.274 OA
HETATM    2  O3  UNK     1      -3.696  -1.481  -1.168  1.00  0.00    -0.259 OA
HETATM    3  C1  UNK     1      -0.614  -0.197   1.176  1.00  0.00     0.005 A 
HETATM    4  C2  UNK     1      -1.897  -0.574   1.806  1.00  0.00    -0.037 A 
HETATM    5  C3  UNK     1      -2.926  -0.971   1.028  1.00  0.00     0.024 A 
HETATM    6  C4  UNK     1      -0.488  -0.297  -0.206  1.00  0.00     0.092 A 
HETATM    7  C7  UNK     1       1.782   0.496  -0.155  1.00  0.00     0.071 A 
HETATM    8  C8  UNK     1       0.501   0.273   1.887  1.00  0.00     0.017 A 
HETATM    9  C10 UNK     1       0.689   0.039  -0.881  1.00  0.00     0.075 A 
HETATM   10  C11 UNK     1      -2.780  -1.088  -0.452  1.00  0.00     0.295 A 
HETATM   11  C13 UNK     1      -1.964  -0.504   3.311  1.00  0.00     0.050 C 
HETATM   12  C14 UNK     1       1.688   0.615   1.228  1.00  0.00     0.038 A 
ENDROOT
BRANCH   7  13
HETATM   13  O2  UNK     1       2.936   0.829  -0.793  1.00  0.00    -0.351 OA
BRANCH  13  14
HETATM   14  C9  UNK     1       2.824   1.320  -2.129  1.00  0.00     0.175 C 
BRANCH  14  15
HETATM   15  C6  UNK     1       3.981   2.269  -2.403  1.00  0.00     0.026 C 
BRANCH  15  16
HETATM   16  C12 UNK     1       3.914   2.846  -3.814  1.00  0.00    -0.002 C 
HETATM   17  C16 UNK     1       5.048   3.827  -4.070  1.00  0.00     0.005 C 
ENDBRANCH  15  16
ENDBRANCH  14  15
ENDBRANCH  13  14
ENDBRANCH   7  13
BRANCH   5  18
HETATM   18  C5  UNK     1      -4.303  -1.321   1.533  1.00  0.00     0.041 C 
HETATM   19  C15 UNK     1      -4.408  -2.792   1.873  1.00  0.00     0.010 C 
ENDBRANCH   5  18
TORSDOF 5
