REMARK  3 active torsions:
REMARK  status: ('A' for Active; 'I' for Inactive)
REMARK    1  A    between atoms: C12_17  and  O2_3 
REMARK    2  A    between atoms: C5_10  and  O2_3 
REMARK    3  A    between atoms: C11_16  and  C12_17 
ROOT
HETATM    1 Cl1  UNK     1       0.004   0.955  -3.524  1.00  0.00    -0.081 Cl
HETATM    2  O1  UNK     1      -2.701  -1.485   0.006  1.00  0.00    -0.275 OA
HETATM    3  O3  UNK     1      -3.981  -2.630   1.516  1.00  0.00    -0.260 OA
HETATM    4  C1  UNK     1      -0.879  -0.071   0.814  1.00  0.00     0.007 A 
HETATM    5  C2  UNK     1      -1.227  -0.452   2.190  1.00  0.00    -0.043 A 
HETATM    6  C3  UNK     1      -1.630  -0.601  -0.237  1.00  0.00     0.092 A 
HETATM    7  C4  UNK     1       0.170   0.799   0.488  1.00  0.00     0.054 A 
HETATM    8  C5  UNK     1       0.447   1.118  -0.846  1.00  0.00     0.101 A 
HETATM    9  C6  UNK     1      -1.366  -0.292  -1.572  1.00  0.00     0.065 A 
HETATM   10  C7  UNK     1      -0.320   0.574  -1.875  1.00  0.00     0.070 A 
HETATM   11  C8  UNK     1      -2.250  -1.294   2.391  1.00  0.00     0.090 A 
HETATM   12  C9  UNK     1      -0.440   0.102   3.341  1.00  0.00     0.049 C 
HETATM   13  C10 UNK     1      -3.051  -1.863   1.293  1.00  0.00     0.288 A 
ENDROOT
BRANCH   8  14
HETATM   14  O2  UNK     1       1.478   1.970  -1.112  1.00  0.00    -0.277 OA
BRANCH  14  15
HETATM   15  C12 UNK     1       2.718   1.332  -1.296  1.00  0.00     0.263 C 
HETATM   16  O4  UNK     1       2.909   0.125  -1.236  1.00  0.00    -0.265 OA
BRANCH  15  17
HETATM   17  C11 UNK     1       3.777   2.373  -1.583  1.00  0.00     0.107 C 
HETATM   18  C13 UNK     1       5.142   1.749  -1.815  1.00  0.00     0.015 C 
ENDBRANCH  15  17
ENDBRANCH  14  15
ENDBRANCH   8  14
TORSDOF 3
