REMARK  7 active torsions:
REMARK  status: ('A' for Active; 'I' for Inactive)
REMARK    1  A    between atoms: C19_26  and  O3_3 
REMARK    2  A    between atoms: C27_34  and  O3_3 
REMARK    3  A    between atoms: C5_12  and  N1_5 
REMARK    4  A    between atoms: C6_13  and  N2_6 
REMARK    5  A    between atoms: C5_12  and  C7_14 
REMARK    6  A    between atoms: C6_13  and  C8_15 
REMARK    7  A    between atoms: C13_20  and  C17_24 
ROOT
HETATM    1  N1  UNK     1      -1.436  -1.451   0.057  1.00  0.00     0.096 N 
HETATM    2  N2  UNK     1      -0.128  -0.040  -2.100  1.00  0.00     0.097 N 
HETATM    3  C1  UNK     1      -1.613  -1.864  -1.340  1.00  0.00     0.303 C 
HETATM    4  C2  UNK     1      -0.123  -0.822   0.244  1.00  0.00     0.303 C 
HETATM    5  C3  UNK     1      -1.441  -0.670  -2.287  1.00  0.00     0.303 C 
HETATM    6  C4  UNK     1       0.050   0.371  -0.702  1.00  0.00     0.303 C 
ENDROOT
BRANCH   1   7
HETATM    7  C5  UNK     1      -1.599  -2.590   0.959  1.00  0.00     0.312 C 
BRANCH   7   8
HETATM    8  C7  UNK     1      -1.971  -2.166   2.338  1.00  0.00    -0.011 A 
HETATM    9  C11 UNK     1      -1.032  -1.908   3.259  1.00  0.00     0.092 A 
HETATM   10  C15 UNK     1      -1.351  -1.487   4.634  1.00  0.00     0.288 A 
HETATM   11  O2  UNK     1      -2.695  -1.364   4.952  1.00  0.00    -0.275 OA
HETATM   12  O4  UNK     1      -0.465  -1.259   5.451  1.00  0.00    -0.260 OA
HETATM   13  C12 UNK     1      -3.704  -1.629   4.005  1.00  0.00     0.090 A 
HETATM   14  C9  UNK     1      -3.387  -2.028   2.706  1.00  0.00     0.009 A 
HETATM   15  C18 UNK     1      -5.022  -1.473   4.437  1.00  0.00     0.041 A 
HETATM   16  C14 UNK     1      -4.448  -2.274   1.824  1.00  0.00     0.051 A 
HETATM   17  C19 UNK     1      -5.775  -2.122   2.242  1.00  0.00     0.069 A 
HETATM   18  C20 UNK     1      -6.061  -1.722   3.546  1.00  0.00     0.039 A 
BRANCH  17  19
HETATM   19  O3  UNK     1      -6.792  -2.366   1.370  1.00  0.00    -0.351 OA
BRANCH  19  20
HETATM   20  C27 UNK     1      -6.532  -2.125  -0.012  1.00  0.00     0.171 C 
HETATM   21  C29 UNK     1      -7.826  -1.738  -0.696  1.00  0.00     0.034 C 
ENDBRANCH  19  20
ENDBRANCH  17  19
ENDBRANCH   7   8
ENDBRANCH   1   7
BRANCH   2  22
HETATM   22  C6  UNK     1       0.033   1.099  -3.001  1.00  0.00     0.334 C 
BRANCH  22  23
HETATM   23  C8  UNK     1       1.490   1.362  -3.207  1.00  0.00     0.095 A 
HETATM   24  C10 UNK     1       2.333   0.852  -4.163  1.00  0.00     0.078 A 
HETATM   25  O1  UNK     1       3.571   1.380  -3.954  1.00  0.00    -0.294 OA
HETATM   26  C16 UNK     1       2.185  -0.079  -5.286  1.00  0.00     0.079 C 
HETATM   27  C13 UNK     1       3.396   2.185  -2.871  1.00  0.00     0.180 A 
HETATM   28  N3  UNK     1       2.177   2.216  -2.382  1.00  0.00    -0.224 NA
BRANCH  27  29
HETATM   29  C17 UNK     1       4.573   2.880  -2.428  1.00  0.00     0.024 A 
HETATM   30  C21 UNK     1       5.078   2.692  -1.141  1.00  0.00    -0.047 A 
HETATM   31  C24 UNK     1       6.222   3.378  -0.734  1.00  0.00     0.008 A 
HETATM   32  C25 UNK     1       4.421   1.764  -0.171  1.00  0.00     0.049 C 
HETATM   33  C26 UNK     1       6.861   4.252  -1.614  1.00  0.00     0.007 A 
HETATM   34  C23 UNK     1       6.356   4.440  -2.901  1.00  0.00    -0.061 A 
HETATM   35  C22 UNK     1       5.212   3.754  -3.307  1.00  0.00     0.023 A 
HETATM   36  C28 UNK     1       7.040   5.374  -3.840  1.00  0.00     0.048 C 
ENDBRANCH  27  29
ENDBRANCH  22  23
ENDBRANCH   2  22
TORSDOF 7
