REMARK  5 active torsions:
REMARK  status: ('A' for Active; 'I' for Inactive)
REMARK    1  A    between atoms: C12_20  and  O1_3 
REMARK    2  A    between atoms: C22_30  and  O1_3 
REMARK       I    between atoms: C15_23  and  N1_8 
REMARK    3  A    between atoms: C5_13  and  N1_8 
REMARK    4  A    between atoms: C12_20  and  C3_11 
REMARK    5  A    between atoms: C15_23  and  C16_24 
ROOT
HETATM    1  S1  UNK     1       0.673  -0.269   2.352  1.00  0.00    -0.075 SA
HETATM    2  C1  UNK     1      -1.720  -1.109   1.948  1.00  0.00     0.006 A 
HETATM    3  C2  UNK     1      -3.021  -1.661   2.237  1.00  0.00    -0.023 A 
HETATM    4  C3  UNK     1      -1.230  -0.687   0.678  1.00  0.00     0.085 A 
HETATM    5  C4  UNK     1      -0.787  -0.937   2.946  1.00  0.00    -0.007 A 
HETATM    6  C5  UNK     1       0.041  -0.218   0.775  1.00  0.00     0.094 A 
HETATM    7  C6  UNK     1      -4.070  -0.813   2.583  1.00  0.00     0.019 A 
HETATM    8  C7  UNK     1      -5.328  -1.347   2.864  1.00  0.00    -0.055 A 
HETATM    9  C8  UNK     1      -3.219  -3.037   2.170  1.00  0.00     0.013 A 
HETATM   10  C9  UNK     1      -5.532  -2.725   2.797  1.00  0.00    -0.056 A 
HETATM   11  C10 UNK     1      -4.477  -3.570   2.451  1.00  0.00     0.008 A 
HETATM   12  C11 UNK     1      -0.887  -1.244   4.392  1.00  0.00     0.057 C 
HETATM   13  C13 UNK     1      -6.442  -0.423   3.233  1.00  0.00     0.049 C 
HETATM   14  C14 UNK     1      -6.869  -3.319   3.095  1.00  0.00     0.049 C 
ENDROOT
BRANCH   6  15
HETATM   15  N1  UNK     1       0.897   0.291  -0.206  1.00  0.00    -0.316 N 
HETATM   16  C15 UNK     1       2.192   0.749  -0.004  1.00  0.00     0.262 C 
HETATM   17  O4  UNK     1       2.833   0.800   1.044  1.00  0.00    -0.267 OA
HETATM   18  H7  UNK     1       0.490   0.330  -1.137  1.00  0.00     0.169 HD
BRANCH  16  19
HETATM   19  C16 UNK     1       2.807   1.216  -1.252  1.00  0.00     0.108 A 
HETATM   20  C18 UNK     1       3.714   2.193  -1.135  1.00  0.00     0.037 A 
HETATM   21  C17 UNK     1       4.379   2.722  -2.316  1.00  0.00     0.001 A 
HETATM   22  C19 UNK     1       4.056   2.195  -3.563  1.00  0.00     0.089 A 
HETATM   23  C21 UNK     1       5.331   3.742  -2.241  1.00  0.00     0.038 A 
HETATM   24  O2  UNK     1       3.102   1.166  -3.680  1.00  0.00    -0.274 OA
HETATM   25  C23 UNK     1       4.656   2.658  -4.732  1.00  0.00     0.040 A 
HETATM   26  C20 UNK     1       2.449   0.640  -2.568  1.00  0.00     0.304 A 
HETATM   27  O5  UNK     1       1.619  -0.256  -2.679  1.00  0.00    -0.259 OA
HETATM   28  C25 UNK     1       5.604   3.675  -4.649  1.00  0.00     0.026 A 
HETATM   29  C24 UNK     1       5.941   4.216  -3.406  1.00  0.00     0.035 A 
HETATM   30 Cl1  UNK     1       7.115   5.472  -3.309  1.00  0.00    -0.084 Cl
ENDBRANCH  16  19
ENDBRANCH   6  15
BRANCH   4  31
HETATM   31  C12 UNK     1      -1.962  -0.736  -0.564  1.00  0.00     0.297 C 
HETATM   32  O3  UNK     1      -1.503  -0.358  -1.652  1.00  0.00    -0.259 OA
BRANCH  31  33
HETATM   33  O1  UNK     1      -3.236  -1.246  -0.442  1.00  0.00    -0.318 OA
BRANCH  33  34
HETATM   34  C22 UNK     1      -4.019  -1.323  -1.638  1.00  0.00     0.174 C 
HETATM   35  C26 UNK     1      -5.376  -1.904  -1.303  1.00  0.00     0.034 C 
ENDBRANCH  33  34
ENDBRANCH  31  33
ENDBRANCH   4  31
TORSDOF 5
