REMARK  4 active torsions:
REMARK  status: ('A' for Active; 'I' for Inactive)
REMARK    1  A    between atoms: C16_22  and  O4_4 
REMARK    2  A    between atoms: C20_26  and  O4_4 
REMARK    3  A    between atoms: C7_13  and  N1_5 
REMARK    4  A    between atoms: C1_7  and  C3_9 
ROOT
HETATM    1  O1  UNK     1       1.039  -0.154  -2.510  1.00  0.00    -0.291 OA
HETATM    2  O2  UNK     1       2.044   2.550   0.520  1.00  0.00    -0.274 OA
HETATM    3  O3  UNK     1      -0.162   2.779   1.052  1.00  0.00    -0.259 OA
HETATM    4  N2  UNK     1      -3.755  -0.385  -2.919  1.00  0.00    -0.191 NA
HETATM    5  C1  UNK     1      -1.096   0.859  -0.880  1.00  0.00     0.108 C 
HETATM    6  C2  UNK     1       0.358   1.252  -0.696  1.00  0.00     0.066 A 
HETATM    7  C4  UNK     1       1.311   0.734  -1.485  1.00  0.00     0.104 A 
HETATM    8  C5  UNK     1      -1.317   0.050  -2.154  1.00  0.00     0.086 C 
HETATM    9  C6  UNK     1       2.717   1.082  -1.299  1.00  0.00     0.033 A 
HETATM   10  C7  UNK     1      -0.278  -0.414  -2.885  1.00  0.00     0.159 C 
HETATM   11  C8  UNK     1       0.697   2.247   0.356  1.00  0.00     0.298 A 
HETATM   12  C9  UNK     1       3.045   1.983  -0.290  1.00  0.00     0.092 A 
HETATM   13  C12 UNK     1       3.756   0.556  -2.077  1.00  0.00     0.017 A 
HETATM   14  C15 UNK     1       4.362   2.367  -0.038  1.00  0.00     0.038 A 
HETATM   15  C17 UNK     1      -2.664  -0.190  -2.577  1.00  0.00     0.100 C 
HETATM   16  C18 UNK     1       5.082   0.932  -1.838  1.00  0.00     0.001 A 
HETATM   17  C19 UNK     1       5.384   1.836  -0.819  1.00  0.00     0.003 A 
ENDROOT
BRANCH   5  18
HETATM   18  C3  UNK     1      -1.586   0.088   0.311  1.00  0.00    -0.044 A 
HETATM   19  C10 UNK     1      -2.627   0.597   1.079  1.00  0.00     0.011 A 
HETATM   20  C13 UNK     1      -3.083  -0.119   2.185  1.00  0.00     0.037 A 
HETATM   21  C16 UNK     1      -2.494  -1.339   2.517  1.00  0.00     0.068 A 
HETATM   22  C14 UNK     1      -1.450  -1.843   1.742  1.00  0.00     0.037 A 
HETATM   23  C11 UNK     1      -0.994  -1.127   0.635  1.00  0.00     0.011 A 
BRANCH  21  24
HETATM   24  O4  UNK     1      -2.939  -2.037   3.597  1.00  0.00    -0.352 OA
BRANCH  24  25
HETATM   25  C20 UNK     1      -2.828  -3.459   3.543  1.00  0.00     0.171 C 
HETATM   26  C21 UNK     1      -3.937  -4.072   4.371  1.00  0.00     0.034 C 
ENDBRANCH  24  25
ENDBRANCH  21  24
ENDBRANCH   5  18
BRANCH  10  27
HETATM   27  N1  UNK     1      -0.387  -1.156  -4.029  1.00  0.00    -0.379 N 
HETATM   28  H10 UNK     1      -1.294  -1.410  -4.400  1.00  0.00     0.158 HD
HETATM   29  H9  UNK     1       0.457  -1.453  -4.500  1.00  0.00     0.158 HD
ENDBRANCH  10  27
TORSDOF 4
