REMARK  4 active torsions:
REMARK  status: ('A' for Active; 'I' for Inactive)
REMARK       I    between atoms: C17_27  and  N1_9 
REMARK    1  A    between atoms: C6_16  and  N1_9 
REMARK    2  A    between atoms: C10_20  and  C3_13 
REMARK    3  A    between atoms: C19_29  and  C9_19 
REMARK    4  A    between atoms: C15_25  and  C17_27 
ROOT
HETATM    1  N2  UNK     1      -1.470   0.847  -1.729  1.00  0.00    -0.191 NA
HETATM    2  C10 UNK     1      -0.282  -0.202   1.381  1.00  0.00     0.045 C 
HETATM    3  C15 UNK     1       0.145   0.362   0.235  1.00  0.00     0.113 C 
HETATM    4  C20 UNK     1      -0.749   0.628  -0.846  1.00  0.00     0.105 C 
ENDROOT
BRANCH   3   5
HETATM    5  C17 UNK     1       1.620   0.693   0.144  1.00  0.00     0.266 C 
HETATM    6  O3  UNK     1       2.370   0.455   1.088  1.00  0.00    -0.267 OA
HETATM    7  N1  UNK     1       1.989   1.264  -1.069  1.00  0.00    -0.322 N 
HETATM    8  H6  UNK     1       1.274   1.414  -1.776  1.00  0.00     0.169 HD
BRANCH   7   9
HETATM    9  C6  UNK     1       3.284   1.685  -1.466  1.00  0.00     0.035 A 
HETATM   10  C11 UNK     1       3.457   2.241  -2.721  1.00  0.00     0.045 A 
HETATM   11  C9  UNK     1       4.731   2.655  -3.111  1.00  0.00     0.050 A 
HETATM   12  C16 UNK     1       5.810   2.505  -2.240  1.00  0.00     0.016 A 
HETATM   13  C18 UNK     1       5.616   1.942  -0.979  1.00  0.00     0.003 A 
HETATM   14  C14 UNK     1       4.342   1.528  -0.589  1.00  0.00     0.029 A 
BRANCH  11  15
HETATM   15  C19 UNK     1       4.939   3.258  -4.459  1.00  0.00     0.417 C 
HETATM   16  F1  UNK     1       6.235   3.615  -4.705  1.00  0.00    -0.166 F 
HETATM   17  F2  UNK     1       4.599   2.426  -5.488  1.00  0.00    -0.166 F 
HETATM   18  F3  UNK     1       4.205   4.392  -4.647  1.00  0.00    -0.166 F 
ENDBRANCH  11  15
ENDBRANCH   7   9
ENDBRANCH   3   5
BRANCH   2  19
HETATM   19  C3  UNK     1      -1.631  -0.602   1.690  1.00  0.00     0.039 A 
HETATM   20  C8  UNK     1      -2.494   0.241   2.268  1.00  0.00     0.158 A 
HETATM   21  O1  UNK     1      -3.798  -0.038   2.604  1.00  0.00    -0.319 OA
HETATM   22  C2  UNK     1      -4.271  -1.297   2.327  1.00  0.00     0.111 A 
HETATM   23  C1  UNK     1      -3.486  -2.283   1.726  1.00  0.00     0.052 A 
HETATM   24  C7  UNK     1      -5.595  -1.570   2.671  1.00  0.00     0.070 A 
HETATM   25  C4  UNK     1      -2.090  -1.971   1.370  1.00  0.00     0.197 A 
HETATM   26  C5  UNK     1      -4.021  -3.548   1.468  1.00  0.00     0.042 A 
HETATM   27  O2  UNK     1      -1.367  -2.806   0.842  1.00  0.00    -0.286 OA
HETATM   28  C12 UNK     1      -5.346  -3.818   1.814  1.00  0.00     0.036 A 
HETATM   29 Cl2  UNK     1      -6.014  -5.374   1.499  1.00  0.00    -0.084 Cl
HETATM   30  C13 UNK     1      -6.131  -2.832   2.413  1.00  0.00     0.050 A 
HETATM   31 Cl1  UNK     1      -6.600  -0.380   3.415  1.00  0.00    -0.081 Cl
ENDBRANCH   2  19
TORSDOF 4
