REMARK  3 active torsions:
REMARK  status: ('A' for Active; 'I' for Inactive)
REMARK    1  A    between atoms: C5_11  and  O2_2 
REMARK    2  A    between atoms: C11_17  and  N1_5 
REMARK       I    between atoms: C8_14  and  N1_5 
REMARK    3  A    between atoms: C3_9  and  C8_14 
ROOT
HETATM    1  N2  UNK     1      -4.364  -0.190  -1.417  1.00  0.00    -0.191 NA
HETATM    2  C11 UNK     1      -2.638  -1.248   1.469  1.00  0.00     0.055 A 
HETATM    3  C12 UNK     1      -3.920  -1.226   0.918  1.00  0.00     0.071 A 
HETATM    4  C13 UNK     1      -2.430  -1.812   2.727  1.00  0.00     0.031 A 
HETATM    5  C14 UNK     1      -4.992  -1.768   1.626  1.00  0.00     0.025 A 
HETATM    6  C15 UNK     1      -3.503  -2.353   3.435  1.00  0.00     0.002 A 
HETATM    7  C16 UNK     1      -4.784  -2.331   2.884  1.00  0.00     0.002 A 
HETATM    8  C18 UNK     1      -4.165  -0.653  -0.372  1.00  0.00     0.102 C 
ENDROOT
BRANCH   2   9
HETATM    9  N1  UNK     1      -1.529  -0.706   0.775  1.00  0.00    -0.321 N 
HETATM   10  C8  UNK     1      -0.207  -0.658   1.198  1.00  0.00     0.262 C 
HETATM   11  O4  UNK     1       0.267  -1.074   2.253  1.00  0.00    -0.267 OA
HETATM   12  H5  UNK     1      -1.736  -0.304  -0.136  1.00  0.00     0.169 HD
BRANCH  10  13
HETATM   13  C3  UNK     1       0.668  -0.019   0.208  1.00  0.00     0.108 A 
HETATM   14  C4  UNK     1       1.317   1.079   0.613  1.00  0.00     0.037 A 
HETATM   15  C1  UNK     1       2.208   1.782  -0.297  1.00  0.00     0.002 A 
HETATM   16  C2  UNK     1       2.370   1.295  -1.590  1.00  0.00     0.123 A 
HETATM   17  C6  UNK     1       2.906   2.931   0.083  1.00  0.00     0.014 A 
HETATM   18  O1  UNK     1       1.684   0.139  -2.011  1.00  0.00    -0.271 OA
HETATM   19  C5  UNK     1       3.208   1.922  -2.511  1.00  0.00     0.102 A 
HETATM   20  C7  UNK     1       0.826  -0.555  -1.163  1.00  0.00     0.304 A 
HETATM   21  O3  UNK     1       0.233  -1.561  -1.538  1.00  0.00    -0.259 OA
HETATM   22  C9  UNK     1       3.900   3.067  -2.123  1.00  0.00     0.040 A 
HETATM   23  C10 UNK     1       3.750   3.571  -0.829  1.00  0.00     0.004 A 
BRANCH  19  24
HETATM   24  O2  UNK     1       3.357   1.435  -3.772  1.00  0.00    -0.353 OA
HETATM   25  C17 UNK     1       4.236   2.146  -4.643  1.00  0.00     0.210 C 
ENDBRANCH  19  24
ENDBRANCH  10  13
ENDBRANCH   2   9
TORSDOF 3
