REMARK  4 active torsions:
REMARK  status: ('A' for Active; 'I' for Inactive)
REMARK    1  A    between atoms: C1_7  and  O1_1 
REMARK    2  A    between atoms: C16_22  and  O1_1 
REMARK    3  A    between atoms: C15_21  and  C6_12 
REMARK    4  A    between atoms: C16_22  and  C9_15 
ROOT
HETATM    1  O2  UNK     1      -2.138  -2.500  -1.624  1.00  0.00    -0.293 OA
HETATM    2  N1  UNK     1      -2.800  -0.564   2.647  1.00  0.00    -0.362 N 
HETATM    3  C6  UNK     1      -0.932  -1.074   0.574  1.00  0.00     0.104 C 
HETATM    4  C7  UNK     1      -2.412  -1.429   0.477  1.00  0.00     0.024 C 
HETATM    5  C8  UNK     1      -3.265  -1.142   1.482  1.00  0.00     0.020 C 
HETATM    6  C9  UNK     1      -0.533  -0.569   1.964  1.00  0.00     0.052 C 
HETATM    7  C10 UNK     1      -4.743  -1.423   1.418  1.00  0.00     0.058 C 
HETATM    8  C11 UNK     1      -5.238  -1.573  -0.015  1.00  0.00     0.014 C 
HETATM    9  C12 UNK     1      -1.461  -0.323   2.919  1.00  0.00     0.018 C 
HETATM   10  C13 UNK     1      -4.372  -2.553  -0.786  1.00  0.00     0.084 C 
HETATM   11  C14 UNK     1      -2.911  -2.163  -0.728  1.00  0.00     0.158 C 
HETATM   12  C17 UNK     1      -1.192   0.176   4.313  1.00  0.00     0.069 C 
HETATM   13  H17 UNK     1      -3.472  -0.375   3.382  1.00  0.00     0.165 HD
ENDROOT
BRANCH   3  14
HETATM   14  C15 UNK     1      -0.573  -0.055  -0.473  1.00  0.00     0.029 A 
HETATM   15  C18 UNK     1       0.423  -0.426  -1.511  1.00  0.00     0.194 A 
HETATM   16  O5  UNK     1       0.953  -1.529  -1.538  1.00  0.00    -0.287 OA
HETATM   17  C20 UNK     1       0.740   0.609  -2.512  1.00  0.00     0.049 A 
HETATM   18  C21 UNK     1       0.103   1.847  -2.433  1.00  0.00     0.089 A 
HETATM   19  C22 UNK     1       1.664   0.357  -3.529  1.00  0.00     0.025 A 
HETATM   20  O3  UNK     1      -0.813   2.149  -1.456  1.00  0.00    -0.321 OA
HETATM   21  C23 UNK     1       0.387   2.841  -3.370  1.00  0.00     0.039 A 
HETATM   22  C19 UNK     1      -1.098   1.176  -0.530  1.00  0.00     0.154 A 
HETATM   23  C25 UNK     1       1.309   2.592  -4.386  1.00  0.00     0.009 A 
HETATM   24  C24 UNK     1       1.946   1.352  -4.465  1.00  0.00    -0.061 A 
HETATM   25  C26 UNK     1       2.931   1.092  -5.555  1.00  0.00     0.048 C 
ENDBRANCH   3  14
BRANCH   6  26
HETATM   26  C16 UNK     1       0.909  -0.380   2.194  1.00  0.00     0.292 C 
HETATM   27  O4  UNK     1       1.639  -1.256   2.619  1.00  0.00    -0.259 OA
BRANCH  26  28
HETATM   28  O1  UNK     1       1.233   0.891   1.855  1.00  0.00    -0.312 OA
BRANCH  28  29
HETATM   29  C1  UNK     1       2.595   1.227   2.022  1.00  0.00     0.132 C 
HETATM   30  C2  UNK     1       3.496   0.399   1.119  1.00  0.00     0.032 C 
HETATM   31  C4  UNK     1       4.774   1.222   1.013  1.00  0.00     0.002 C 
HETATM   32  C5  UNK     1       4.373   2.669   1.309  1.00  0.00     0.002 C 
HETATM   33  C3  UNK     1       2.869   2.646   1.552  1.00  0.00     0.032 C 
ENDBRANCH  28  29
ENDBRANCH  26  28
ENDBRANCH   6  26
TORSDOF 4
