REMARK  3 active torsions:
REMARK  status: ('A' for Active; 'I' for Inactive)
REMARK    1  A    between atoms: C7_11  and  O2_2 
REMARK    2  A    between atoms: C15_19  and  O4_4 
REMARK    3  A    between atoms: C3_7  and  C4_8 
ROOT
HETATM    1  O1  UNK     1       0.144   0.215   0.782  1.00  0.00    -0.309 OA
HETATM    2  O3  UNK     1      -2.849  -1.253  -1.560  1.00  0.00    -0.287 OA
HETATM    3  C1  UNK     1      -2.014  -0.889   0.621  1.00  0.00     0.081 A 
HETATM    4  C2  UNK     1      -0.955  -0.366   1.362  1.00  0.00     0.093 A 
HETATM    5  C3  UNK     1       0.207   0.275  -0.602  1.00  0.00     0.090 A 
HETATM    6  C5  UNK     1      -1.955  -0.818  -0.847  1.00  0.00     0.190 A 
HETATM    7  C6  UNK     1      -0.750  -0.187  -1.422  1.00  0.00     0.094 A 
HETATM    8  C7  UNK     1      -3.109  -1.468   1.265  1.00  0.00     0.082 A 
HETATM    9  C8  UNK     1      -0.987  -0.419   2.756  1.00  0.00     0.038 A 
HETATM   10  C11 UNK     1      -3.138  -1.520   2.659  1.00  0.00     0.037 A 
HETATM   11  C12 UNK     1      -2.080  -0.997   3.403  1.00  0.00     0.006 A 
ENDROOT
BRANCH   5  12
HETATM   12  C4  UNK     1       1.429   0.923  -1.119  1.00  0.00    -0.002 A 
HETATM   13  C10 UNK     1       2.627   0.833  -0.406  1.00  0.00     0.017 A 
HETATM   14  C14 UNK     1       3.781   1.445  -0.894  1.00  0.00     0.037 A 
HETATM   15  C15 UNK     1       3.741   2.148  -2.098  1.00  0.00     0.065 A 
HETATM   16  C13 UNK     1       2.547   2.240  -2.813  1.00  0.00     0.037 A 
HETATM   17  C9  UNK     1       1.392   1.629  -2.324  1.00  0.00     0.017 A 
BRANCH  15  18
HETATM   18  O4  UNK     1       4.867   2.745  -2.575  1.00  0.00    -0.361 OA
HETATM   19  H10 UNK     1       4.658   3.186  -3.417  1.00  0.00     0.217 HD
ENDBRANCH  15  18
ENDBRANCH   5  12
BRANCH   8  20
HETATM   20  O2  UNK     1      -4.167  -1.992   0.585  1.00  0.00    -0.360 OA
HETATM   21  H9  UNK     1      -4.036  -1.902  -0.371  1.00  0.00     0.217 HD
ENDBRANCH   8  20
TORSDOF 3
