REMARK  3 active torsions:
REMARK  status: ('A' for Active; 'I' for Inactive)
REMARK    1  A    between atoms: C8_14  and  O2_2 
REMARK       I    between atoms: C14_20  and  N1_6 
REMARK    2  A    between atoms: C5_11  and  N1_6 
REMARK    3  A    between atoms: C13_19  and  C14_20 
ROOT
HETATM    1  O1  UNK     1       2.084   1.883  -3.403  1.00  0.00    -0.309 OA
HETATM    2  C1  UNK     1       3.183   1.556  -1.454  1.00  0.00     0.014 A 
HETATM    3  C2  UNK     1       4.090   2.135  -2.390  1.00  0.00     0.011 A 
HETATM    4  C3  UNK     1       1.972   1.424  -2.125  1.00  0.00     0.089 A 
HETATM    5  C4  UNK     1       3.366   2.314  -3.564  1.00  0.00     0.087 A 
HETATM    6  C5  UNK     1       0.911   0.479  -0.224  1.00  0.00     0.071 A 
HETATM    7  C6  UNK     1       3.255   1.130  -0.115  1.00  0.00     0.054 A 
HETATM    8  C7  UNK     1       0.815   0.895  -1.555  1.00  0.00     0.070 A 
HETATM    9  C8  UNK     1       2.109   0.594   0.486  1.00  0.00     0.096 A 
HETATM   10  C9  UNK     1       5.441   2.526  -2.371  1.00  0.00     0.015 A 
HETATM   11  C10 UNK     1       3.894   2.860  -4.733  1.00  0.00     0.038 A 
HETATM   12  C11 UNK     1       6.001   3.078  -3.531  1.00  0.00     0.001 A 
HETATM   13  C12 UNK     1       5.239   3.241  -4.690  1.00  0.00     0.003 A 
ENDROOT
BRANCH   6  14
HETATM   14  N1  UNK     1      -0.222  -0.059   0.393  1.00  0.00    -0.320 N 
HETATM   15  C14 UNK     1      -1.489  -0.248  -0.160  1.00  0.00     0.262 C 
HETATM   16  O4  UNK     1      -1.869   0.018  -1.294  1.00  0.00    -0.267 OA
HETATM   17  H5  UNK     1      -0.071  -0.361   1.352  1.00  0.00     0.169 HD
BRANCH  15  18
HETATM   18  C13 UNK     1      -2.439  -0.848   0.800  1.00  0.00     0.108 A 
HETATM   19  C16 UNK     1      -3.403  -1.615   0.277  1.00  0.00     0.037 A 
HETATM   20  C15 UNK     1      -4.385  -2.249   1.142  1.00  0.00    -0.001 A 
HETATM   21  C17 UNK     1      -4.304  -2.045   2.515  1.00  0.00     0.089 A 
HETATM   22  C19 UNK     1      -5.408  -3.057   0.640  1.00  0.00     0.014 A 
HETATM   23  O3  UNK     1      -3.287  -1.237   3.060  1.00  0.00    -0.274 OA
HETATM   24  C20 UNK     1      -5.214  -2.623   3.398  1.00  0.00     0.038 A 
HETATM   25  C18 UNK     1      -2.333  -0.617   2.258  1.00  0.00     0.304 A 
HETATM   26  O5  UNK     1      -1.451   0.085   2.741  1.00  0.00    -0.259 OA
HETATM   27  C23 UNK     1      -6.231  -3.427   2.889  1.00  0.00     0.003 A 
HETATM   28  C21 UNK     1      -6.329  -3.644   1.513  1.00  0.00     0.001 A 
ENDBRANCH  15  18
ENDBRANCH   6  14
BRANCH   9  29
HETATM   29  O2  UNK     1       2.187   0.183   1.786  1.00  0.00    -0.354 OA
HETATM   30  C22 UNK     1       1.883   1.150   2.787  1.00  0.00     0.210 C 
ENDBRANCH   9  29
TORSDOF 3
