REMARK  3 active torsions:
REMARK  status: ('A' for Active; 'I' for Inactive)
REMARK    1  A    between atoms: C5_13  and  N1_6 
REMARK       I    between atoms: C6_14  and  N2_7 
REMARK    2  A    between atoms: C14_22  and  N3_8 
REMARK    3  A    between atoms: C6_14  and  C7_15 
ROOT
HETATM    1  O1  UNK     1      -0.044   1.911  -3.657  1.00  0.00    -0.267 OA
HETATM    2  N1  UNK     1      -2.031  -0.726   0.168  1.00  0.00    -0.378 N 
HETATM    3  N2  UNK     1      -0.323   0.556  -1.786  1.00  0.00    -0.345 N 
HETATM    4  C1  UNK     1      -2.527   0.360  -0.682  1.00  0.00     0.143 C 
HETATM    5  C2  UNK     1      -0.685  -1.243  -0.086  1.00  0.00     0.143 C 
HETATM    6  C3  UNK     1      -1.760   0.405  -2.002  1.00  0.00     0.146 C 
HETATM    7  C4  UNK     1       0.230  -0.139  -0.619  1.00  0.00     0.146 C 
HETATM    8  C6  UNK     1       0.420   1.328  -2.676  1.00  0.00     0.260 C 
ENDROOT
BRANCH   8   9
HETATM    9  C7  UNK     1       1.867   1.460  -2.410  1.00  0.00     0.108 A 
HETATM   10  C10 UNK     1       2.235   2.487  -1.635  1.00  0.00     0.037 A 
HETATM   11  C15 UNK     1       3.638   2.700  -1.317  1.00  0.00    -0.001 A 
HETATM   12  C16 UNK     1       4.586   1.821  -1.831  1.00  0.00     0.089 A 
HETATM   13  C17 UNK     1       4.067   3.759  -0.512  1.00  0.00     0.014 A 
HETATM   14  O2  UNK     1       4.193   0.742  -2.646  1.00  0.00    -0.274 OA
HETATM   15  C18 UNK     1       5.945   1.970  -1.564  1.00  0.00     0.038 A 
HETATM   16  C13 UNK     1       2.858   0.513  -2.968  1.00  0.00     0.304 A 
HETATM   17  O3  UNK     1       2.525  -0.429  -3.679  1.00  0.00    -0.259 OA
HETATM   18  C20 UNK     1       6.365   3.028  -0.761  1.00  0.00     0.003 A 
HETATM   19  C19 UNK     1       5.428   3.920  -0.235  1.00  0.00     0.001 A 
ENDBRANCH   8   9
BRANCH   2  20
HETATM   20  C5  UNK     1      -2.849  -1.287   1.146  1.00  0.00     0.030 A 
HETATM   21  C8  UNK     1      -3.853  -0.529   1.793  1.00  0.00     0.032 A 
HETATM   22  C11 UNK     1      -4.671  -1.091   2.772  1.00  0.00     0.038 A 
HETATM   23  C14 UNK     1      -4.508  -2.429   3.134  1.00  0.00     0.103 A 
HETATM   24  C12 UNK     1      -3.527  -3.204   2.515  1.00  0.00     0.038 A 
HETATM   25  C9  UNK     1      -2.709  -2.641   1.535  1.00  0.00     0.032 A 
BRANCH  23  26
HETATM   26  N3  UNK     1      -5.341  -3.001   4.131  1.00  0.00    -0.116 N 
HETATM   27  O4  UNK     1      -6.218  -2.287   4.675  1.00  0.00    -0.532 OA
HETATM   28  O5  UNK     1      -5.178  -4.206   4.441  1.00  0.00    -0.532 OA
ENDBRANCH  23  26
ENDBRANCH   2  20
TORSDOF 3
