REMARK  6 active torsions:
REMARK  status: ('A' for Active; 'I' for Inactive)
REMARK    1  A    between atoms: C1_3  and  N1_2 
REMARK    2  A    between atoms: C2_4  and  N1_2 
REMARK       I    between atoms: C3_5  and  N1_2 
REMARK    3  A    between atoms: C1_3  and  C4_6 
REMARK    4  A    between atoms: C3_5  and  C5_7 
REMARK    5  A    between atoms: C5_7  and  C6_8 
REMARK    6  A    between atoms: C11_13  and  C8_10 
ROOT
HETATM    1  C5  UNK     1      -0.633   0.474   0.730  1.00  0.00     0.043 C 
HETATM    2  C8  UNK     1      -1.160  -0.052   1.855  1.00  0.00     0.029 C 
ENDROOT
BRANCH   1   3
HETATM    3  C3  UNK     1       0.378   1.570   0.864  1.00  0.00     0.255 C 
HETATM    4  O1  UNK     1      -0.022   2.732   0.955  1.00  0.00    -0.267 OA
HETATM    5  N1  UNK     1       1.721   1.187   0.850  1.00  0.00    -0.344 N 
BRANCH   5   6
HETATM    6  C1  UNK     1       2.769   2.046   0.315  1.00  0.00     0.164 C 
BRANCH   6   7
HETATM    7  C4  UNK     1       2.997   1.809  -1.150  1.00  0.00    -0.040 A 
HETATM    8  C10 UNK     1       2.277   2.542  -2.085  1.00  0.00     0.009 A 
HETATM    9  C15 UNK     1       2.490   2.322  -3.446  1.00  0.00     0.001 A 
HETATM   10  C16 UNK     1       3.421   1.370  -3.862  1.00  0.00     0.000 A 
HETATM   11  C14 UNK     1       4.139   0.638  -2.917  1.00  0.00     0.001 A 
HETATM   12  C9  UNK     1       3.927   0.858  -1.556  1.00  0.00     0.009 A 
ENDBRANCH   6   7
ENDBRANCH   5   6
BRANCH   5  13
HETATM   13  C2  UNK     1       2.170  -0.103   1.369  1.00  0.00     0.122 C 
HETATM   14  C7  UNK     1       2.519  -0.017   2.841  1.00  0.00     0.026 C 
ENDBRANCH   5  13
ENDBRANCH   1   3
BRANCH   1  15
HETATM   15  C6  UNK     1      -1.111   0.064  -0.613  1.00  0.00    -0.021 A 
HETATM   16  C12 UNK     1      -2.152   0.760  -1.194  1.00  0.00     0.012 A 
HETATM   17  C17 UNK     1      -2.601   0.375  -2.458  1.00  0.00     0.001 A 
HETATM   18  C21 UNK     1      -1.999  -0.698  -3.114  1.00  0.00     0.000 A 
HETATM   19  C18 UNK     1      -0.949  -1.387  -2.508  1.00  0.00     0.001 A 
HETATM   20  C13 UNK     1      -0.500  -1.002  -1.244  1.00  0.00     0.012 A 
ENDBRANCH   1  15
BRANCH   2  21
HETATM   21  C11 UNK     1      -2.230  -1.057   1.926  1.00  0.00    -0.035 A 
HETATM   22  C19 UNK     1      -3.551  -0.641   2.008  1.00  0.00     0.011 A 
HETATM   23  C22 UNK     1      -4.567  -1.595   2.075  1.00  0.00     0.001 A 
HETATM   24  C24 UNK     1      -4.250  -2.953   2.059  1.00  0.00     0.000 A 
HETATM   25  C23 UNK     1      -2.918  -3.358   1.975  1.00  0.00     0.001 A 
HETATM   26  C20 UNK     1      -1.902  -2.404   1.909  1.00  0.00     0.011 A 
ENDBRANCH   2  21
TORSDOF 6
