REMARK  5 active torsions:
REMARK  status: ('A' for Active; 'I' for Inactive)
REMARK    1  A    between atoms: C17_25  and  O1_2 
REMARK    2  A    between atoms: C4_12  and  O1_2 
REMARK    3  A    between atoms: C1_9  and  C15_23 
REMARK    4  A    between atoms: C16_24  and  C2_10 
REMARK    5  A    between atoms: C12_20  and  C17_25 
ROOT
HETATM    1  O3  UNK     1       3.001  -1.700  -0.452  1.00  0.00    -0.293 OA
HETATM    2  N1  UNK     1       1.640   2.307   1.664  1.00  0.00    -0.362 N 
HETATM    3  C1  UNK     1       1.036  -0.428   1.210  1.00  0.00     0.104 C 
HETATM    4  C2  UNK     1       4.134   1.736  -1.119  1.00  0.00     0.056 C 
HETATM    5  C3  UNK     1       2.215   0.292   0.561  1.00  0.00     0.024 C 
HETATM    6  C5  UNK     1       3.579   2.368   0.164  1.00  0.00     0.069 C 
HETATM    7  C6  UNK     1       2.448   1.600   0.794  1.00  0.00     0.021 C 
HETATM    8  C9  UNK     1       4.308   0.225  -0.975  1.00  0.00     0.095 C 
HETATM    9  C12 UNK     1       0.316   0.434   2.248  1.00  0.00     0.052 C 
HETATM   10  C13 UNK     1       3.146  -0.485  -0.311  1.00  0.00     0.159 C 
HETATM   11  C14 UNK     1       0.620   1.742   2.413  1.00  0.00     0.018 C 
HETATM   12  C18 UNK     1      -0.065   2.678   3.371  1.00  0.00     0.069 C 
HETATM   13  H16 UNK     1       1.850   3.286   1.817  1.00  0.00     0.165 HD
ENDROOT
BRANCH   3  14
HETATM   14  C15 UNK     1       0.063  -0.893   0.161  1.00  0.00     0.029 A 
HETATM   15  C19 UNK     1      -0.608   0.125  -0.686  1.00  0.00     0.194 A 
HETATM   16  O6  UNK     1      -0.394   1.323  -0.555  1.00  0.00    -0.287 OA
HETATM   17  C22 UNK     1      -1.551  -0.385  -1.698  1.00  0.00     0.050 A 
HETATM   18  C26 UNK     1      -2.233   0.494  -2.544  1.00  0.00     0.042 A 
HETATM   19  C24 UNK     1      -1.756  -1.761  -1.802  1.00  0.00     0.089 A 
HETATM   20  C28 UNK     1      -3.120  -0.013  -3.494  1.00  0.00     0.035 A 
HETATM   21 Cl1  UNK     1      -3.965   1.061  -4.541  1.00  0.00    -0.084 Cl
HETATM   22  C29 UNK     1      -3.325  -1.390  -3.599  1.00  0.00     0.026 A 
HETATM   23  C27 UNK     1      -2.644  -2.265  -2.753  1.00  0.00     0.040 A 
HETATM   24  O4  UNK     1      -1.114  -2.669  -0.999  1.00  0.00    -0.321 OA
HETATM   25  C20 UNK     1      -0.239  -2.179  -0.061  1.00  0.00     0.154 A 
ENDBRANCH   3  14
BRANCH   9  26
HETATM   26  C17 UNK     1      -0.681  -0.242   3.095  1.00  0.00     0.292 C 
HETATM   27  O5  UNK     1      -0.402  -0.802   4.138  1.00  0.00    -0.259 OA
BRANCH  26  28
HETATM   28  O1  UNK     1      -1.895  -0.117   2.507  1.00  0.00    -0.312 OA
BRANCH  28  29
HETATM   29  C4  UNK     1      -2.973  -0.724   3.213  1.00  0.00     0.132 C 
HETATM   30  C7  UNK     1      -2.741  -2.234   3.321  1.00  0.00     0.032 C 
HETATM   31  C10 UNK     1      -3.856  -2.890   2.508  1.00  0.00     0.002 C 
HETATM   32  C11 UNK     1      -4.355  -1.800   1.575  1.00  0.00     0.002 C 
HETATM   33  C8  UNK     1      -4.273  -0.547   2.435  1.00  0.00     0.032 C 
ENDBRANCH  28  29
ENDBRANCH  26  28
ENDBRANCH   9  26
BRANCH   4  34
HETATM   34  C16 UNK     1       3.354   2.175  -2.361  1.00  0.00     0.057 A 
HETATM   35  O2  UNK     1       2.063   1.775  -2.415  1.00  0.00    -0.327 OA
HETATM   36  C25 UNK     1       1.565   2.265  -3.581  1.00  0.00     0.142 A 
HETATM   37  C23 UNK     1       2.532   2.969  -4.260  1.00  0.00     0.027 A 
HETATM   38  C21 UNK     1       3.698   2.908  -3.460  1.00  0.00     0.035 A 
ENDBRANCH   4  34
TORSDOF 5
