REMARK  6 active torsions:
REMARK  status: ('A' for Active; 'I' for Inactive)
REMARK    1  A    between atoms: C5_14  and  N1_7 
REMARK    2  A    between atoms: C6_15  and  N2_8 
REMARK    3  A    between atoms: C17_26  and  N3_9 
REMARK       I    between atoms: C9_18  and  N3_9 
REMARK    4  A    between atoms: C5_14  and  C7_16 
REMARK    5  A    between atoms: C6_15  and  C9_18 
REMARK    6  A    between atoms: C18_27  and  C22_31 
ROOT
HETATM    1  N1  UNK     1       2.313  -0.248  -0.915  1.00  0.00     0.096 N 
HETATM    2  N2  UNK     1       0.061  -1.808   0.009  1.00  0.00     0.100 N 
HETATM    3  C1  UNK     1       1.607   0.094   0.326  1.00  0.00     0.303 C 
HETATM    4  C2  UNK     1       2.228  -1.690  -1.173  1.00  0.00     0.303 C 
HETATM    5  C3  UNK     1       0.145  -0.365   0.266  1.00  0.00     0.303 C 
HETATM    6  C4  UNK     1       0.767  -2.149  -1.232  1.00  0.00     0.303 C 
ENDROOT
BRANCH   2   7
HETATM    7  C6  UNK     1      -1.333  -2.244  -0.049  1.00  0.00     0.375 C 
BRANCH   7   8
HETATM    8  C9  UNK     1      -1.891  -2.340   1.360  1.00  0.00     0.250 C 
HETATM    9  O2  UNK     1      -1.192  -2.606   2.332  1.00  0.00    -0.271 OA
HETATM   10  N3  UNK     1      -3.260  -2.080   1.354  1.00  0.00    -0.325 N 
HETATM   11  H15 UNK     1      -3.691  -1.878   0.455  1.00  0.00     0.169 HD
BRANCH  10  12
HETATM   12  C17 UNK     1      -4.142  -2.072   2.461  1.00  0.00     0.049 A 
HETATM   13  C18 UNK     1      -5.498  -1.791   2.293  1.00  0.00     0.074 A 
HETATM   14  C21 UNK     1      -6.352  -1.787   3.397  1.00  0.00     0.018 A 
HETATM   15  C24 UNK     1      -5.849  -2.064   4.668  1.00  0.00     0.001 A 
HETATM   16  C23 UNK     1      -4.493  -2.345   4.836  1.00  0.00     0.002 A 
HETATM   17  C20 UNK     1      -3.640  -2.348   3.732  1.00  0.00     0.030 A 
BRANCH  13  18
HETATM   18  C22 UNK     1      -6.065  -1.491   0.943  1.00  0.00     0.419 C 
HETATM   19  F1  UNK     1      -7.406  -1.240   0.959  1.00  0.00    -0.166 F 
HETATM   20  F2  UNK     1      -5.502  -0.400   0.348  1.00  0.00    -0.166 F 
HETATM   21  F3  UNK     1      -5.893  -2.520   0.064  1.00  0.00    -0.166 F 
ENDBRANCH  13  18
ENDBRANCH  10  12
ENDBRANCH   7   8
ENDBRANCH   2   7
BRANCH   1  22
HETATM   22  C5  UNK     1       3.707   0.187  -0.855  1.00  0.00     0.312 C 
BRANCH  22  23
HETATM   23  C7  UNK     1       3.848   1.654  -1.073  1.00  0.00    -0.011 A 
HETATM   24  C10 UNK     1       3.810   2.514  -0.045  1.00  0.00     0.092 A 
HETATM   25  C13 UNK     1       3.945   3.971  -0.211  1.00  0.00     0.288 A 
HETATM   26  O1  UNK     1       4.118   4.437  -1.505  1.00  0.00    -0.275 OA
HETATM   27  O3  UNK     1       3.906   4.727   0.753  1.00  0.00    -0.260 OA
HETATM   28  C11 UNK     1       4.162   3.557  -2.606  1.00  0.00     0.090 A 
HETATM   29  C8  UNK     1       4.032   2.178  -2.433  1.00  0.00     0.006 A 
HETATM   30  C14 UNK     1       4.340   4.138  -3.863  1.00  0.00     0.045 A 
HETATM   31  C12 UNK     1       4.087   1.372  -3.577  1.00  0.00     0.015 A 
HETATM   32  C16 UNK     1       4.264   1.939  -4.844  1.00  0.00     0.007 A 
HETATM   33  C15 UNK     1       4.391   3.320  -4.987  1.00  0.00    -0.059 A 
HETATM   34  C19 UNK     1       4.581   3.917  -6.339  1.00  0.00     0.048 C 
ENDBRANCH  22  23
ENDBRANCH   1  22
TORSDOF 6
