REMARK  5 active torsions:
REMARK  status: ('A' for Active; 'I' for Inactive)
REMARK    1  A    between atoms: C13_21  and  O2_3 
REMARK    2  A    between atoms: C18_26  and  O2_3 
REMARK    3  A    between atoms: C12_20  and  C6_14 
REMARK    4  A    between atoms: C10_18  and  C13_21 
REMARK    5  A    between atoms: C14_22  and  C18_26 
ROOT
HETATM    1  O1  UNK     1      -0.717  -3.382   0.733  1.00  0.00    -0.293 OA
HETATM    2  N1  UNK     1      -3.620   0.187  -0.383  1.00  0.00    -0.362 N 
HETATM    3  C1  UNK     1      -3.619  -2.159   2.582  1.00  0.00    -0.036 C 
HETATM    4  C2  UNK     1      -4.249  -1.328   1.446  1.00  0.00     0.067 C 
HETATM    5  C3  UNK     1      -2.754  -3.273   1.974  1.00  0.00     0.092 C 
HETATM    6  C4  UNK     1      -3.262  -0.901   0.390  1.00  0.00     0.021 C 
HETATM    7  C5  UNK     1      -2.086  -1.527   0.179  1.00  0.00     0.024 C 
HETATM    8  C6  UNK     1      -1.101  -1.026  -0.873  1.00  0.00     0.104 C 
HETATM    9  C7  UNK     1      -1.755  -2.760   0.957  1.00  0.00     0.159 C 
HETATM   10  C8  UNK     1      -4.740  -2.791   3.427  1.00  0.00     0.015 C 
HETATM   11  C9  UNK     1      -2.770  -1.263   3.510  1.00  0.00     0.015 C 
HETATM   12  C10 UNK     1      -1.686   0.087  -1.744  1.00  0.00     0.052 C 
HETATM   13  C11 UNK     1      -2.881   0.654  -1.458  1.00  0.00     0.018 C 
HETATM   14  C15 UNK     1      -3.515   1.784  -2.224  1.00  0.00     0.069 C 
HETATM   15  H12 UNK     1      -4.514   0.627  -0.197  1.00  0.00     0.165 HD
ENDROOT
BRANCH   8  16
HETATM   16  C12 UNK     1       0.171  -0.557  -0.219  1.00  0.00     0.029 A 
HETATM   17  C17 UNK     1       0.102   0.583   0.729  1.00  0.00     0.194 A 
HETATM   18  C22 UNK     1       1.376   1.002   1.341  1.00  0.00     0.050 A 
HETATM   19  O6  UNK     1      -0.951   1.149   0.991  1.00  0.00    -0.287 OA
HETATM   20  C23 UNK     1       2.546   0.320   1.005  1.00  0.00     0.089 A 
HETATM   21  C24 UNK     1       1.417   2.065   2.246  1.00  0.00     0.042 A 
HETATM   22  C25 UNK     1       3.764   0.698   1.573  1.00  0.00     0.040 A 
HETATM   23  O4  UNK     1       2.565  -0.731   0.123  1.00  0.00    -0.321 OA
HETATM   24  C27 UNK     1       3.806   1.760   2.477  1.00  0.00     0.026 A 
HETATM   25  C26 UNK     1       2.636   2.442   2.812  1.00  0.00     0.035 A 
HETATM   26 Cl1  UNK     1       2.696   3.751   3.929  1.00  0.00    -0.084 Cl
HETATM   27  C20 UNK     1       1.371  -1.109  -0.440  1.00  0.00     0.154 A 
ENDBRANCH   8  16
BRANCH  12  28
HETATM   28  C13 UNK     1      -0.912   0.468  -2.938  1.00  0.00     0.292 C 
HETATM   29  O5  UNK     1      -1.033  -0.082  -4.016  1.00  0.00    -0.259 OA
BRANCH  28  30
HETATM   30  O2  UNK     1      -0.092   1.494  -2.605  1.00  0.00    -0.315 OA
BRANCH  30  31
HETATM   31  C18 UNK     1       0.732   1.981  -3.670  1.00  0.00     0.211 C 
BRANCH  31  32
HETATM   32  C14 UNK     1       2.039   1.212  -3.674  1.00  0.00     0.145 C 
HETATM   33  C16 UNK     1       2.991   1.642  -4.777  1.00  0.00     0.036 C 
HETATM   34  C19 UNK     1       4.326   1.260  -4.187  1.00  0.00     0.029 C 
HETATM   35  C21 UNK     1       4.132   1.605  -2.725  1.00  0.00     0.168 C 
HETATM   36  O3  UNK     1       2.737   1.429  -2.435  1.00  0.00    -0.384 OA
ENDBRANCH  31  32
ENDBRANCH  30  31
ENDBRANCH  28  30
ENDBRANCH  12  28
TORSDOF 5
