REMARK  5 active torsions:
REMARK  status: ('A' for Active; 'I' for Inactive)
REMARK    1  A    between atoms: C5_11  and  O2_2 
REMARK    2  A    between atoms: C8_14  and  O3_3 
REMARK    3  A    between atoms: C11_17  and  O5_5 
REMARK    4  A    between atoms: C13_19  and  O6_6 
REMARK    5  A    between atoms: C1_7  and  C4_10 
ROOT
HETATM    1  O1  UNK     1      -0.403   0.196  -1.103  1.00  0.00    -0.306 OA
HETATM    2  O4  UNK     1       2.013   2.559   1.174  1.00  0.00    -0.284 OA
HETATM    3  C1  UNK     1      -0.691   0.456   0.227  1.00  0.00     0.126 A 
HETATM    4  C2  UNK     1       1.582   1.582  -0.929  1.00  0.00     0.053 A 
HETATM    5  C3  UNK     1       0.718   0.764  -1.653  1.00  0.00     0.090 A 
HETATM    6  C5  UNK     1       0.065   1.219   1.037  1.00  0.00     0.152 A 
HETATM    7  C6  UNK     1       1.288   1.852   0.486  1.00  0.00     0.220 A 
HETATM    8  C7  UNK     1       2.710   2.134  -1.542  1.00  0.00     0.055 A 
HETATM    9  C9  UNK     1       0.976   0.491  -2.997  1.00  0.00     0.041 A 
HETATM   10  C11 UNK     1       2.966   1.860  -2.886  1.00  0.00     0.066 A 
HETATM   11  C12 UNK     1       2.101   1.040  -3.612  1.00  0.00     0.039 A 
ENDROOT
BRANCH   3  12
HETATM   12  C4  UNK     1      -1.919  -0.215   0.690  1.00  0.00     0.037 A 
HETATM   13  C10 UNK     1      -3.138   0.459   0.589  1.00  0.00     0.017 A 
HETATM   14  C14 UNK     1      -4.314  -0.154   1.021  1.00  0.00     0.004 A 
HETATM   15  C15 UNK     1      -4.274  -1.443   1.554  1.00  0.00     0.039 A 
HETATM   16  C13 UNK     1      -3.058  -2.118   1.656  1.00  0.00     0.099 A 
HETATM   17  C8  UNK     1      -1.882  -1.505   1.225  1.00  0.00     0.112 A 
BRANCH  16  18
HETATM   18  O6  UNK     1      -3.034  -3.375   2.180  1.00  0.00    -0.358 OA
HETATM   19  H10 UNK     1      -2.146  -3.569   2.521  1.00  0.00     0.217 HD
ENDBRANCH  16  18
BRANCH  17  20
HETATM   20  O3  UNK     1      -0.699  -2.177   1.331  1.00  0.00    -0.357 OA
HETATM   21  H8  UNK     1      -0.866  -3.133   1.338  1.00  0.00     0.217 HD
ENDBRANCH  17  20
ENDBRANCH   3  12
BRANCH   6  22
HETATM   22  O2  UNK     1      -0.232   1.431   2.365  1.00  0.00    -0.355 OA
HETATM   23  H7  UNK     1      -1.049   0.962   2.599  1.00  0.00     0.218 HD
ENDBRANCH   6  22
BRANCH  10  24
HETATM   24  O5  UNK     1       4.063   2.393  -3.492  1.00  0.00    -0.361 OA
HETATM   25  H9  UNK     1       4.549   2.933  -2.845  1.00  0.00     0.217 HD
ENDBRANCH  10  24
TORSDOF 5
