REMARK  6 active torsions:
REMARK  status: ('A' for Active; 'I' for Inactive)
REMARK    1  A    between atoms: C7_12  and  N2_4 
REMARK       I    between atoms: C9_14  and  N2_4 
REMARK    2  A    between atoms: C1_6  and  C2_7 
REMARK    3  A    between atoms: C2_7  and  C5_10 
REMARK    4  A    between atoms: C6_11  and  C8_13 
REMARK    5  A    between atoms: C6_11  and  C9_14 
REMARK    6  A    between atoms: C10_15  and  C11_16 
ROOT
HETATM    1  C6  UNK     1      -1.425  -0.651  -0.092  1.00  0.00     0.043 C 
HETATM    2  C10 UNK     1      -2.659  -1.093  -0.411  1.00  0.00     0.029 C 
ENDROOT
BRANCH   1   3
HETATM    3  C8  UNK     1      -0.950  -0.550   1.303  1.00  0.00    -0.021 A 
HETATM    4  C12 UNK     1      -0.312  -1.635   1.879  1.00  0.00     0.012 A 
HETATM    5  C16 UNK     1       0.136  -1.540   3.197  1.00  0.00     0.001 A 
HETATM    6  C18 UNK     1      -0.061  -0.362   3.917  1.00  0.00     0.000 A 
HETATM    7  C17 UNK     1      -0.706   0.721   3.320  1.00  0.00     0.001 A 
HETATM    8  C13 UNK     1      -1.154   0.626   2.003  1.00  0.00     0.012 A 
ENDBRANCH   1   3
BRANCH   1   9
HETATM    9  C9  UNK     1      -0.556  -0.225  -1.254  1.00  0.00     0.258 C 
HETATM   10  O1  UNK     1      -0.974  -0.327  -2.404  1.00  0.00    -0.267 OA
HETATM   11  N2  UNK     1       0.707   0.258  -0.867  1.00  0.00    -0.300 N 
HETATM   12  H10 UNK     1       0.950   0.296   0.118  1.00  0.00     0.171 HD
BRANCH  11  13
HETATM   13  C7  UNK     1       1.705   0.705  -1.690  1.00  0.00     0.196 A 
HETATM   14  S1  UNK     1       3.149   1.237  -0.932  1.00  0.00    -0.033 SA
HETATM   15  C5  UNK     1       3.714   1.552  -2.502  1.00  0.00     0.101 A 
HETATM   16  N1  UNK     1       2.907   1.286  -3.482  1.00  0.00    -0.145 NA
HETATM   17  N3  UNK     1       1.711   0.782  -3.003  1.00  0.00    -0.123 NA
BRANCH  15  18
HETATM   18  C2  UNK     1       5.103   2.117  -2.681  1.00  0.00     0.073 C 
BRANCH  18  19
HETATM   19  C1  UNK     1       5.136   3.659  -2.676  1.00  0.00    -0.017 C 
HETATM   20  C3  UNK     1       4.273   4.259  -3.789  1.00  0.00     0.010 C 
HETATM   21  C4  UNK     1       6.580   4.145  -2.827  1.00  0.00     0.010 C 
ENDBRANCH  18  19
ENDBRANCH  15  18
ENDBRANCH  11  13
ENDBRANCH   1   9
BRANCH   2  22
HETATM   22  C11 UNK     1      -3.699  -1.516   0.538  1.00  0.00    -0.035 A 
HETATM   23  C14 UNK     1      -3.753  -2.841   0.944  1.00  0.00     0.011 A 
HETATM   24  C19 UNK     1      -4.740  -3.242   1.844  1.00  0.00     0.001 A 
HETATM   25  C21 UNK     1      -5.662  -2.314   2.328  1.00  0.00     0.000 A 
HETATM   26  C20 UNK     1      -5.597  -0.985   1.911  1.00  0.00     0.001 A 
HETATM   27  C15 UNK     1      -4.610  -0.583   1.011  1.00  0.00     0.011 A 
ENDBRANCH   2  22
TORSDOF 6
