REMARK  4 active torsions:
REMARK  status: ('A' for Active; 'I' for Inactive)
REMARK    1  A    between atoms: C1_9  and  N1_6 
REMARK       I    between atoms: C12_20  and  N2_7 
REMARK    2  A    between atoms: C3_11  and  N2_7 
REMARK    3  A    between atoms: C1_9  and  C2_10 
REMARK    4  A    between atoms: C12_20  and  C6_14 
ROOT
HETATM    1  O2  UNK     1       0.961  -0.440  -2.909  1.00  0.00    -0.267 OA
HETATM    2  N2  UNK     1       0.074   0.664  -1.025  1.00  0.00    -0.320 N 
HETATM    3  C12 UNK     1       1.037   0.359  -1.976  1.00  0.00     0.262 C 
HETATM    4  H4  UNK     1       0.277   1.368  -0.319  1.00  0.00     0.169 HD
ENDROOT
BRANCH   2   5
HETATM    5  C3  UNK     1      -1.213   0.119  -0.919  1.00  0.00     0.071 A 
HETATM    6  C4  UNK     1      -2.131   0.441   0.026  1.00  0.00     0.143 A 
HETATM    7  N1  UNK     1      -3.218  -0.330  -0.266  1.00  0.00    -0.275 N 
HETATM    8  N3  UNK     1      -3.050  -1.123  -1.338  1.00  0.00    -0.183 NA
HETATM    9  C7  UNK     1      -1.806  -0.837  -1.734  1.00  0.00     0.169 A 
BRANCH   7  10
HETATM   10  C1  UNK     1      -4.469  -0.354   0.454  1.00  0.00     0.189 C 
BRANCH  10  11
HETATM   11  C2  UNK     1      -4.449  -1.376   1.557  1.00  0.00    -0.037 A 
HETATM   12  C10 UNK     1      -4.015  -1.008   2.824  1.00  0.00     0.034 A 
HETATM   13  C15 UNK     1      -3.996  -1.956   3.846  1.00  0.00     0.056 A 
HETATM   14 Cl1  UNK     1      -3.450  -1.451   5.407  1.00  0.00    -0.083 Cl
HETATM   15  C18 UNK     1      -4.411  -3.264   3.593  1.00  0.00     0.055 A 
HETATM   16  C16 UNK     1      -4.845  -3.623   2.317  1.00  0.00     0.026 A 
HETATM   17 Cl2  UNK     1      -4.410  -4.484   4.818  1.00  0.00    -0.083 Cl
HETATM   18  C11 UNK     1      -4.863  -2.675   1.294  1.00  0.00     0.011 A 
ENDBRANCH  10  11
ENDBRANCH   7  10
ENDBRANCH   2   5
BRANCH   3  19
HETATM   19  C6  UNK     1       2.272   1.128  -1.777  1.00  0.00     0.108 A 
HETATM   20  C13 UNK     1       2.712   1.572  -0.435  1.00  0.00     0.304 A 
HETATM   21  O1  UNK     1       3.901   2.294  -0.375  1.00  0.00    -0.274 OA
HETATM   22  O3  UNK     1       2.066   1.319   0.576  1.00  0.00    -0.259 OA
HETATM   23  C9  UNK     1       4.651   2.589  -1.530  1.00  0.00     0.089 A 
HETATM   24  C17 UNK     1       5.828   3.317  -1.369  1.00  0.00     0.038 A 
HETATM   25  C5  UNK     1       4.219   2.162  -2.781  1.00  0.00    -0.001 A 
HETATM   26  C20 UNK     1       6.592   3.624  -2.493  1.00  0.00     0.003 A 
HETATM   27  C19 UNK     1       6.174   3.204  -3.758  1.00  0.00     0.001 A 
HETATM   28  C14 UNK     1       4.990   2.474  -3.904  1.00  0.00     0.014 A 
HETATM   29  C8  UNK     1       2.980   1.405  -2.878  1.00  0.00     0.037 A 
ENDBRANCH   3  19
TORSDOF 4
