REMARK  6 active torsions:
REMARK  status: ('A' for Active; 'I' for Inactive)
REMARK    1  A    between atoms: C10_17  and  O1_2 
REMARK    2  A    between atoms: C12_19  and  O1_2 
REMARK       I    between atoms: C11_18  and  N1_7 
REMARK    3  A    between atoms: C9_16  and  N1_7 
REMARK    4  A    between atoms: C10_17  and  C8_15 
REMARK    5  A    between atoms: C11_18  and  C13_20 
REMARK    6  A    between atoms: C12_19  and  C14_21 
ROOT
HETATM    1  S1  UNK     1      -0.777  -0.777   2.630  1.00  0.00    -0.075 SA
HETATM    2  C1  UNK     1      -4.216  -2.474   4.134  1.00  0.00    -0.014 C 
HETATM    3  C2  UNK     1      -4.642  -3.133   2.803  1.00  0.00     0.009 C 
HETATM    4  C3  UNK     1      -2.705  -2.146   4.133  1.00  0.00     0.051 C 
HETATM    5  C4  UNK     1      -4.353  -2.259   1.572  1.00  0.00     0.041 C 
HETATM    6  C5  UNK     1      -2.997  -1.629   1.644  1.00  0.00    -0.026 A 
HETATM    7  C6  UNK     1      -2.274  -1.566   2.820  1.00  0.00    -0.008 A 
HETATM    8  C7  UNK     1      -5.058  -1.232   4.446  1.00  0.00     0.010 C 
HETATM    9  C8  UNK     1      -2.296  -1.004   0.569  1.00  0.00     0.080 A 
HETATM   10  C9  UNK     1      -1.076  -0.500   0.967  1.00  0.00     0.094 A 
ENDROOT
BRANCH  10  11
HETATM   11  N1  UNK     1      -0.100   0.161   0.271  1.00  0.00    -0.316 N 
HETATM   12  C11 UNK     1       1.116   0.635   0.780  1.00  0.00     0.262 C 
HETATM   13  O3  UNK     1       1.545   0.557   1.924  1.00  0.00    -0.267 OA
HETATM   14  H11 UNK     1      -0.300   0.294  -0.717  1.00  0.00     0.169 HD
BRANCH  12  15
HETATM   15  C13 UNK     1       1.937   1.305  -0.251  1.00  0.00     0.108 A 
HETATM   16  C15 UNK     1       3.263   1.235  -0.089  1.00  0.00     0.037 A 
HETATM   17  C16 UNK     1       4.154   1.864  -1.052  1.00  0.00    -0.001 A 
HETATM   18  C18 UNK     1       3.604   2.536  -2.138  1.00  0.00     0.089 A 
HETATM   19  C20 UNK     1       5.544   1.815  -0.923  1.00  0.00     0.014 A 
HETATM   20  O4  UNK     1       2.207   2.607  -2.304  1.00  0.00    -0.274 OA
HETATM   21  C21 UNK     1       4.401   3.160  -3.096  1.00  0.00     0.038 A 
HETATM   22  C17 UNK     1       1.329   2.015  -1.400  1.00  0.00     0.304 A 
HETATM   23  O5  UNK     1       0.114   2.082  -1.551  1.00  0.00    -0.259 OA
HETATM   24  C23 UNK     1       5.787   3.107  -2.959  1.00  0.00     0.003 A 
HETATM   25  C22 UNK     1       6.357   2.436  -1.875  1.00  0.00     0.001 A 
ENDBRANCH  12  15
ENDBRANCH  10  11
BRANCH   9  26
HETATM   26  C10 UNK     1      -2.770  -0.897  -0.788  1.00  0.00     0.296 C 
HETATM   27  O2  UNK     1      -3.968  -0.828  -1.098  1.00  0.00    -0.259 OA
BRANCH  26  28
HETATM   28  O1  UNK     1      -1.765  -0.877  -1.731  1.00  0.00    -0.317 OA
BRANCH  28  29
HETATM   29  C12 UNK     1      -2.167  -0.772  -3.102  1.00  0.00     0.178 C 
BRANCH  29  30
HETATM   30  C14 UNK     1      -0.924  -0.765  -3.979  1.00  0.00     0.022 C 
HETATM   31  C19 UNK     1      -1.273  -0.640  -5.452  1.00  0.00     0.007 C 
ENDBRANCH  29  30
ENDBRANCH  28  29
ENDBRANCH  26  28
ENDBRANCH   9  26
TORSDOF 6
