REMARK  4 active torsions:
REMARK  status: ('A' for Active; 'I' for Inactive)
REMARK    1  A    between atoms: C3_13  and  N1_8 
REMARK       I    between atoms: C7_17  and  N1_8 
REMARK    2  A    between atoms: C6_16  and  N2_9 
REMARK    3  A    between atoms: C12_22  and  N3_10 
REMARK    4  A    between atoms: C2_12  and  C7_17 
ROOT
HETATM    1  O2  UNK     1      -0.873  -0.316  -2.414  1.00  0.00    -0.267 OA
HETATM    2  N1  UNK     1      -0.534   0.029  -0.109  1.00  0.00    -0.321 N 
HETATM    3  C7  UNK     1      -0.253   0.156  -1.463  1.00  0.00     0.262 C 
HETATM    4  H2  UNK     1       0.106   0.500   0.521  1.00  0.00     0.169 HD
ENDROOT
BRANCH   2   5
HETATM    5  C3  UNK     1      -1.607  -0.678   0.487  1.00  0.00     0.068 A 
HETATM    6  C8  UNK     1      -2.501  -1.333  -0.345  1.00  0.00     0.034 A 
HETATM    7  C14 UNK     1      -3.567  -2.037   0.216  1.00  0.00     0.038 A 
HETATM    8  C12 UNK     1      -3.724  -2.078   1.601  1.00  0.00     0.105 A 
HETATM    9  C11 UNK     1      -2.815  -1.414   2.426  1.00  0.00     0.074 A 
HETATM   10  C6  UNK     1      -1.750  -0.710   1.865  1.00  0.00     0.132 A 
BRANCH   8  11
HETATM   11  N3  UNK     1      -4.809  -2.794   2.171  1.00  0.00    -0.116 N 
HETATM   12  O6  UNK     1      -5.615  -3.383   1.411  1.00  0.00    -0.532 OA
HETATM   13  O7  UNK     1      -4.932  -2.819   3.420  1.00  0.00    -0.532 OA
ENDBRANCH   8  11
BRANCH  10  14
HETATM   14  N2  UNK     1      -0.837  -0.042   2.730  1.00  0.00    -0.113 N 
HETATM   15  O4  UNK     1      -1.019  -0.108   3.968  1.00  0.00    -0.532 OA
HETATM   16  O5  UNK     1       0.120   0.590   2.226  1.00  0.00    -0.532 OA
ENDBRANCH  10  14
ENDBRANCH   2   5
BRANCH   3  17
HETATM   17  C2  UNK     1       0.946   0.968  -1.705  1.00  0.00     0.108 A 
HETATM   18  C10 UNK     1       0.877   2.436  -1.885  1.00  0.00     0.304 A 
HETATM   19  O1  UNK     1       2.082   3.095  -2.108  1.00  0.00    -0.274 OA
HETATM   20  O3  UNK     1      -0.186   3.045  -1.840  1.00  0.00    -0.259 OA
HETATM   21  C4  UNK     1       3.309   2.405  -2.161  1.00  0.00     0.089 A 
HETATM   22  C1  UNK     1       3.351   1.025  -1.990  1.00  0.00    -0.001 A 
HETATM   23  C13 UNK     1       4.463   3.152  -2.389  1.00  0.00     0.038 A 
HETATM   24  C5  UNK     1       2.108   0.307  -1.754  1.00  0.00     0.037 A 
HETATM   25  C9  UNK     1       4.587   0.376  -2.049  1.00  0.00     0.014 A 
HETATM   26  C15 UNK     1       5.753   1.112  -2.277  1.00  0.00     0.001 A 
HETATM   27  C16 UNK     1       5.691   2.497  -2.447  1.00  0.00     0.003 A 
ENDBRANCH   3  17
TORSDOF 4
