REMARK  1 active torsions:
REMARK  status: ('A' for Active; 'I' for Inactive)
REMARK    1  A    between atoms: C12_16  and  C6_10 
ROOT
HETATM    1  O1  UNK     1       2.305   1.225  -0.023  1.00  0.00    -0.306 OA
HETATM    2  O2  UNK     1      -1.912  -0.654  -0.813  1.00  0.00    -0.274 OA
HETATM    3  O4  UNK     1      -3.965  -1.563  -1.246  1.00  0.00    -0.260 OA
HETATM    4  C1  UNK     1       0.265   0.309  -0.341  1.00  0.00     0.041 A 
HETATM    5  C2  UNK     1      -0.917  -0.296   0.123  1.00  0.00     0.103 A 
HETATM    6  C3  UNK     1       0.791   0.699  -1.602  1.00  0.00    -0.009 A 
HETATM    7  C4  UNK     1       1.233   0.653   0.594  1.00  0.00     0.089 A 
HETATM    8  C5  UNK     1      -1.105  -0.542   1.493  1.00  0.00     0.005 A 
HETATM    9  C6  UNK     1       2.027   1.248  -1.353  1.00  0.00     0.128 A 
HETATM   10  C7  UNK     1      -2.360  -1.178   1.925  1.00  0.00    -0.043 A 
HETATM   11  C8  UNK     1       1.102   0.435   1.962  1.00  0.00     0.039 A 
HETATM   12  C9  UNK     1      -0.089  -0.170   2.390  1.00  0.00     0.017 A 
HETATM   13  C10 UNK     1       0.144   0.549  -2.920  1.00  0.00     0.052 C 
HETATM   14  C11 UNK     1      -3.281  -1.502   1.006  1.00  0.00     0.090 A 
HETATM   15  C13 UNK     1      -2.598  -1.457   3.381  1.00  0.00     0.049 C 
HETATM   16  C14 UNK     1      -3.102  -1.252  -0.433  1.00  0.00     0.288 A 
ENDROOT
BRANCH   9  17
HETATM   17  C12 UNK     1       3.008   1.805  -2.222  1.00  0.00     0.179 C 
HETATM   18  O3  UNK     1       2.849   1.874  -3.473  1.00  0.00    -0.291 OA
HETATM   19  C15 UNK     1       4.336   2.362  -1.675  1.00  0.00     0.099 C 
ENDBRANCH   9  17
TORSDOF 1
