REMARK  3 active torsions:
REMARK  status: ('A' for Active; 'I' for Inactive)
REMARK    1  A    between atoms: C12_17  and  O2_3 
REMARK    2  A    between atoms: C6_11  and  O2_3 
REMARK    3  A    between atoms: C11_16  and  C12_17 
ROOT
HETATM    1  O1  UNK     1      -3.481  -1.022  -0.163  1.00  0.00    -0.275 OA
HETATM    2  O3  UNK     1      -5.698  -1.548   0.020  1.00  0.00    -0.260 OA
HETATM    3  C1  UNK     1      -2.003  -1.395   1.747  1.00  0.00     0.004 A 
HETATM    4  C2  UNK     1      -2.204  -0.968   0.433  1.00  0.00     0.092 A 
HETATM    5  C3  UNK     1      -3.153  -1.904   2.505  1.00  0.00    -0.043 A 
HETATM    6  C4  UNK     1      -0.704  -1.310   2.265  1.00  0.00     0.017 A 
HETATM    7  C5  UNK     1      -1.167  -0.471  -0.357  1.00  0.00     0.075 A 
HETATM    8  C6  UNK     1       0.116  -0.395   0.176  1.00  0.00     0.082 A 
HETATM    9  C7  UNK     1       0.347  -0.814   1.485  1.00  0.00     0.038 A 
HETATM   10  C8  UNK     1      -4.355  -1.943   1.914  1.00  0.00     0.090 A 
HETATM   11  C9  UNK     1      -2.969  -2.369   3.920  1.00  0.00     0.049 C 
HETATM   12  C10 UNK     1      -4.584  -1.498   0.529  1.00  0.00     0.288 A 
ENDROOT
BRANCH   8  13
HETATM   13  O2  UNK     1       1.141   0.086  -0.577  1.00  0.00    -0.275 OA
BRANCH  13  14
HETATM   14  C12 UNK     1       1.331   1.467  -0.477  1.00  0.00     0.298 C 
HETATM   15  O4  UNK     1       0.672   2.227   0.216  1.00  0.00    -0.259 OA
BRANCH  14  16
HETATM   16  C11 UNK     1       2.465   1.917  -1.325  1.00  0.00     0.041 A 
HETATM   17  C13 UNK     1       2.746   1.225  -2.485  1.00  0.00     0.041 A 
HETATM   18  C15 UNK     1       3.810   1.649  -3.282  1.00  0.00     0.035 A 
HETATM   19 Cl1  UNK     1       4.186   0.808  -4.735  1.00  0.00    -0.084 Cl
HETATM   20  C17 UNK     1       4.569   2.755  -2.900  1.00  0.00     0.024 A 
HETATM   21  C16 UNK     1       4.265   3.437  -1.722  1.00  0.00     0.003 A 
HETATM   22  C14 UNK     1       3.201   3.013  -0.925  1.00  0.00     0.018 A 
ENDBRANCH  14  16
ENDBRANCH  13  14
ENDBRANCH   8  13
TORSDOF 3
