REMARK  8 active torsions:
REMARK  status: ('A' for Active; 'I' for Inactive)
REMARK    1  A    between atoms: C16_24  and  O1_2 
REMARK    2  A    between atoms: C23_31  and  O5_6 
REMARK    3  A    between atoms: C14_22  and  N1_8 
REMARK       I    between atoms: C17_25  and  N1_8 
REMARK    4  A    between atoms: C1_9  and  C2_10 
REMARK    5  A    between atoms: C2_10  and  C3_11 
REMARK    6  A    between atoms: C4_12  and  C5_13 
REMARK    7  A    between atoms: C10_18  and  C16_24 
REMARK    8  A    between atoms: C17_25  and  C18_26 
ROOT
HETATM    1  S1  UNK     1       0.714  -0.014   2.695  1.00  0.00    -0.075 SA
HETATM    2  C5  UNK     1      -1.613  -0.941   2.127  1.00  0.00     0.006 A 
HETATM    3  C10 UNK     1      -1.075  -0.448   0.903  1.00  0.00     0.085 A 
HETATM    4  C13 UNK     1      -0.744  -0.767   3.181  1.00  0.00    -0.007 A 
HETATM    5  C14 UNK     1       0.167   0.071   1.088  1.00  0.00     0.094 A 
HETATM    6  C15 UNK     1      -0.910  -1.134   4.608  1.00  0.00     0.057 C 
ENDROOT
BRANCH   5   7
HETATM    7  N1  UNK     1       1.052   0.654   0.176  1.00  0.00    -0.316 N 
HETATM    8  C17 UNK     1       2.311   1.159   0.466  1.00  0.00     0.262 C 
HETATM    9  O4  UNK     1       2.891   1.197   1.550  1.00  0.00    -0.267 OA
HETATM   10  H17 UNK     1       0.720   0.702  -0.784  1.00  0.00     0.169 HD
BRANCH   8  11
HETATM   11  C18 UNK     1       2.972   1.700  -0.728  1.00  0.00     0.108 A 
HETATM   12  C20 UNK     1       3.721   0.841  -1.429  1.00  0.00     0.037 A 
HETATM   13  C19 UNK     1       4.416   1.283  -2.628  1.00  0.00     0.002 A 
HETATM   14  C21 UNK     1       4.288   2.609  -3.029  1.00  0.00     0.123 A 
HETATM   15  C24 UNK     1       5.207   0.421  -3.392  1.00  0.00     0.014 A 
HETATM   16  O2  UNK     1       3.499   3.509  -2.286  1.00  0.00    -0.271 OA
HETATM   17  C23 UNK     1       4.928   3.097  -4.167  1.00  0.00     0.102 A 
HETATM   18  C22 UNK     1       2.822   3.114  -1.135  1.00  0.00     0.304 A 
HETATM   19  O6  UNK     1       2.137   3.904  -0.495  1.00  0.00    -0.259 OA
HETATM   20  C25 UNK     1       5.715   2.231  -4.923  1.00  0.00     0.040 A 
HETATM   21  C26 UNK     1       5.854   0.896  -4.536  1.00  0.00     0.004 A 
BRANCH  17  22
HETATM   22  O5  UNK     1       4.795   4.396  -4.547  1.00  0.00    -0.353 OA
HETATM   23  C28 UNK     1       5.488   4.802  -5.727  1.00  0.00     0.210 C 
ENDBRANCH  17  22
ENDBRANCH   8  11
ENDBRANCH   5   7
BRANCH   3  24
HETATM   24  C16 UNK     1      -1.735  -0.481  -0.380  1.00  0.00     0.296 C 
HETATM   25  O3  UNK     1      -2.867  -0.951  -0.562  1.00  0.00    -0.259 OA
BRANCH  24  26
HETATM   26  O1  UNK     1      -0.991   0.062  -1.404  1.00  0.00    -0.322 OA
HETATM   27  C27 UNK     1      -1.587   0.062  -2.706  1.00  0.00     0.213 C 
ENDBRANCH  24  26
ENDBRANCH   3  24
BRANCH   2  28
HETATM   28  C4  UNK     1      -2.902  -1.558   2.323  1.00  0.00    -0.024 A 
HETATM   29  C11 UNK     1      -4.005  -0.770   2.639  1.00  0.00     0.013 A 
HETATM   30  C8  UNK     1      -5.251  -1.367   2.828  1.00  0.00     0.008 A 
HETATM   31  C3  UNK     1      -5.389  -2.749   2.701  1.00  0.00    -0.058 A 
HETATM   32  C9  UNK     1      -4.280  -3.534   2.384  1.00  0.00     0.008 A 
HETATM   33  C12 UNK     1      -3.034  -2.937   2.194  1.00  0.00     0.013 A 
BRANCH  31  34
HETATM   34  C2  UNK     1      -6.721  -3.388   2.904  1.00  0.00     0.042 C 
BRANCH  34  35
HETATM   35  C1  UNK     1      -7.577  -3.507   1.619  1.00  0.00    -0.019 C 
HETATM   36  C6  UNK     1      -7.771  -2.150   0.938  1.00  0.00     0.010 C 
HETATM   37  C7  UNK     1      -6.933  -4.490   0.638  1.00  0.00     0.010 C 
ENDBRANCH  34  35
ENDBRANCH  31  34
ENDBRANCH   2  28
TORSDOF 8
