REMARK  4 active torsions:
REMARK  status: ('A' for Active; 'I' for Inactive)
REMARK    1  A    between atoms: C15_20  and  O2_2 
REMARK    2  A    between atoms: C20_25  and  O2_2 
REMARK       I    between atoms: C10_15  and  N1_5 
REMARK    3  A    between atoms: C8_13  and  N1_5 
REMARK    4  A    between atoms: C10_15  and  C11_16 
ROOT
HETATM    1  O1  UNK     1       2.184   1.762  -0.479  1.00  0.00    -0.271 OA
HETATM    2  O4  UNK     1       0.762   1.294   1.247  1.00  0.00    -0.259 OA
HETATM    3  C11 UNK     1       0.111   0.536  -0.901  1.00  0.00     0.108 A 
HETATM    4  C12 UNK     1       1.620   1.036  -2.729  1.00  0.00     0.002 A 
HETATM    5  C13 UNK     1       2.488   1.678  -1.851  1.00  0.00     0.123 A 
HETATM    6  C14 UNK     1       0.395   0.453  -2.206  1.00  0.00     0.037 A 
HETATM    7  C15 UNK     1       3.678   2.257  -2.288  1.00  0.00     0.103 A 
HETATM    8  C16 UNK     1       1.019   1.215   0.051  1.00  0.00     0.304 A 
HETATM    9  C17 UNK     1       1.956   0.973  -4.084  1.00  0.00     0.014 A 
HETATM   10  C18 UNK     1       4.005   2.190  -3.640  1.00  0.00     0.040 A 
HETATM   11  C19 UNK     1       3.147   1.549  -4.536  1.00  0.00     0.004 A 
ENDROOT
BRANCH   3  12
HETATM   12  C10 UNK     1      -1.157  -0.087  -0.467  1.00  0.00     0.262 C 
HETATM   13  O3  UNK     1      -2.100  -0.134  -1.247  1.00  0.00    -0.267 OA
HETATM   14  N1  UNK     1      -1.097  -0.559   0.846  1.00  0.00    -0.323 N 
HETATM   15  H10 UNK     1      -0.220  -0.452   1.350  1.00  0.00     0.169 HD
BRANCH  14  16
HETATM   16  C8  UNK     1      -2.104  -1.196   1.574  1.00  0.00     0.035 A 
HETATM   17  C6  UNK     1      -3.345  -1.431   0.980  1.00  0.00     0.037 A 
HETATM   18  C4  UNK     1      -4.323  -2.062   1.730  1.00  0.00    -0.050 A 
HETATM   19  C2  UNK     1      -5.703  -2.452   1.305  1.00  0.00     0.039 C 
HETATM   20  C5  UNK     1      -4.074  -2.466   3.047  1.00  0.00    -0.052 A 
HETATM   21  C1  UNK     1      -6.372  -2.707   2.664  1.00  0.00     0.009 C 
HETATM   22  C3  UNK     1      -5.264  -3.165   3.624  1.00  0.00     0.039 C 
HETATM   23  C7  UNK     1      -2.842  -2.248   3.640  1.00  0.00     0.010 A 
HETATM   24  C9  UNK     1      -1.854  -1.601   2.895  1.00  0.00     0.030 A 
ENDBRANCH  14  16
ENDBRANCH   3  12
BRANCH   7  25
HETATM   25  O2  UNK     1       4.517   2.881  -1.419  1.00  0.00    -0.349 OA
BRANCH  25  26
HETATM   26  C20 UNK     1       5.910   2.859  -1.730  1.00  0.00     0.171 C 
HETATM   27  C21 UNK     1       6.704   2.906  -0.442  1.00  0.00     0.034 C 
ENDBRANCH  25  26
ENDBRANCH   7  25
TORSDOF 4
