REMARK  7 active torsions:
REMARK  status: ('A' for Active; 'I' for Inactive)
REMARK    1  A    between atoms: C16_23  and  O3_3 
REMARK    2  A    between atoms: C23_30  and  O3_3 
REMARK    3  A    between atoms: C5_12  and  N1_5 
REMARK    4  A    between atoms: C6_13  and  N2_6 
REMARK    5  A    between atoms: C15_22  and  N3_7 
REMARK       I    between atoms: C8_15  and  N3_7 
REMARK    6  A    between atoms: C5_12  and  C7_14 
REMARK    7  A    between atoms: C6_13  and  C8_15 
ROOT
HETATM    1  N1  UNK     1       0.746  -0.009  -1.234  1.00  0.00     0.096 N 
HETATM    2  N2  UNK     1      -1.890  -0.666  -0.246  1.00  0.00     0.100 N 
HETATM    3  C1  UNK     1       0.565  -0.768   0.010  1.00  0.00     0.303 C 
HETATM    4  C2  UNK     1      -0.373  -0.254  -2.152  1.00  0.00     0.303 C 
HETATM    5  C3  UNK     1      -0.772  -0.419   0.673  1.00  0.00     0.303 C 
HETATM    6  C4  UNK     1      -1.710   0.094  -1.489  1.00  0.00     0.303 C 
ENDROOT
BRANCH   1   7
HETATM    7  C5  UNK     1       2.020  -0.345  -1.866  1.00  0.00     0.312 C 
BRANCH   7   8
HETATM    8  C7  UNK     1       2.498   0.734  -2.776  1.00  0.00    -0.011 A 
HETATM    9  C10 UNK     1       2.159   0.747  -4.073  1.00  0.00     0.092 A 
HETATM   10  C13 UNK     1       2.607   1.791  -5.009  1.00  0.00     0.288 A 
HETATM   11  O1  UNK     1       3.415   2.790  -4.489  1.00  0.00    -0.275 OA
HETATM   12  O4  UNK     1       2.277   1.771  -6.190  1.00  0.00    -0.260 OA
HETATM   13  C11 UNK     1       3.789   2.802  -3.130  1.00  0.00     0.090 A 
HETATM   14  C9  UNK     1       3.357   1.805  -2.254  1.00  0.00     0.009 A 
HETATM   15  C14 UNK     1       4.607   3.856  -2.717  1.00  0.00     0.041 A 
HETATM   16  C12 UNK     1       3.774   1.889  -0.919  1.00  0.00     0.051 A 
HETATM   17  C16 UNK     1       4.594   2.939  -0.489  1.00  0.00     0.069 A 
HETATM   18  C18 UNK     1       5.010   3.921  -1.387  1.00  0.00     0.039 A 
BRANCH  17  19
HETATM   19  O3  UNK     1       4.988   3.001   0.813  1.00  0.00    -0.351 OA
BRANCH  19  20
HETATM   20  C23 UNK     1       5.130   1.763   1.508  1.00  0.00     0.171 C 
HETATM   21  C25 UNK     1       6.213   1.907   2.555  1.00  0.00     0.034 C 
ENDBRANCH  19  20
ENDBRANCH  17  19
ENDBRANCH   7   8
ENDBRANCH   1   7
BRANCH   2  22
HETATM   22  C6  UNK     1      -3.164  -0.332   0.387  1.00  0.00     0.375 C 
BRANCH  22  23
HETATM   23  C8  UNK     1      -3.557  -1.441   1.355  1.00  0.00     0.252 C 
HETATM   24  O2  UNK     1      -2.851  -2.448   1.455  1.00  0.00    -0.271 OA
HETATM   25  N3  UNK     1      -4.765  -1.233   2.061  1.00  0.00    -0.321 N 
HETATM   26  C17 UNK     1      -5.565  -0.010   1.900  1.00  0.00     0.159 C 
BRANCH  25  27
HETATM   27  C15 UNK     1      -5.330  -2.269   2.902  1.00  0.00     0.036 A 
HETATM   28  C19 UNK     1      -5.117  -3.613   2.592  1.00  0.00     0.029 A 
HETATM   29  C21 UNK     1      -5.660  -4.610   3.402  1.00  0.00     0.002 A 
HETATM   30  C24 UNK     1      -6.417  -4.264   4.521  1.00  0.00     0.000 A 
HETATM   31  C22 UNK     1      -6.631  -2.921   4.830  1.00  0.00     0.002 A 
HETATM   32  C20 UNK     1      -6.088  -1.924   4.021  1.00  0.00     0.029 A 
ENDBRANCH  25  27
ENDBRANCH  22  23
ENDBRANCH   2  22
TORSDOF 7
