REMARK  4 active torsions:
REMARK  status: ('A' for Active; 'I' for Inactive)
REMARK    1  A    between atoms: C11_19  and  O2_3 
REMARK    2  A    between atoms: C5_13  and  O2_3 
REMARK       I    between atoms: C12_20  and  N1_6 
REMARK    3  A    between atoms: C13_21  and  N1_6 
REMARK    4  A    between atoms: C11_19  and  C12_20 
ROOT
HETATM    1  O1  UNK     1      -3.540  -1.921  -0.106  1.00  0.00    -0.275 OA
HETATM    2  O3  UNK     1      -5.669  -2.622  -0.558  1.00  0.00    -0.260 OA
HETATM    3  C1  UNK     1      -2.966  -1.234   2.167  1.00  0.00     0.004 A 
HETATM    4  C2  UNK     1      -2.606  -1.442   0.835  1.00  0.00     0.092 A 
HETATM    5  C3  UNK     1      -4.346  -1.526   2.577  1.00  0.00    -0.043 A 
HETATM    6  C4  UNK     1      -1.979  -0.756   3.040  1.00  0.00     0.017 A 
HETATM    7  C5  UNK     1      -0.352  -0.716   1.244  1.00  0.00     0.072 A 
HETATM    8  C6  UNK     1      -1.317  -1.190   0.362  1.00  0.00     0.075 A 
HETATM    9  C7  UNK     1      -0.682  -0.499   2.581  1.00  0.00     0.038 A 
HETATM   10  C8  UNK     1      -5.213  -1.981   1.661  1.00  0.00     0.090 A 
HETATM   11  C9  UNK     1      -4.765  -1.313   4.002  1.00  0.00     0.049 C 
HETATM   12  C10 UNK     1      -4.849  -2.205   0.252  1.00  0.00     0.288 A 
ENDROOT
BRANCH   7  13
HETATM   13  O2  UNK     1       0.911  -0.464   0.805  1.00  0.00    -0.342 OA
BRANCH  13  14
HETATM   14  C11 UNK     1       1.057  -0.062  -0.557  1.00  0.00     0.278 C 
BRANCH  14  15
HETATM   15  C12 UNK     1       2.274   0.830  -0.675  1.00  0.00     0.247 C 
HETATM   16  O4  UNK     1       2.951   1.093   0.314  1.00  0.00    -0.271 OA
HETATM   17  N1  UNK     1       2.473   1.251  -1.984  1.00  0.00    -0.302 N 
HETATM   18  H10 UNK     1       1.818   0.942  -2.698  1.00  0.00     0.171 HD
BRANCH  17  19
HETATM   19  C13 UNK     1       3.508   2.083  -2.473  1.00  0.00     0.196 A 
HETATM   20  S1  UNK     1       3.453   2.404  -4.136  1.00  0.00    -0.034 SA
HETATM   21  C14 UNK     1       4.865   3.340  -3.864  1.00  0.00     0.097 A 
HETATM   22  N3  UNK     1       5.280   3.362  -2.615  1.00  0.00    -0.145 NA
HETATM   23  C15 UNK     1       5.515   4.039  -4.990  1.00  0.00     0.081 C 
HETATM   24  N2  UNK     1       4.464   2.609  -1.790  1.00  0.00    -0.123 NA
ENDBRANCH  17  19
ENDBRANCH  14  15
ENDBRANCH  13  14
ENDBRANCH   7  13
TORSDOF 4
