REMARK  2 active torsions:
REMARK  status: ('A' for Active; 'I' for Inactive)
REMARK    1  A    between atoms: C4_9  and  O3_3 
REMARK    2  A    between atoms: C6_11  and  O4_4 
ROOT
HETATM    1  O1  UNK     1       2.077   0.880   0.350  1.00  0.00    -0.311 OA
HETATM    2  O2  UNK     1      -1.871  -1.164   2.163  1.00  0.00    -0.319 OA
HETATM    3  O5  UNK     1       0.313   1.077  -3.316  1.00  0.00    -0.287 OA
HETATM    4  C1  UNK     1       0.126   0.436  -1.033  1.00  0.00     0.085 A 
HETATM    5  C2  UNK     1      -1.808  -0.596  -0.023  1.00  0.00     0.037 A 
HETATM    6  C3  UNK     1       0.798   0.402   0.192  1.00  0.00     0.128 A 
HETATM    7  C4  UNK     1      -1.182  -0.060  -1.163  1.00  0.00     0.098 A 
HETATM    8  C5  UNK     1      -1.107  -0.612   1.179  1.00  0.00     0.124 A 
HETATM    9  C6  UNK     1       0.191  -0.127   1.336  1.00  0.00     0.138 A 
HETATM   10  C7  UNK     1       0.815   1.006  -2.203  1.00  0.00     0.190 A 
HETATM   11  C8  UNK     1      -3.072  -1.176   0.261  1.00  0.00     0.042 A 
HETATM   12  C9  UNK     1       2.724   1.416  -0.751  1.00  0.00     0.053 A 
HETATM   13  C10 UNK     1       2.185   1.503  -1.975  1.00  0.00     0.088 A 
HETATM   14  C11 UNK     1      -3.059  -1.503   1.597  1.00  0.00     0.143 A 
HETATM   15  C12 UNK     1       4.108   1.900  -0.453  1.00  0.00     0.077 C 
ENDROOT
BRANCH   7  16
HETATM   16  O3  UNK     1      -1.856  -0.036  -2.351  1.00  0.00    -0.354 OA
HETATM   17  C13 UNK     1      -1.710  -1.173  -3.197  1.00  0.00     0.210 C 
ENDBRANCH   7  16
BRANCH   9  18
HETATM   18  O4  UNK     1       0.833  -0.167   2.539  1.00  0.00    -0.351 OA
HETATM   19  C14 UNK     1       0.226   0.538   3.619  1.00  0.00     0.210 C 
ENDBRANCH   9  18
TORSDOF 2
