REMARK  5 active torsions:
REMARK  status: ('A' for Active; 'I' for Inactive)
REMARK    1  A    between atoms: C15_20  and  O2_2 
REMARK    2  A    between atoms: C18_23  and  O4_4 
REMARK    3  A    between atoms: C16_21  and  O5_5 
REMARK    4  A    between atoms: C1_6  and  C5_10 
REMARK    5  A    between atoms: C2_7  and  C4_9 
ROOT
HETATM    1  O1  UNK     1       0.932   0.034  -3.205  1.00  0.00    -0.274 OA
HETATM    2  O3  UNK     1      -0.925  -1.246  -2.922  1.00  0.00    -0.259 OA
HETATM    3  C1  UNK     1       0.569   1.024  -0.562  1.00  0.00     0.004 A 
HETATM    4  C2  UNK     1      -0.297   0.116  -1.076  1.00  0.00     0.062 A 
HETATM    5  C3  UNK     1       1.694   1.480  -1.406  1.00  0.00     0.010 A 
HETATM    6  C6  UNK     1       1.838   0.973  -2.692  1.00  0.00     0.093 A 
HETATM    7  C7  UNK     1      -0.139  -0.425  -2.458  1.00  0.00     0.300 A 
HETATM    8  C8  UNK     1       2.643   2.415  -0.966  1.00  0.00     0.018 A 
HETATM    9  C10 UNK     1       2.880   1.364  -3.536  1.00  0.00     0.074 A 
HETATM   10  C14 UNK     1       3.692   2.818  -1.799  1.00  0.00     0.037 A 
HETATM   11  C16 UNK     1       3.811   2.293  -3.084  1.00  0.00     0.068 A 
ENDROOT
BRANCH   4  12
HETATM   12  C4  UNK     1      -1.431  -0.372  -0.287  1.00  0.00    -0.016 A 
HETATM   13  C11 UNK     1      -2.648   0.297  -0.346  1.00  0.00     0.015 A 
HETATM   14  C17 UNK     1      -3.727  -0.168   0.405  1.00  0.00     0.040 A 
HETATM   15  C18 UNK     1      -3.582  -1.297   1.210  1.00  0.00     0.101 A 
HETATM   16  C15 UNK     1      -2.357  -1.963   1.264  1.00  0.00     0.102 A 
HETATM   17  C9  UNK     1      -1.278  -1.498   0.513  1.00  0.00     0.052 A 
BRANCH  15  18
HETATM   18  O4  UNK     1      -4.644  -1.741   1.940  1.00  0.00    -0.353 OA
HETATM   19  C23 UNK     1      -5.507  -2.690   1.317  1.00  0.00     0.210 C 
ENDBRANCH  15  18
BRANCH  16  20
HETATM   20  O2  UNK     1      -2.203  -3.067   2.047  1.00  0.00    -0.353 OA
HETATM   21  C22 UNK     1      -1.772  -2.854   3.390  1.00  0.00     0.210 C 
ENDBRANCH  16  20
ENDBRANCH   4  12
BRANCH   3  22
HETATM   22  C5  UNK     1       0.339   1.505   0.806  1.00  0.00    -0.024 A 
HETATM   23  C12 UNK     1      -0.453   2.625   1.013  1.00  0.00     0.012 A 
HETATM   24  C19 UNK     1      -0.671   3.083   2.313  1.00  0.00     0.001 A 
HETATM   25  C21 UNK     1      -0.094   2.415   3.393  1.00  0.00     0.000 A 
HETATM   26  C20 UNK     1       0.700   1.290   3.173  1.00  0.00     0.001 A 
HETATM   27  C13 UNK     1       0.918   0.832   1.874  1.00  0.00     0.012 A 
ENDBRANCH   3  22
BRANCH  11  28
HETATM   28  O5  UNK     1       4.833   2.686  -3.891  1.00  0.00    -0.361 OA
HETATM   29  H12 UNK     1       5.380   3.333  -3.414  1.00  0.00     0.217 HD
ENDBRANCH  11  28
TORSDOF 5
