REMARK  3 active torsions:
REMARK  status: ('A' for Active; 'I' for Inactive)
REMARK    1  A    between atoms: N1_4  and  N2_5 
REMARK       I    between atoms: C12_18  and  N2_5 
REMARK    2  A    between atoms: C10_16  and  C4_10 
REMARK    3  A    between atoms: C11_17  and  C12_18 
ROOT
HETATM    1  N1  UNK     1       0.453   0.450  -0.496  1.00  0.00    -0.183 NA
HETATM    2  C10 UNK     1       0.304   0.134   0.749  1.00  0.00     0.156 C 
ENDROOT
BRANCH   2   3
HETATM    3  C4  UNK     1      -0.915  -0.494   1.260  1.00  0.00     0.056 A 
HETATM    4  C3  UNK     1      -2.082  -0.823   0.413  1.00  0.00     0.198 A 
HETATM    5  C1  UNK     1      -3.223  -1.454   1.104  1.00  0.00     0.049 A 
HETATM    6  O2  UNK     1      -2.104  -0.588  -0.787  1.00  0.00    -0.286 OA
HETATM    7  C2  UNK     1      -3.137  -1.695   2.477  1.00  0.00     0.089 A 
HETATM    8  C5  UNK     1      -4.376  -1.806   0.399  1.00  0.00     0.018 A 
HETATM    9  O1  UNK     1      -2.029  -1.370   3.220  1.00  0.00    -0.321 OA
HETATM   10  C6  UNK     1      -4.204  -2.289   3.150  1.00  0.00     0.038 A 
HETATM   11  C7  UNK     1      -0.972  -0.783   2.564  1.00  0.00     0.159 A 
HETATM   12  C9  UNK     1      -5.357  -2.641   2.447  1.00  0.00     0.003 A 
HETATM   13  C8  UNK     1      -5.442  -2.401   1.075  1.00  0.00     0.001 A 
ENDBRANCH   2   3
BRANCH   1  14
HETATM   14  N2  UNK     1       1.648   1.021  -0.781  1.00  0.00    -0.243 N 
HETATM   15  C12 UNK     1       1.919   1.365  -2.092  1.00  0.00     0.271 C 
HETATM   16  O3  UNK     1       1.152   1.193  -3.036  1.00  0.00    -0.266 OA
HETATM   17  H7  UNK     1       2.311   1.119  -0.020  1.00  0.00     0.192 HD
BRANCH  15  18
HETATM   18  C11 UNK     1       3.255   1.967  -2.340  1.00  0.00     0.036 A 
HETATM   19  C13 UNK     1       3.829   1.827  -3.581  1.00  0.00     0.036 A 
HETATM   20  C15 UNK     1       5.074   2.407  -3.761  1.00  0.00     0.117 A 
HETATM   21  N3  UNK     1       5.738   3.088  -2.800  1.00  0.00    -0.273 NA
HETATM   22  C16 UNK     1       5.122   3.190  -1.602  1.00  0.00     0.117 A 
HETATM   23  C14 UNK     1       3.878   2.647  -1.320  1.00  0.00     0.036 A 
ENDBRANCH  15  18
ENDBRANCH   1  14
TORSDOF 3
