REMARK  4 active torsions:
REMARK  status: ('A' for Active; 'I' for Inactive)
REMARK    1  A    between atoms: C14_17  and  O2_2 
REMARK    2  A    between atoms: C7_10  and  O2_2 
REMARK    3  A    between atoms: C3_6  and  C6_9 
REMARK    4  A    between atoms: C12_15  and  C6_9 
ROOT
HETATM    1  O1  UNK     1       1.019  -0.449   0.930  1.00  0.00    -0.274 OA
HETATM    2  O3  UNK     1      -0.274  -1.666   2.345  1.00  0.00    -0.259 OA
HETATM    3  C1  UNK     1       0.350  -0.148  -1.390  1.00  0.00     0.005 A 
HETATM    4  C2  UNK     1      -0.862  -0.950  -1.126  1.00  0.00    -0.036 A 
HETATM    5  C3  UNK     1      -1.054  -1.477   0.102  1.00  0.00     0.029 A 
HETATM    6  C4  UNK     1       1.249   0.075  -0.351  1.00  0.00     0.099 A 
HETATM    7  C5  UNK     1       2.419   0.821  -0.516  1.00  0.00     0.006 A 
HETATM    8  C7  UNK     1       2.711   1.364  -1.761  1.00  0.00     0.078 A 
HETATM    9  C8  UNK     1       0.669   0.404  -2.641  1.00  0.00     0.017 A 
HETATM   10  C9  UNK     1      -0.094  -1.222   1.215  1.00  0.00     0.295 A 
HETATM   11  C10 UNK     1       1.837   1.154  -2.824  1.00  0.00     0.038 A 
HETATM   12  C11 UNK     1      -1.834  -1.114  -2.268  1.00  0.00     0.050 C 
HETATM   13  C13 UNK     1       3.352   1.037   0.632  1.00  0.00     0.054 C 
ENDROOT
BRANCH   5  14
HETATM   14  C6  UNK     1      -2.211  -2.363   0.489  1.00  0.00     0.084 C 
BRANCH  14  15
HETATM   15  C12 UNK     1      -3.226  -1.637   1.321  1.00  0.00    -0.054 A 
HETATM   16  C15 UNK     1      -3.635  -0.361   0.952  1.00  0.00     0.007 A 
HETATM   17  C19 UNK     1      -4.578   0.314   1.727  1.00  0.00     0.001 A 
HETATM   18  C21 UNK     1      -5.107  -0.292   2.866  1.00  0.00     0.000 A 
HETATM   19  C20 UNK     1      -4.692  -1.572   3.231  1.00  0.00     0.001 A 
HETATM   20  C16 UNK     1      -3.749  -2.247   2.457  1.00  0.00     0.007 A 
ENDBRANCH  14  15
ENDBRANCH   5  14
BRANCH   8  21
HETATM   21  O2  UNK     1       3.841   2.096  -1.961  1.00  0.00    -0.346 OA
BRANCH  21  22
HETATM   22  C14 UNK     1       3.672   3.444  -2.396  1.00  0.00     0.120 C 
HETATM   23  C17 UNK     1       4.260   4.384  -1.355  1.00  0.00     0.040 C 
HETATM   24  C18 UNK     1       4.334   3.618  -3.755  1.00  0.00     0.040 C 
ENDBRANCH  21  22
ENDBRANCH   8  21
TORSDOF 4
