REMARK  5 active torsions:
REMARK  status: ('A' for Active; 'I' for Inactive)
REMARK    1  A    between atoms: C12_20  and  O3_5 
REMARK    2  A    between atoms: C20_28  and  O3_5 
REMARK    3  A    between atoms: C7_15  and  N1_8 
REMARK    4  A    between atoms: C1_9  and  C5_13 
REMARK    5  A    between atoms: C12_20  and  C3_11 
ROOT
HETATM    1  O1  UNK     1       2.262  -0.009   0.578  1.00  0.00    -0.292 OA
HETATM    2  O2  UNK     1       0.760   2.459  -2.451  1.00  0.00    -0.274 OA
HETATM    3  O4  UNK     1      -1.356   2.142  -1.663  1.00  0.00    -0.259 OA
HETATM    4  C1  UNK     1      -0.587   0.315   0.425  1.00  0.00     0.107 C 
HETATM    5  C2  UNK     1       0.384   0.988  -0.527  1.00  0.00     0.066 A 
HETATM    6  C3  UNK     1       0.133  -0.340   1.592  1.00  0.00     0.081 C 
HETATM    7  C4  UNK     1       1.706   0.786  -0.410  1.00  0.00     0.104 A 
HETATM    8  C6  UNK     1       2.649   1.401  -1.339  1.00  0.00     0.033 A 
HETATM    9  C7  UNK     1       1.474  -0.485   1.628  1.00  0.00     0.155 C 
HETATM   10  C8  UNK     1      -0.158   1.896  -1.571  1.00  0.00     0.298 A 
HETATM   11  C9  UNK     1       2.144   2.222  -2.344  1.00  0.00     0.092 A 
HETATM   12  C13 UNK     1       4.035   1.209  -1.279  1.00  0.00     0.017 A 
HETATM   13  C14 UNK     1       2.971   2.847  -3.277  1.00  0.00     0.038 A 
HETATM   14  C17 UNK     1       4.877   1.829  -2.207  1.00  0.00     0.001 A 
HETATM   15  C19 UNK     1       4.346   2.646  -3.205  1.00  0.00     0.003 A 
ENDROOT
BRANCH   4  16
HETATM   16  C5  UNK     1      -1.420  -0.697  -0.305  1.00  0.00    -0.006 A 
HETATM   17  C10 UNK     1      -2.800  -0.542  -0.367  1.00  0.00     0.126 A 
HETATM   18  F1  UNK     1      -3.399   0.504   0.219  1.00  0.00    -0.205 F 
HETATM   19  C15 UNK     1      -3.571  -1.485  -1.047  1.00  0.00     0.085 A 
HETATM   20  C18 UNK     1      -2.956  -2.577  -1.660  1.00  0.00     0.119 A 
HETATM   21  C16 UNK     1      -1.571  -2.726  -1.593  1.00  0.00     0.043 A 
HETATM   22  F2  UNK     1      -3.697  -3.483  -2.312  1.00  0.00    -0.206 F 
HETATM   23  C11 UNK     1      -0.800  -1.783  -0.914  1.00  0.00     0.014 A 
ENDBRANCH   4  16
BRANCH   6  24
HETATM   24  C12 UNK     1      -0.711  -0.790   2.714  1.00  0.00     0.294 C 
HETATM   25  O5  UNK     1      -0.419  -1.724   3.436  1.00  0.00    -0.259 OA
BRANCH  24  26
HETATM   26  O3  UNK     1      -1.807   0.004   2.767  1.00  0.00    -0.318 OA
BRANCH  26  27
HETATM   27  C20 UNK     1      -2.731  -0.309   3.814  1.00  0.00     0.174 C 
HETATM   28  C21 UNK     1      -3.896   0.655   3.749  1.00  0.00     0.034 C 
ENDBRANCH  26  27
ENDBRANCH  24  26
ENDBRANCH   6  24
BRANCH   9  29
HETATM   29  N1  UNK     1       2.201  -1.073   2.624  1.00  0.00    -0.379 N 
HETATM   30  H7  UNK     1       1.742  -1.456   3.440  1.00  0.00     0.158 HD
HETATM   31  H8  UNK     1       3.208  -1.120   2.534  1.00  0.00     0.158 HD
ENDBRANCH   9  29
TORSDOF 5
