REMARK  8 active torsions:
REMARK  status: ('A' for Active; 'I' for Inactive)
REMARK    1  A    between atoms: C1_8  and  O1_2 
REMARK    2  A    between atoms: C3_10  and  O1_2 
REMARK    3  A    between atoms: C14_21  and  O3_4 
REMARK    4  A    between atoms: C9_16  and  O3_4 
REMARK    5  A    between atoms: C12_19  and  O4_5 
REMARK    6  A    between atoms: C15_22  and  O4_5 
REMARK    7  A    between atoms: C1_8  and  C2_9 
REMARK    8  A    between atoms: C1_8  and  C9_16 
ROOT
HETATM    1  O2  UNK     1       1.163  -0.484  -0.099  1.00  0.00    -0.319 OA
HETATM    2  O6  UNK     1       0.541   1.151  -3.789  1.00  0.00    -0.284 OA
HETATM    3  C3  UNK     1      -2.412  -1.122  -0.412  1.00  0.00     0.072 A 
HETATM    4  C4  UNK     1      -0.373   0.046  -1.909  1.00  0.00     0.051 A 
HETATM    5  C5  UNK     1      -0.094  -0.496  -0.652  1.00  0.00     0.092 A 
HETATM    6  C6  UNK     1      -1.114  -1.081   0.098  1.00  0.00     0.075 A 
HETATM    7  C7  UNK     1      -2.690  -0.581  -1.668  1.00  0.00     0.038 A 
HETATM    8  C10 UNK     1      -1.672   0.005  -2.421  1.00  0.00     0.021 A 
HETATM    9  C11 UNK     1       0.722   0.659  -2.683  1.00  0.00     0.220 A 
HETATM   10  C12 UNK     1       2.055   0.646  -2.041  1.00  0.00     0.149 A 
HETATM   11  C13 UNK     1       2.173   0.092  -0.831  1.00  0.00     0.184 A 
ENDROOT
BRANCH   3  12
HETATM   12  O1  UNK     1      -3.411  -1.693   0.317  1.00  0.00    -0.336 OA
BRANCH  12  13
HETATM   13  C1  UNK     1      -3.688  -1.124   1.595  1.00  0.00     0.228 C 
BRANCH  13  14
HETATM   14  C2  UNK     1      -5.146  -0.665   1.632  1.00  0.00     0.038 C 
HETATM   15  C8  UNK     1      -6.118  -1.812   1.390  1.00  0.00     0.008 C 
ENDBRANCH  13  14
BRANCH  13  16
HETATM   16  C9  UNK     1      -3.423  -2.182   2.648  1.00  0.00     0.288 C 
HETATM   17  O5  UNK     1      -3.084  -3.334   2.405  1.00  0.00    -0.262 OA
BRANCH  16  18
HETATM   18  O3  UNK     1      -3.644  -1.661   3.891  1.00  0.00    -0.320 OA
BRANCH  18  19
HETATM   19  C14 UNK     1      -3.455  -2.566   4.983  1.00  0.00     0.174 C 
HETATM   20  C16 UNK     1      -3.738  -1.840   6.280  1.00  0.00     0.034 C 
ENDBRANCH  18  19
ENDBRANCH  16  18
ENDBRANCH  13  16
ENDBRANCH  12  13
ENDBRANCH   3  12
BRANCH  10  21
HETATM   21  O4  UNK     1       3.129   1.200  -2.698  1.00  0.00    -0.303 OA
BRANCH  21  22
HETATM   22  C15 UNK     1       3.770   2.238  -2.079  1.00  0.00     0.098 A 
HETATM   23  C17 UNK     1       5.118   2.152  -1.742  1.00  0.00     0.067 A 
HETATM   24 Cl1  UNK     1       6.036   0.734  -2.089  1.00  0.00    -0.081 Cl
HETATM   25  C19 UNK     1       5.745   3.227  -1.112  1.00  0.00     0.026 A 
HETATM   26  C21 UNK     1       5.023   4.384  -0.821  1.00  0.00     0.002 A 
HETATM   27  C20 UNK     1       3.672   4.466  -1.160  1.00  0.00     0.003 A 
HETATM   28  C18 UNK     1       3.044   3.391  -1.790  1.00  0.00     0.039 A 
ENDBRANCH  21  22
ENDBRANCH  10  21
TORSDOF 8
