REMARK  3 active torsions:
REMARK  status: ('A' for Active; 'I' for Inactive)
REMARK    1  A    between atoms: C11_13  and  C9_11 
REMARK    2  A    between atoms: C11_13  and  C12_14 
REMARK    3  A    between atoms: C13_15  and  C14_16 
ROOT
HETATM    1  O1  UNK     1       1.013   1.467  -3.188  1.00  0.00    -0.351 OA
HETATM    2  C1  UNK     1       4.095   1.474  -3.433  1.00  0.00     0.007 C 
HETATM    3  C2  UNK     1       3.612   2.631  -2.559  1.00  0.00     0.041 C 
HETATM    4  C3  UNK     1       3.052   0.987  -4.440  1.00  0.00     0.027 C 
HETATM    5  C4  UNK     1       2.599   2.219  -1.522  1.00  0.00    -0.025 A 
HETATM    6  C5  UNK     1       1.799   0.428  -3.780  1.00  0.00     0.175 C 
HETATM    7  C6  UNK     1       1.360   1.670  -1.878  1.00  0.00     0.075 A 
HETATM    8  C7  UNK     1       2.868   2.427  -0.161  1.00  0.00     0.011 A 
HETATM    9  C8  UNK     1       0.399   1.369  -0.909  1.00  0.00     0.052 A 
HETATM   10  C9  UNK     1       0.684   1.579   0.438  1.00  0.00     0.017 A 
HETATM   11  C10 UNK     1       1.919   2.103   0.812  1.00  0.00     0.016 A 
ENDROOT
BRANCH  10  12
HETATM   12  C11 UNK     1      -0.308   1.256   1.451  1.00  0.00     0.182 C 
HETATM   13  O2  UNK     1      -0.343   1.874   2.526  1.00  0.00    -0.288 OA
BRANCH  12  14
HETATM   14  C12 UNK     1      -1.273   0.136   1.183  1.00  0.00     0.056 C 
HETATM   15  C13 UNK     1      -2.186  -0.213   2.101  1.00  0.00     0.015 C 
BRANCH  15  16
HETATM   16  C14 UNK     1      -3.162  -1.305   1.935  1.00  0.00    -0.036 A 
HETATM   17  C16 UNK     1      -3.764  -1.853   3.056  1.00  0.00     0.011 A 
HETATM   18  C18 UNK     1      -4.688  -2.886   2.899  1.00  0.00     0.001 A 
HETATM   19  C19 UNK     1      -4.997  -3.357   1.623  1.00  0.00     0.000 A 
HETATM   20  C17 UNK     1      -4.383  -2.795   0.504  1.00  0.00     0.001 A 
HETATM   21  C15 UNK     1      -3.459  -1.761   0.661  1.00  0.00     0.011 A 
ENDBRANCH  15  16
ENDBRANCH  12  14
ENDBRANCH  10  12
TORSDOF 3
