REMARK  3 active torsions:
REMARK  status: ('A' for Active; 'I' for Inactive)
REMARK    1  A    between atoms: C5_11  and  O2_3 
REMARK    2  A    between atoms: C11_17  and  N1_6 
REMARK       I    between atoms: C8_14  and  N1_6 
REMARK    3  A    between atoms: C3_9  and  C8_14 
ROOT
HETATM    1  O1  UNK     1       2.344   0.672  -0.161  1.00  0.00    -0.271 OA
HETATM    2  O3  UNK     1       1.010  -0.577   1.211  1.00  0.00    -0.259 OA
HETATM    3  C1  UNK     1       1.516   1.353  -2.344  1.00  0.00     0.002 A 
HETATM    4  C2  UNK     1       2.527   1.340  -1.388  1.00  0.00     0.123 A 
HETATM    5  C3  UNK     1       0.099   0.030  -0.890  1.00  0.00     0.108 A 
HETATM    6  C4  UNK     1       0.267   0.664  -2.057  1.00  0.00     0.037 A 
HETATM    7  C5  UNK     1       3.746   1.980  -1.600  1.00  0.00     0.102 A 
HETATM    8  C6  UNK     1       1.735   2.027  -3.547  1.00  0.00     0.014 A 
HETATM    9  C7  UNK     1       1.160   0.004   0.142  1.00  0.00     0.304 A 
HETATM   10  C9  UNK     1       3.956   2.650  -2.804  1.00  0.00     0.040 A 
HETATM   11  C10 UNK     1       2.953   2.674  -3.775  1.00  0.00     0.004 A 
ENDROOT
BRANCH   5  12
HETATM   12  C8  UNK     1      -1.194  -0.635  -0.694  1.00  0.00     0.262 C 
HETATM   13  O4  UNK     1      -1.807  -1.077  -1.665  1.00  0.00    -0.267 OA
HETATM   14  N1  UNK     1      -1.566  -0.673   0.643  1.00  0.00    -0.323 N 
HETATM   15  H5  UNK     1      -0.952  -0.240   1.328  1.00  0.00     0.169 HD
BRANCH  14  16
HETATM   16  C11 UNK     1      -2.744  -1.233   1.196  1.00  0.00     0.036 A 
HETATM   17  C12 UNK     1      -2.943  -1.176   2.565  1.00  0.00     0.048 A 
HETATM   18  C14 UNK     1      -4.103  -1.727   3.109  1.00  0.00     0.013 A 
HETATM   19 Br1  UNK     1      -4.396  -1.660   4.975  1.00  0.00    -0.051 Br
HETATM   20  C16 UNK     1      -5.046  -2.328   2.276  1.00  0.00     0.019 A 
HETATM   21  C15 UNK     1      -4.830  -2.377   0.898  1.00  0.00     0.004 A 
HETATM   22  C13 UNK     1      -3.670  -1.825   0.355  1.00  0.00     0.029 A 
ENDBRANCH  14  16
ENDBRANCH   5  12
BRANCH   7  23
HETATM   23  O2  UNK     1       4.725   1.960  -0.657  1.00  0.00    -0.353 OA
HETATM   24  C17 UNK     1       4.724   3.015   0.304  1.00  0.00     0.210 C 
ENDBRANCH   7  23
TORSDOF 3
