REMARK  7 active torsions:
REMARK  status: ('A' for Active; 'I' for Inactive)
REMARK    1  A    between atoms: C9_17  and  O2_5 
REMARK    2  A    between atoms: C18_26  and  O3_6 
REMARK    3  A    between atoms: C22_30  and  O3_6 
REMARK    4  A    between atoms: C5_13  and  N1_8 
REMARK    5  A    between atoms: C5_13  and  C6_14 
REMARK    6  A    between atoms: C11_19  and  C8_16 
REMARK    7  A    between atoms: C19_27  and  C25_33 
ROOT
HETATM    1  O1  UNK     1      -2.194   0.060   0.325  1.00  0.00    -0.301 OA
HETATM    2  O4  UNK     1       1.208   2.064   1.327  1.00  0.00    -0.284 OA
HETATM    3  C6  UNK     1      -2.295  -0.971   2.446  1.00  0.00     0.038 A 
HETATM    4  C7  UNK     1      -1.643  -0.103   1.570  1.00  0.00     0.101 A 
HETATM    5  C9  UNK     1      -1.783  -1.179   3.727  1.00  0.00     0.076 A 
HETATM    6  C10 UNK     1      -0.482   0.552   1.975  1.00  0.00     0.052 A 
HETATM    7  C12 UNK     1      -0.620  -0.522   4.131  1.00  0.00     0.038 A 
HETATM    8  C13 UNK     1       0.035   0.346   3.256  1.00  0.00     0.021 A 
HETATM    9  C17 UNK     1       0.185   1.461   1.031  1.00  0.00     0.221 A 
HETATM   10  C18 UNK     1      -0.450   1.605  -0.300  1.00  0.00     0.165 A 
HETATM   11  C19 UNK     1      -1.572   0.916  -0.572  1.00  0.00     0.197 A 
ENDROOT
BRANCH  10  12
HETATM   12  O3  UNK     1       0.143   2.448  -1.215  1.00  0.00    -0.304 OA
BRANCH  12  13
HETATM   13  C22 UNK     1       1.425   2.156  -1.586  1.00  0.00     0.076 A 
HETATM   14  C23 UNK     1       2.374   3.173  -1.654  1.00  0.00     0.038 A 
HETATM   15  C20 UNK     1       3.683   2.876  -2.033  1.00  0.00     0.011 A 
HETATM   16  C11 UNK     1       4.038   1.564  -2.343  1.00  0.00    -0.050 A 
HETATM   17  C21 UNK     1       3.085   0.548  -2.273  1.00  0.00     0.011 A 
HETATM   18  C24 UNK     1       1.776   0.844  -1.894  1.00  0.00     0.038 A 
BRANCH  16  19
HETATM   19  C8  UNK     1       5.438   1.246  -2.748  1.00  0.00    -0.024 C 
HETATM   20  C14 UNK     1       6.452   1.624  -1.623  1.00  0.00     0.019 C 
HETATM   21  C15 UNK     1       5.848   2.030  -4.033  1.00  0.00     0.019 C 
HETATM   22  C16 UNK     1       5.718  -0.259  -3.072  1.00  0.00     0.019 C 
ENDBRANCH  16  19
ENDBRANCH  12  13
ENDBRANCH  10  12
BRANCH  11  23
HETATM   23  C25 UNK     1      -2.290   0.992  -1.885  1.00  0.00     0.442 C 
HETATM   24  F1  UNK     1      -1.659   1.831  -2.731  1.00  0.00    -0.164 F 
HETATM   25  F2  UNK     1      -2.351  -0.220  -2.472  1.00  0.00    -0.164 F 
HETATM   26  F3  UNK     1      -3.552   1.438  -1.723  1.00  0.00    -0.164 F 
ENDBRANCH  11  23
BRANCH   3  27
HETATM   27  C5  UNK     1      -3.542  -1.679   2.022  1.00  0.00     0.316 C 
BRANCH  27  28
HETATM   28  N1  UNK     1      -3.261  -2.965   1.402  1.00  0.00     0.092 N 
HETATM   29  C1  UNK     1      -4.478  -3.662   0.985  1.00  0.00     0.273 C 
HETATM   30  C3  UNK     1      -3.950  -4.738   0.047  1.00  0.00     0.032 C 
HETATM   31  C4  UNK     1      -2.624  -4.196  -0.476  1.00  0.00     0.032 C 
HETATM   32  C2  UNK     1      -2.462  -2.835   0.184  1.00  0.00     0.273 C 
ENDBRANCH  27  28
ENDBRANCH   3  27
BRANCH   5  33
HETATM   33  O2  UNK     1      -2.404  -2.023   4.598  1.00  0.00    -0.360 OA
HETATM   34  H26 UNK     1      -1.906  -2.041   5.433  1.00  0.00     0.217 HD
ENDBRANCH   5  33
TORSDOF 7
