REMARK  6 active torsions:
REMARK  status: ('A' for Active; 'I' for Inactive)
REMARK    1  A    between atoms: C1_8  and  O1_2 
REMARK    2  A    between atoms: C6_13  and  N1_7 
REMARK    3  A    between atoms: C1_8  and  C5_12 
REMARK    4  A    between atoms: C5_12  and  C9_16 
REMARK    5  A    between atoms: C10_17  and  C6_13 
REMARK    6  A    between atoms: C13_20  and  C9_16 
ROOT
HETATM    1 Br1  UNK     1       0.371   4.127  -5.362  1.00  0.00    -0.051 Br
HETATM    2  O2  UNK     1       1.758  -1.712  -0.535  1.00  0.00    -0.269 OA
HETATM    3  N1  UNK     1       2.596   0.402  -1.167  1.00  0.00    -0.310 N 
HETATM    4  C1  UNK     1       0.640  -0.366  -2.261  1.00  0.00     0.175 A 
HETATM    5  C2  UNK     1       1.075   0.980  -2.769  1.00  0.00     0.014 A 
HETATM    6  C3  UNK     1       2.227   1.387  -2.094  1.00  0.00     0.047 A 
HETATM    7  C4  UNK     1       1.711  -0.685  -1.197  1.00  0.00     0.264 A 
HETATM    8  C7  UNK     1       0.506   1.779  -3.746  1.00  0.00     0.032 A 
HETATM    9  C8  UNK     1       2.843   2.596  -2.368  1.00  0.00     0.032 A 
HETATM   10  C11 UNK     1       1.115   3.003  -4.035  1.00  0.00     0.011 A 
HETATM   11  C12 UNK     1       2.274   3.408  -3.351  1.00  0.00     0.021 A 
ENDROOT
BRANCH   4  12
HETATM   12  O1  UNK     1       0.739  -1.327  -3.294  1.00  0.00    -0.375 OA
HETATM   13  H7  UNK     1       0.603  -2.211  -2.915  1.00  0.00     0.211 HD
ENDBRANCH   4  12
BRANCH   4  14
HETATM   14  C5  UNK     1      -0.755  -0.362  -1.655  1.00  0.00     0.137 C 
BRANCH  14  15
HETATM   15  C9  UNK     1      -1.162  -1.727  -1.141  1.00  0.00     0.169 C 
HETATM   16  O3  UNK     1      -0.779  -2.785  -1.631  1.00  0.00    -0.292 OA
BRANCH  15  17
HETATM   17  C13 UNK     1      -2.076  -1.742   0.019  1.00  0.00     0.086 A 
HETATM   18  C16 UNK     1      -2.919  -0.708   0.121  1.00  0.00     0.035 A 
HETATM   19  C18 UNK     1      -3.858  -0.635   1.231  1.00  0.00    -0.001 A 
HETATM   20  C21 UNK     1      -3.861  -1.654   2.178  1.00  0.00     0.089 A 
HETATM   21  C23 UNK     1      -4.756   0.425   1.377  1.00  0.00     0.014 A 
HETATM   22  O4  UNK     1      -2.971  -2.739   2.064  1.00  0.00    -0.274 OA
HETATM   23  C24 UNK     1      -4.734  -1.643   3.264  1.00  0.00     0.038 A 
HETATM   24  C17 UNK     1      -2.062  -2.838   1.015  1.00  0.00     0.302 A 
HETATM   25  O5  UNK     1      -1.291  -3.786   0.925  1.00  0.00    -0.259 OA
HETATM   26  C26 UNK     1      -5.627  -0.582   3.402  1.00  0.00     0.003 A 
HETATM   27  C25 UNK     1      -5.638   0.450   2.461  1.00  0.00     0.001 A 
ENDBRANCH  15  17
ENDBRANCH  14  15
ENDBRANCH   4  14
BRANCH   3  28
HETATM   28  C6  UNK     1       3.753   0.515  -0.311  1.00  0.00     0.170 C 
BRANCH  28  29
HETATM   29  C10 UNK     1       3.420   1.169   0.999  1.00  0.00    -0.040 A 
HETATM   30  C14 UNK     1       3.516   2.550   1.121  1.00  0.00     0.009 A 
HETATM   31  C19 UNK     1       3.207   3.158   2.338  1.00  0.00     0.001 A 
HETATM   32  C22 UNK     1       2.804   2.380   3.424  1.00  0.00     0.000 A 
HETATM   33  C20 UNK     1       2.710   0.995   3.293  1.00  0.00     0.001 A 
HETATM   34  C15 UNK     1       3.019   0.387   2.076  1.00  0.00     0.009 A 
ENDBRANCH  28  29
ENDBRANCH   3  28
TORSDOF 6
