REMARK  5 active torsions:
REMARK  status: ('A' for Active; 'I' for Inactive)
REMARK    1  A    between atoms: C8_14  and  O3_3 
REMARK    2  A    between atoms: C20_26  and  O5_5 
REMARK    3  A    between atoms: C1_7  and  N1_6 
REMARK    4  A    between atoms: C1_7  and  C4_10 
REMARK    5  A    between atoms: C13_19  and  C15_21 
ROOT
HETATM    1  O2  UNK     1      -1.508  -0.898  -0.419  1.00  0.00    -0.309 OA
HETATM    2  O4  UNK     1       0.192   2.753   0.196  1.00  0.00    -0.287 OA
HETATM    3  C4  UNK     1       0.820   1.352  -2.198  1.00  0.00     0.020 A 
HETATM    4  C7  UNK     1      -0.039   0.868  -1.209  1.00  0.00     0.059 A 
HETATM    5  C8  UNK     1       1.059   0.583  -3.338  1.00  0.00     0.074 A 
HETATM    6  C9  UNK     1      -0.655  -0.374  -1.357  1.00  0.00     0.091 A 
HETATM    7  C10 UNK     1      -0.312   1.655   0.002  1.00  0.00     0.188 A 
HETATM    8  C11 UNK     1       0.443  -0.661  -3.487  1.00  0.00     0.040 A 
HETATM    9  C12 UNK     1      -0.415  -1.141  -2.497  1.00  0.00     0.041 A 
HETATM   10  C13 UNK     1      -1.760  -0.162   0.729  1.00  0.00     0.090 A 
HETATM   11  C14 UNK     1      -1.234   1.047   0.983  1.00  0.00     0.093 A 
ENDROOT
BRANCH  10  12
HETATM   12  C15 UNK     1      -2.695  -0.815   1.668  1.00  0.00    -0.002 A 
HETATM   13  C16 UNK     1      -3.532  -0.043   2.477  1.00  0.00     0.017 A 
HETATM   14  C18 UNK     1      -4.414  -0.661   3.363  1.00  0.00     0.037 A 
HETATM   15  C20 UNK     1      -4.462  -2.053   3.443  1.00  0.00     0.068 A 
HETATM   16  C19 UNK     1      -3.628  -2.827   2.636  1.00  0.00     0.037 A 
HETATM   17  C17 UNK     1      -2.745  -2.209   1.750  1.00  0.00     0.017 A 
BRANCH  15  18
HETATM   18  O5  UNK     1      -5.323  -2.655   4.307  1.00  0.00    -0.356 OA
HETATM   19  C21 UNK     1      -5.321  -4.082   4.338  1.00  0.00     0.210 C 
ENDBRANCH  15  18
ENDBRANCH  10  12
BRANCH   3  20
HETATM   20  C1  UNK     1       1.516   2.676  -2.093  1.00  0.00     0.315 C 
BRANCH  20  21
HETATM   21  N1  UNK     1       2.817   2.556  -1.438  1.00  0.00     0.096 N 
HETATM   22  C2  UNK     1       3.453   3.874  -1.296  1.00  0.00     0.299 C 
HETATM   23  C5  UNK     1       4.813   3.722  -0.622  1.00  0.00     0.198 C 
HETATM   24  O1  UNK     1       5.648   2.844  -1.378  1.00  0.00    -0.388 OA
HETATM   25  C6  UNK     1       5.052   1.551  -1.492  1.00  0.00     0.198 C 
HETATM   26  C3  UNK     1       3.698   1.651  -2.189  1.00  0.00     0.299 C 
ENDBRANCH  20  21
ENDBRANCH   3  20
BRANCH   5  27
HETATM   27  O3  UNK     1       1.894   1.025  -4.323  1.00  0.00    -0.360 OA
HETATM   28  H14 UNK     1       1.626   1.923  -4.578  1.00  0.00     0.217 HD
ENDBRANCH   5  27
TORSDOF 5
