REMARK  3 active torsions:
REMARK  status: ('A' for Active; 'I' for Inactive)
REMARK    1  A    between atoms: C12_16  and  O2_2 
REMARK    2  A    between atoms: C6_10  and  O2_2 
REMARK    3  A    between atoms: C11_15  and  C12_16 
ROOT
HETATM    1  O1  UNK     1      -1.633  -1.097   2.602  1.00  0.00    -0.275 OA
HETATM    2  O3  UNK     1      -2.967  -1.654   4.374  1.00  0.00    -0.260 OA
HETATM    3  C1  UNK     1      -2.555  -1.175   0.341  1.00  0.00     0.004 A 
HETATM    4  C2  UNK     1      -1.490  -0.931   1.210  1.00  0.00     0.092 A 
HETATM    5  C3  UNK     1      -3.838  -1.612   0.907  1.00  0.00    -0.043 A 
HETATM    6  C4  UNK     1      -2.332  -0.987  -1.029  1.00  0.00     0.017 A 
HETATM    7  C5  UNK     1      -0.238  -0.514   0.756  1.00  0.00     0.075 A 
HETATM    8  C6  UNK     1      -0.037  -0.333  -0.609  1.00  0.00     0.082 A 
HETATM    9  C7  UNK     1      -1.082  -0.569  -1.500  1.00  0.00     0.038 A 
HETATM   10  C8  UNK     1      -3.945  -1.761   2.235  1.00  0.00     0.090 A 
HETATM   11  C9  UNK     1      -5.003  -1.883  -0.000  1.00  0.00     0.049 C 
HETATM   12  C10 UNK     1      -2.832  -1.507   3.164  1.00  0.00     0.288 A 
ENDROOT
BRANCH   8  13
HETATM   13  O2  UNK     1       1.176   0.074  -1.072  1.00  0.00    -0.275 OA
BRANCH  13  14
HETATM   14  C12 UNK     1       1.343   1.472  -1.169  1.00  0.00     0.298 C 
HETATM   15  O4  UNK     1       0.469   2.275  -0.860  1.00  0.00    -0.259 OA
BRANCH  14  16
HETATM   16  C11 UNK     1       2.670   1.830  -1.674  1.00  0.00     0.039 A 
HETATM   17  C14 UNK     1       3.579   0.827  -1.991  1.00  0.00     0.017 A 
HETATM   18  C16 UNK     1       4.843   1.168  -2.473  1.00  0.00     0.001 A 
HETATM   19  C17 UNK     1       5.189   2.510  -2.634  1.00  0.00     0.000 A 
HETATM   20  C15 UNK     1       4.271   3.510  -2.313  1.00  0.00     0.001 A 
HETATM   21  C13 UNK     1       3.008   3.169  -1.832  1.00  0.00     0.017 A 
ENDBRANCH  14  16
ENDBRANCH  13  14
ENDBRANCH   8  13
TORSDOF 3
