REMARK  6 active torsions:
REMARK  status: ('A' for Active; 'I' for Inactive)
REMARK    1  A    between atoms: C2_7  and  O1_3 
REMARK    2  A    between atoms: C5_10  and  O1_3 
REMARK    3  A    between atoms: C3_8  and  O2_4 
REMARK    4  A    between atoms: C1_6  and  C9_14 
REMARK    5  A    between atoms: C5_10  and  C8_13 
REMARK    6  A    between atoms: C10_15  and  C11_16 
ROOT
HETATM    1  N1  UNK     1      -2.924   1.569   0.680  1.00  0.00    -0.191 NA
HETATM    2  C9  UNK     1      -1.457  -1.542   0.926  1.00  0.00     0.036 C 
HETATM    3  C10 UNK     1      -2.642  -0.954   1.242  1.00  0.00     0.055 C 
HETATM    4  C23 UNK     1      -2.789   0.443   0.927  1.00  0.00     0.100 C 
ENDROOT
BRANCH   3   5
HETATM    5  C11 UNK     1      -3.753  -1.655   1.865  1.00  0.00    -0.015 A 
HETATM    6  C14 UNK     1      -4.715  -2.282   1.072  1.00  0.00     0.016 A 
HETATM    7  C19 UNK     1      -5.781  -2.954   1.669  1.00  0.00     0.043 A 
HETATM    8  C21 UNK     1      -5.887  -2.999   3.060  1.00  0.00     0.116 A 
HETATM    9  C20 UNK     1      -4.925  -2.372   3.853  1.00  0.00     0.043 A 
HETATM   10  F1  UNK     1      -6.911  -3.643   3.633  1.00  0.00    -0.206 F 
HETATM   11  C15 UNK     1      -3.859  -1.700   3.255  1.00  0.00     0.016 A 
ENDBRANCH   3   5
BRANCH   2  12
HETATM   12  C1  UNK     1      -0.312  -0.875   0.291  1.00  0.00    -0.015 A 
HETATM   13  C4  UNK     1      -0.258  -0.894  -1.098  1.00  0.00     0.052 A 
HETATM   14  C3  UNK     1       0.807  -0.276  -1.754  1.00  0.00     0.102 A 
HETATM   15  C2  UNK     1       1.808   0.356  -1.016  1.00  0.00     0.103 A 
HETATM   16  C7  UNK     1       1.745   0.370   0.377  1.00  0.00     0.059 A 
HETATM   17  C6  UNK     1       0.680  -0.248   1.033  1.00  0.00     0.024 A 
HETATM   18 Br1  UNK     1       0.655  -0.192   2.932  1.00  0.00    -0.050 Br
BRANCH  14  19
HETATM   19  O2  UNK     1       0.858  -0.296  -3.115  1.00  0.00    -0.353 OA
HETATM   20  C22 UNK     1       0.226   0.781  -3.803  1.00  0.00     0.210 C 
ENDBRANCH  14  19
BRANCH  15  21
HETATM   21  O1  UNK     1       2.852   0.963  -1.646  1.00  0.00    -0.344 OA
BRANCH  21  22
HETATM   22  C5  UNK     1       3.023   2.361  -1.418  1.00  0.00     0.214 C 
BRANCH  22  23
HETATM   23  C8  UNK     1       4.196   2.848  -2.216  1.00  0.00    -0.034 A 
HETATM   24  C12 UNK     1       5.467   2.830  -1.652  1.00  0.00     0.009 A 
HETATM   25  C16 UNK     1       6.558   3.283  -2.394  1.00  0.00     0.001 A 
HETATM   26  C18 UNK     1       6.371   3.750  -3.695  1.00  0.00     0.000 A 
HETATM   27  C17 UNK     1       5.094   3.765  -4.254  1.00  0.00     0.001 A 
HETATM   28  C13 UNK     1       4.002   3.312  -3.512  1.00  0.00     0.009 A 
ENDBRANCH  22  23
ENDBRANCH  21  22
ENDBRANCH  15  21
ENDBRANCH   2  12
TORSDOF 6
