REMARK  2 active torsions:
REMARK  status: ('A' for Active; 'I' for Inactive)
REMARK    1  A    between atoms: C13_16  and  O3_3 
REMARK    2  A    between atoms: C1_4  and  C3_6 
ROOT
HETATM    1  O1  UNK     1       0.104   0.289  -1.240  1.00  0.00    -0.340 OA
HETATM    2  O2  UNK     1       2.297   3.162   0.701  1.00  0.00    -0.292 OA
HETATM    3  C1  UNK     1       0.242   0.266   0.190  1.00  0.00     0.169 C 
HETATM    4  C2  UNK     1       0.413   1.678   0.747  1.00  0.00     0.121 C 
HETATM    5  C4  UNK     1       1.633   2.307   0.127  1.00  0.00     0.165 C 
HETATM    6  C5  UNK     1       1.948   1.885  -1.254  1.00  0.00     0.043 A 
HETATM    7  C6  UNK     1       1.150   0.914  -1.867  1.00  0.00     0.083 A 
HETATM    8  C9  UNK     1       3.002   2.478  -1.953  1.00  0.00     0.018 A 
HETATM    9  C10 UNK     1       1.387   0.561  -3.196  1.00  0.00     0.038 A 
HETATM   10  C14 UNK     1       3.246   2.105  -3.276  1.00  0.00     0.001 A 
HETATM   11  C15 UNK     1       2.438   1.153  -3.897  1.00  0.00     0.003 A 
ENDROOT
BRANCH   3  12
HETATM   12  C3  UNK     1      -0.979  -0.409   0.778  1.00  0.00    -0.028 A 
HETATM   13  C8  UNK     1      -2.239   0.165   0.613  1.00  0.00     0.012 A 
HETATM   14  C12 UNK     1      -3.364  -0.456   1.156  1.00  0.00     0.037 A 
HETATM   15  C13 UNK     1      -3.228  -1.651   1.862  1.00  0.00     0.068 A 
HETATM   16  C11 UNK     1      -1.968  -2.225   2.026  1.00  0.00     0.037 A 
HETATM   17  C7  UNK     1      -0.843  -1.604   1.484  1.00  0.00     0.012 A 
BRANCH  15  18
HETATM   18  O3  UNK     1      -4.326  -2.259   2.391  1.00  0.00    -0.356 OA
HETATM   19  C16 UNK     1      -5.584  -1.618   2.185  1.00  0.00     0.210 C 
ENDBRANCH  15  18
ENDBRANCH   3  12
TORSDOF 2
