REMARK  3 active torsions:
REMARK  status: ('A' for Active; 'I' for Inactive)
REMARK       I    between atoms: C10_16  and  N1_5 
REMARK    1  A    between atoms: C5_11  and  N1_5 
REMARK    2  A    between atoms: C1_7  and  C2_8 
REMARK    3  A    between atoms: C10_16  and  C8_14 
ROOT
HETATM    1  S1  UNK     1      -1.426  -0.624   2.714  1.00  0.00    -0.075 SA
HETATM    2  N2  UNK     1      -3.411  -2.126  -1.728  1.00  0.00    -0.191 NA
HETATM    3  C1  UNK     1      -3.426  -2.000   1.875  1.00  0.00    -0.022 A 
HETATM    4  C3  UNK     1      -2.828  -1.554   3.033  1.00  0.00    -0.011 A 
HETATM    5  C4  UNK     1      -2.724  -1.573   0.711  1.00  0.00     0.085 A 
HETATM    6  C5  UNK     1      -1.649  -0.837   1.050  1.00  0.00     0.098 A 
HETATM    7  C7  UNK     1      -3.238  -1.778   4.437  1.00  0.00     0.057 C 
HETATM    8  C16 UNK     1      -3.103  -1.878  -0.635  1.00  0.00     0.103 C 
ENDROOT
BRANCH   3   9
HETATM    9  C2  UNK     1      -4.659  -2.829   1.853  1.00  0.00     0.037 C 
HETATM   10  C6  UNK     1      -5.931  -1.981   1.800  1.00  0.00     0.010 C 
ENDBRANCH   3   9
BRANCH   6  11
HETATM   11  N1  UNK     1      -0.675  -0.214   0.231  1.00  0.00    -0.316 N 
HETATM   12  C10 UNK     1       0.419   0.536   0.638  1.00  0.00     0.262 C 
HETATM   13  O2  UNK     1       0.765   0.813   1.786  1.00  0.00    -0.267 OA
HETATM   14  H3  UNK     1      -0.821  -0.375  -0.762  1.00  0.00     0.170 HD
BRANCH  12  15
HETATM   15  C8  UNK     1       1.210   1.023  -0.498  1.00  0.00     0.108 A 
HETATM   16  C11 UNK     1       2.520   1.188  -0.279  1.00  0.00     0.037 A 
HETATM   17  C9  UNK     1       3.387   1.667  -1.345  1.00  0.00    -0.001 A 
HETATM   18  C12 UNK     1       2.831   1.949  -2.589  1.00  0.00     0.089 A 
HETATM   19  C14 UNK     1       4.759   1.853  -1.162  1.00  0.00     0.014 A 
HETATM   20  O1  UNK     1       1.452   1.774  -2.813  1.00  0.00    -0.274 OA
HETATM   21  C15 UNK     1       3.606   2.411  -3.651  1.00  0.00     0.038 A 
HETATM   22  C13 UNK     1       0.597   1.317  -1.813  1.00  0.00     0.304 A 
HETATM   23  O3  UNK     1      -0.603   1.168  -2.017  1.00  0.00    -0.259 OA
HETATM   24  C18 UNK     1       4.974   2.594  -3.460  1.00  0.00     0.003 A 
HETATM   25  C17 UNK     1       5.550   2.315  -2.218  1.00  0.00     0.001 A 
ENDBRANCH  12  15
ENDBRANCH   6  11
TORSDOF 3
