REMARK  4 active torsions:
REMARK  status: ('A' for Active; 'I' for Inactive)
REMARK    1  A    between atoms: C16_21  and  O1_3 
REMARK    2  A    between atoms: C8_13  and  O1_3 
REMARK    3  A    between atoms: C12_17  and  O3_5 
REMARK    4  A    between atoms: C4_9  and  C6_11 
ROOT
HETATM    1  I1  UNK     1      -2.475  -4.232  -0.475  1.00  0.00    -0.042 I 
HETATM    2  C4  UNK     1      -1.830   0.041  -0.600  1.00  0.00    -0.031 A 
HETATM    3  C7  UNK     1      -2.216   0.511   0.645  1.00  0.00     0.051 A 
HETATM    4  C8  UNK     1      -2.688  -0.391   1.598  1.00  0.00     0.103 A 
HETATM    5  C10 UNK     1      -1.904  -1.305  -0.919  1.00  0.00     0.032 A 
HETATM    6  C12 UNK     1      -2.768  -1.750   1.293  1.00  0.00     0.115 A 
HETATM    7  C13 UNK     1      -2.377  -2.207   0.034  1.00  0.00     0.043 A 
ENDROOT
BRANCH   2   8
HETATM    8  C6  UNK     1      -1.330   0.996  -1.607  1.00  0.00     0.034 C 
HETATM    9  C2  UNK     1      -0.060   1.375  -1.762  1.00  0.00     0.057 A 
HETATM   10  C5  UNK     1       1.041   0.860  -0.905  1.00  0.00     0.200 A 
HETATM   11  S1  UNK     1       0.503   2.500  -2.954  1.00  0.00    -0.086 SA
HETATM   12  C1  UNK     1       2.317   1.459  -1.315  1.00  0.00     0.032 A 
HETATM   13  O2  UNK     1       0.924   0.060   0.005  1.00  0.00    -0.286 OA
HETATM   14  C9  UNK     1       3.549   1.205  -0.731  1.00  0.00     0.017 A 
HETATM   15  C3  UNK     1       2.175   2.341  -2.384  1.00  0.00     0.020 A 
HETATM   16  C14 UNK     1       4.667   1.863  -1.246  1.00  0.00     0.001 A 
HETATM   17  C15 UNK     1       4.536   2.753  -2.322  1.00  0.00     0.001 A 
HETATM   18  C11 UNK     1       3.285   2.996  -2.898  1.00  0.00     0.020 A 
ENDBRANCH   2   8
BRANCH   4  19
HETATM   19  O1  UNK     1      -3.068   0.070   2.822  1.00  0.00    -0.349 OA
BRANCH  19  20
HETATM   20  C16 UNK     1      -2.076   0.737   3.600  1.00  0.00     0.171 C 
HETATM   21  C17 UNK     1      -2.379   0.531   5.068  1.00  0.00     0.034 C 
ENDBRANCH  19  20
ENDBRANCH   4  19
BRANCH   6  22
HETATM   22  O3  UNK     1      -3.234  -2.610   2.245  1.00  0.00    -0.357 OA
HETATM   23  H13 UNK     1      -3.225  -3.509   1.874  1.00  0.00     0.218 HD
ENDBRANCH   6  22
TORSDOF 4
