REMARK  3 active torsions:
REMARK  status: ('A' for Active; 'I' for Inactive)
REMARK    1  A    between atoms: C4_8  and  O2_2 
REMARK    2  A    between atoms: C6_10  and  O2_2 
REMARK    3  A    between atoms: C10_14  and  O4_4 
ROOT
HETATM    1  O1  UNK     1       1.446   2.221   0.544  1.00  0.00    -0.319 OA
HETATM    2  O3  UNK     1       0.412  -1.610  -0.420  1.00  0.00    -0.284 OA
HETATM    3  C1  UNK     1       1.523   0.382  -1.045  1.00  0.00     0.051 A 
HETATM    4  C2  UNK     1       1.844   1.684  -0.656  1.00  0.00     0.091 A 
HETATM    5  C3  UNK     1       0.724  -0.462  -0.137  1.00  0.00     0.220 A 
HETATM    6  C4  UNK     1       0.324   0.165   1.143  1.00  0.00     0.149 A 
HETATM    7  C5  UNK     1       1.955  -0.112  -2.279  1.00  0.00     0.021 A 
HETATM    8  C7  UNK     1       2.598   2.499  -1.500  1.00  0.00     0.074 A 
HETATM    9  C8  UNK     1       0.704   1.424   1.381  1.00  0.00     0.184 A 
HETATM   10  C10 UNK     1       3.031   2.008  -2.732  1.00  0.00     0.068 A 
HETATM   11  C11 UNK     1       2.709   0.706  -3.121  1.00  0.00     0.037 A 
ENDROOT
BRANCH   6  12
HETATM   12  O2  UNK     1      -0.422  -0.555   2.046  1.00  0.00    -0.305 OA
BRANCH  12  13
HETATM   13  C6  UNK     1      -1.644  -1.005   1.626  1.00  0.00     0.076 A 
HETATM   14  C12 UNK     1      -2.491  -0.151   0.926  1.00  0.00     0.044 A 
HETATM   15  C9  UNK     1      -3.736  -0.610   0.497  1.00  0.00    -0.059 A 
HETATM   16  C14 UNK     1      -4.128  -1.921   0.769  1.00  0.00     0.007 A 
HETATM   17  C16 UNK     1      -4.649   0.300  -0.253  1.00  0.00     0.048 C 
HETATM   18  C15 UNK     1      -3.274  -2.773   1.471  1.00  0.00     0.003 A 
HETATM   19  C13 UNK     1      -2.029  -2.313   1.900  1.00  0.00     0.037 A 
ENDBRANCH  12  13
ENDBRANCH   6  12
BRANCH  10  20
HETATM   20  O4  UNK     1       3.767   2.801  -3.559  1.00  0.00    -0.361 OA
HETATM   21  H12 UNK     1       3.980   2.302  -4.367  1.00  0.00     0.217 HD
ENDBRANCH  10  20
TORSDOF 3
