REMARK  1 active torsions:
REMARK  status: ('A' for Active; 'I' for Inactive)
REMARK    1  A    between atoms: C6_10  and  O2_2 
ROOT
HETATM    1  O1  UNK     1      -0.520   0.095  -1.664  1.00  0.00    -0.273 OA
HETATM    2  O3  UNK     1       1.030   0.980  -3.088  1.00  0.00    -0.258 OA
HETATM    3  N1  UNK     1       3.885   2.096  -1.184  1.00  0.00    -0.191 NA
HETATM    4  C1  UNK     1      -0.069   0.031   0.722  1.00  0.00    -0.000 A 
HETATM    5  C2  UNK     1      -0.909  -0.238  -0.353  1.00  0.00     0.092 A 
HETATM    6  C3  UNK     1      -0.488  -0.313   2.009  1.00  0.00     0.017 A 
HETATM    7  C4  UNK     1       1.217   0.660   0.466  1.00  0.00     0.043 A 
HETATM    8  C5  UNK     1      -2.154  -0.840  -0.178  1.00  0.00     0.074 A 
HETATM    9  C6  UNK     1      -2.565  -1.180   1.109  1.00  0.00     0.068 A 
HETATM   10  C7  UNK     1      -1.734  -0.918   2.200  1.00  0.00     0.037 A 
HETATM   11  C8  UNK     1       1.591   0.978  -0.780  1.00  0.00     0.120 A 
HETATM   12  C9  UNK     1       0.705   0.698  -1.939  1.00  0.00     0.309 A 
HETATM   13  C10 UNK     1       2.855   1.594  -1.003  1.00  0.00     0.105 C 
ENDROOT
BRANCH   9  14
HETATM   14  O2  UNK     1      -3.777  -1.768   1.304  1.00  0.00    -0.361 OA
HETATM   15  H5  UNK     1      -4.217  -1.875   0.443  1.00  0.00     0.217 HD
ENDBRANCH   9  14
TORSDOF 1
