REMARK  2 active torsions:
REMARK  status: ('A' for Active; 'I' for Inactive)
REMARK    1  A    between atoms: C4_9  and  O3_3 
REMARK    2  A    between atoms: C6_11  and  O4_4 
ROOT
HETATM    1  O1  UNK     1       1.552   0.980  -2.646  1.00  0.00    -0.319 OA
HETATM    2  O2  UNK     1      -2.180  -0.927  -0.229  1.00  0.00    -0.272 OA
HETATM    3  O5  UNK     1      -3.893  -1.815   1.006  1.00  0.00    -0.260 OA
HETATM    4  C1  UNK     1       1.650   0.766  -0.399  1.00  0.00     0.037 A 
HETATM    5  C2  UNK     1      -0.160  -0.175   0.906  1.00  0.00     0.035 A 
HETATM    6  C3  UNK     1       0.878   0.559  -1.538  1.00  0.00     0.124 A 
HETATM    7  C4  UNK     1       1.123   0.392   0.853  1.00  0.00     0.094 A 
HETATM    8  C5  UNK     1      -0.886  -0.357  -0.271  1.00  0.00     0.128 A 
HETATM    9  C6  UNK     1      -0.398   0.001  -1.531  1.00  0.00     0.138 A 
HETATM   10  C7  UNK     1       2.862   1.347  -0.854  1.00  0.00     0.042 A 
HETATM   11  C8  UNK     1      -0.759  -0.582   2.167  1.00  0.00     0.023 A 
HETATM   12  C9  UNK     1       2.751   1.456  -2.221  1.00  0.00     0.143 A 
HETATM   13  C10 UNK     1      -1.981  -1.120   2.194  1.00  0.00     0.083 A 
HETATM   14  C11 UNK     1      -2.770  -1.323   0.966  1.00  0.00     0.288 A 
ENDROOT
BRANCH   7  15
HETATM   15  O3  UNK     1       1.859   0.583   1.991  1.00  0.00    -0.354 OA
HETATM   16  C12 UNK     1       1.698   1.831   2.658  1.00  0.00     0.210 C 
ENDBRANCH   7  15
BRANCH   9  17
HETATM   17  O4  UNK     1      -1.120  -0.184  -2.671  1.00  0.00    -0.351 OA
HETATM   18  C13 UNK     1      -1.426   0.978  -3.440  1.00  0.00     0.210 C 
ENDBRANCH   9  17
TORSDOF 2
