REMARK  6 active torsions:
REMARK  status: ('A' for Active; 'I' for Inactive)
REMARK    1  A    between atoms: C11_15  and  S1_1 
REMARK    2  A    between atoms: C17_21  and  S1_1 
REMARK       I    between atoms: C10_14  and  N1_3 
REMARK    3  A    between atoms: C2_6  and  N1_3 
REMARK    4  A    between atoms: C1_5  and  C7_11 
REMARK    5  A    between atoms: C8_12  and  C9_13 
REMARK    6  A    between atoms: C10_14  and  C11_15 
ROOT
HETATM    1  C1  UNK     1      -1.876  -0.558   1.476  1.00  0.00    -0.036 A 
HETATM    2  C2  UNK     1       0.167   0.724   0.113  1.00  0.00     0.034 A 
HETATM    3  C3  UNK     1      -2.000  -0.343   0.113  1.00  0.00     0.013 A 
HETATM    4  C4  UNK     1      -0.751  -0.145   2.171  1.00  0.00     0.013 A 
HETATM    5  C5  UNK     1      -0.972   0.302  -0.573  1.00  0.00     0.030 A 
HETATM    6  C6  UNK     1       0.278   0.501   1.485  1.00  0.00     0.030 A 
ENDROOT
BRANCH   2   7
HETATM    7  N1  UNK     1       1.195   1.372  -0.574  1.00  0.00    -0.327 N 
HETATM    8  C10 UNK     1       1.263   1.685  -1.939  1.00  0.00     0.231 C 
HETATM    9  O1  UNK     1       0.421   1.427  -2.796  1.00  0.00    -0.272 OA
HETATM   10  H6  UNK     1       1.991   1.645  -0.001  1.00  0.00     0.169 HD
BRANCH   8  11
HETATM   11  C11 UNK     1       2.546   2.395  -2.312  1.00  0.00     0.184 C 
BRANCH  11  12
HETATM   12  S1  UNK     1       3.783   1.158  -2.775  1.00  0.00    -0.101 SA
BRANCH  12  13
HETATM   13  C17 UNK     1       5.179   2.246  -3.164  1.00  0.00     0.093 A 
HETATM   14  N2  UNK     1       4.853   3.458  -3.631  1.00  0.00    -0.254 NA
HETATM   15  C21 UNK     1       5.897   4.267  -3.921  1.00  0.00     0.118 A 
HETATM   16  C20 UNK     1       7.225   3.905  -3.761  1.00  0.00     0.019 A 
HETATM   17  C19 UNK     1       7.499   2.633  -3.272  1.00  0.00     0.004 A 
HETATM   18  C18 UNK     1       6.452   1.772  -2.963  1.00  0.00     0.039 A 
ENDBRANCH  12  13
ENDBRANCH  11  12
ENDBRANCH   8  11
ENDBRANCH   2   7
BRANCH   1  19
HETATM   19  C7  UNK     1      -2.962  -1.239   2.202  1.00  0.00     0.012 C 
HETATM   20  C9  UNK     1      -3.912  -2.019   1.634  1.00  0.00     0.012 C 
BRANCH  20  21
HETATM   21  C8  UNK     1      -4.973  -2.707   2.352  1.00  0.00    -0.036 A 
HETATM   22  C12 UNK     1      -5.337  -2.286   3.631  1.00  0.00     0.011 A 
HETATM   23  C14 UNK     1      -6.357  -2.945   4.319  1.00  0.00     0.001 A 
HETATM   24  C16 UNK     1      -7.012  -4.025   3.727  1.00  0.00     0.000 A 
HETATM   25  C15 UNK     1      -6.647  -4.446   2.448  1.00  0.00     0.001 A 
HETATM   26  C13 UNK     1      -5.628  -3.787   1.761  1.00  0.00     0.011 A 
ENDBRANCH  20  21
ENDBRANCH   1  19
TORSDOF 6
