REMARK  3 active torsions:
REMARK  status: ('A' for Active; 'I' for Inactive)
REMARK    1  A    between atoms: C9_13  and  O3_3 
REMARK    2  A    between atoms: C15_19  and  O4_4 
REMARK    3  A    between atoms: C3_7  and  C4_8 
ROOT
HETATM    1  O1  UNK     1      -0.608  -0.180  -0.490  1.00  0.00    -0.309 OA
HETATM    2  O2  UNK     1      -1.000   1.437   3.229  1.00  0.00    -0.287 OA
HETATM    3  C1  UNK     1      -1.767  -0.138   1.644  1.00  0.00     0.048 A 
HETATM    4  C2  UNK     1      -1.578  -0.647   0.360  1.00  0.00     0.093 A 
HETATM    5  C3  UNK     1       0.214   0.849  -0.053  1.00  0.00     0.090 A 
HETATM    6  C5  UNK     1      -0.892   0.946   2.114  1.00  0.00     0.187 A 
HETATM    7  C6  UNK     1       0.134   1.416   1.161  1.00  0.00     0.093 A 
HETATM    8  C7  UNK     1      -2.771  -0.654   2.467  1.00  0.00     0.021 A 
HETATM    9  C8  UNK     1      -2.393  -1.677  -0.109  1.00  0.00     0.074 A 
HETATM   10  C9  UNK     1      -3.398  -2.194   0.710  1.00  0.00     0.068 A 
HETATM   11  C12 UNK     1      -3.586  -1.683   1.995  1.00  0.00     0.037 A 
ENDROOT
BRANCH   5  12
HETATM   12  C4  UNK     1       1.225   1.270  -1.043  1.00  0.00    -0.002 A 
HETATM   13  C10 UNK     1       2.461   1.763  -0.617  1.00  0.00     0.017 A 
HETATM   14  C13 UNK     1       3.416   2.161  -1.552  1.00  0.00     0.037 A 
HETATM   15  C15 UNK     1       3.139   2.066  -2.916  1.00  0.00     0.065 A 
HETATM   16  C14 UNK     1       1.906   1.574  -3.345  1.00  0.00     0.037 A 
HETATM   17  C11 UNK     1       0.951   1.177  -2.409  1.00  0.00     0.017 A 
BRANCH  15  18
HETATM   18  O4  UNK     1       4.072   2.453  -3.829  1.00  0.00    -0.361 OA
HETATM   19  H10 UNK     1       4.863   2.767  -3.357  1.00  0.00     0.217 HD
ENDBRANCH  15  18
ENDBRANCH   5  12
BRANCH  10  20
HETATM   20  O3  UNK     1      -4.194  -3.200   0.255  1.00  0.00    -0.361 OA
HETATM   21  H9  UNK     1      -4.833  -3.435   0.951  1.00  0.00     0.217 HD
ENDBRANCH  10  20
TORSDOF 3
