REMARK  2 active torsions:
REMARK  status: ('A' for Active; 'I' for Inactive)
REMARK       I    between atoms: C5_11  and  N1_6 
REMARK    1  A    between atoms: C7_13  and  N1_6 
REMARK    2  A    between atoms: C2_8  and  C5_11 
ROOT
HETATM    1  O2  UNK     1       0.163   0.709   1.868  1.00  0.00    -0.267 OA
HETATM    2  N1  UNK     1      -1.122  -0.416   0.248  1.00  0.00    -0.320 N 
HETATM    3  C5  UNK     1      -0.080   0.378   0.708  1.00  0.00     0.262 C 
HETATM    4  H4  UNK     1      -1.175  -0.617  -0.748  1.00  0.00     0.169 HD
ENDROOT
BRANCH   3   5
HETATM    5  C2  UNK     1       0.791   0.835  -0.378  1.00  0.00     0.108 A 
HETATM    6  C8  UNK     1       0.292   1.061  -1.763  1.00  0.00     0.304 A 
HETATM    7  O1  UNK     1       1.221   1.494  -2.707  1.00  0.00    -0.274 OA
HETATM    8  O3  UNK     1      -0.883   0.877  -2.062  1.00  0.00    -0.259 OA
HETATM    9  C3  UNK     1       2.572   1.712  -2.383  1.00  0.00     0.089 A 
HETATM   10  C1  UNK     1       3.026   1.498  -1.088  1.00  0.00    -0.001 A 
HETATM   11  C9  UNK     1       3.423   2.146  -3.397  1.00  0.00     0.038 A 
HETATM   12  C4  UNK     1       2.082   1.046  -0.080  1.00  0.00     0.037 A 
HETATM   13  C6  UNK     1       4.374   1.725  -0.800  1.00  0.00     0.014 A 
HETATM   14  C10 UNK     1       5.241   2.160  -1.807  1.00  0.00     0.001 A 
HETATM   15  C11 UNK     1       4.766   2.369  -3.103  1.00  0.00     0.003 A 
ENDBRANCH   3   5
BRANCH   2  16
HETATM   16  C7  UNK     1      -2.147  -1.027   1.010  1.00  0.00     0.074 A 
HETATM   17  C12 UNK     1      -3.108  -1.790   0.369  1.00  0.00     0.144 A 
HETATM   18  C14 UNK     1      -4.116  -2.391   1.123  1.00  0.00     0.068 A 
HETATM   19  F1  UNK     1      -3.088  -1.960  -0.961  1.00  0.00    -0.204 F 
HETATM   20  C16 UNK     1      -4.148  -2.220   2.507  1.00  0.00     0.037 A 
HETATM   21  C15 UNK     1      -3.172  -1.449   3.137  1.00  0.00     0.026 A 
HETATM   22 Cl1  UNK     1      -5.391  -2.962   3.437  1.00  0.00    -0.084 Cl
HETATM   23  C13 UNK     1      -2.163  -0.848   2.383  1.00  0.00     0.034 A 
ENDBRANCH   2  16
TORSDOF 2
