REMARK  1 active torsions:
REMARK  status: ('A' for Active; 'I' for Inactive)
REMARK    1  A    between atoms: C4_8  and  C9_13 
ROOT
HETATM    1 Cl1  UNK     1       4.202   2.309  -0.835  1.00  0.00    -0.084 Cl
HETATM    2  O1  UNK     1      -1.047  -0.253  -1.652  1.00  0.00    -0.274 OA
HETATM    3  O2  UNK     1      -2.927  -1.240  -0.806  1.00  0.00    -0.259 OA
HETATM    4  C1  UNK     1       0.689   0.518  -0.135  1.00  0.00     0.001 A 
HETATM    5  C2  UNK     1       0.203   0.355  -1.428  1.00  0.00     0.089 A 
HETATM    6  C3  UNK     1      -0.115   0.050   0.983  1.00  0.00     0.035 A 
HETATM    7  C4  UNK     1      -1.303  -0.528   0.765  1.00  0.00     0.086 A 
HETATM    8  C5  UNK     1       1.933   1.127   0.046  1.00  0.00     0.038 A 
HETATM    9  C6  UNK     1       0.923   0.783  -2.542  1.00  0.00     0.040 A 
HETATM   10  C7  UNK     1      -1.839  -0.711  -0.602  1.00  0.00     0.302 A 
HETATM   11  C8  UNK     1       2.668   1.560  -1.062  1.00  0.00     0.035 A 
HETATM   12  C10 UNK     1       2.163   1.388  -2.353  1.00  0.00     0.026 A 
ENDROOT
BRANCH   7  13
HETATM   13  C9  UNK     1      -2.039  -0.967   1.956  1.00  0.00     0.161 C 
HETATM   14  C11 UNK     1      -1.242  -1.390   3.163  1.00  0.00     0.097 C 
HETATM   15  O3  UNK     1      -3.270  -0.993   1.956  1.00  0.00    -0.293 OA
ENDBRANCH   7  13
TORSDOF 1
