REMARK  4 active torsions:
REMARK  status: ('A' for Active; 'I' for Inactive)
REMARK    1  A    between atoms: C12_16  and  O2_2 
REMARK    2  A    between atoms: C4_8  and  O2_2 
REMARK    3  A    between atoms: C12_16  and  C6_10 
REMARK    4  A    between atoms: C6_10  and  C8_12 
ROOT
HETATM    1  O1  UNK     1      -2.417  -1.158  -0.667  1.00  0.00    -0.275 OA
HETATM    2  O4  UNK     1      -4.612  -1.780  -0.516  1.00  0.00    -0.260 OA
HETATM    3  C1  UNK     1      -1.189  -0.604   1.371  1.00  0.00     0.004 A 
HETATM    4  C2  UNK     1      -1.235  -0.751  -0.016  1.00  0.00     0.092 A 
HETATM    5  C3  UNK     1      -2.405  -0.881   2.148  1.00  0.00    -0.043 A 
HETATM    6  C4  UNK     1       1.069  -0.105  -0.243  1.00  0.00     0.082 A 
HETATM    7  C5  UNK     1       0.024  -0.197   1.942  1.00  0.00     0.017 A 
HETATM    8  C7  UNK     1      -0.126  -0.509  -0.829  1.00  0.00     0.075 A 
HETATM    9  C9  UNK     1       1.144   0.050   1.140  1.00  0.00     0.038 A 
HETATM   10  C10 UNK     1      -3.515  -1.266   1.503  1.00  0.00     0.090 A 
HETATM   11  C11 UNK     1      -2.388  -0.731   3.641  1.00  0.00     0.049 C 
HETATM   12  C14 UNK     1      -3.578  -1.426   0.040  1.00  0.00     0.288 A 
ENDROOT
BRANCH   6  13
HETATM   13  O2  UNK     1       2.162   0.136  -1.017  1.00  0.00    -0.279 OA
BRANCH  13  14
HETATM   14  C12 UNK     1       2.271   1.467  -1.465  1.00  0.00     0.264 C 
HETATM   15  O3  UNK     1       1.480   2.364  -1.209  1.00  0.00    -0.265 OA
BRANCH  14  16
HETATM   16  C6  UNK     1       3.517   1.612  -2.310  1.00  0.00     0.111 C 
BRANCH  16  17
HETATM   17  C8  UNK     1       3.679   3.031  -2.848  1.00  0.00     0.005 C 
HETATM   18  C13 UNK     1       4.916   3.158  -3.723  1.00  0.00     0.005 C 
ENDBRANCH  16  17
ENDBRANCH  14  16
ENDBRANCH  13  14
ENDBRANCH   6  13
TORSDOF 4
