REMARK  3 active torsions:
REMARK  status: ('A' for Active; 'I' for Inactive)
REMARK    1  A    between atoms: C5_13  and  N1_7 
REMARK       I    between atoms: C8_16  and  N1_7 
REMARK    2  A    between atoms: C10_18  and  N2_8 
REMARK    3  A    between atoms: C3_11  and  C8_16 
ROOT
HETATM    1  O1  UNK     1       0.470   0.242  -2.753  1.00  0.00    -0.274 OA
HETATM    2  O3  UNK     1      -1.300  -0.973  -1.972  1.00  0.00    -0.259 OA
HETATM    3  C1  UNK     1       2.082   1.160  -1.181  1.00  0.00     0.001 A 
HETATM    4  C2  UNK     1       1.640   0.981  -2.488  1.00  0.00     0.089 A 
HETATM    5  C3  UNK     1       0.205  -0.128  -0.350  1.00  0.00     0.108 A 
HETATM    6  C4  UNK     1       1.316   0.573  -0.092  1.00  0.00     0.037 A 
HETATM    7  C6  UNK     1       3.247   1.898  -0.958  1.00  0.00     0.050 A 
HETATM    8  C9  UNK     1       2.327   1.517  -3.575  1.00  0.00     0.041 A 
HETATM    9  C10 UNK     1       3.947   2.443  -2.039  1.00  0.00     0.103 A 
HETATM   10  C11 UNK     1      -0.283  -0.331  -1.732  1.00  0.00     0.304 A 
HETATM   11  C12 UNK     1       3.487   2.253  -3.344  1.00  0.00     0.039 A 
ENDROOT
BRANCH   5  12
HETATM   12  C8  UNK     1      -0.497  -0.681   0.814  1.00  0.00     0.262 C 
HETATM   13  O2  UNK     1       0.138  -0.990   1.820  1.00  0.00    -0.267 OA
HETATM   14  N1  UNK     1      -1.865  -0.784   0.600  1.00  0.00    -0.322 N 
HETATM   15  H3  UNK     1      -2.226  -0.457  -0.291  1.00  0.00     0.169 HD
BRANCH  14  16
HETATM   16  C5  UNK     1      -2.846  -1.272   1.498  1.00  0.00     0.041 A 
HETATM   17  C13 UNK     1      -2.437  -1.708   2.748  1.00  0.00     0.033 A 
HETATM   18  C16 UNK     1      -3.388  -2.193   3.646  1.00  0.00     0.044 A 
HETATM   19  C17 UNK     1      -4.733  -2.236   3.281  1.00  0.00     0.117 A 
HETATM   20  C14 UNK     1      -5.129  -1.793   2.019  1.00  0.00     0.051 A 
HETATM   21  F1  UNK     1      -5.646  -2.703   4.144  1.00  0.00    -0.206 F 
HETATM   22  C7  UNK     1      -4.178  -1.307   1.121  1.00  0.00    -0.032 A 
HETATM   23  C15 UNK     1      -4.630  -0.842  -0.225  1.00  0.00     0.050 C 
ENDBRANCH  14  16
ENDBRANCH   5  12
BRANCH   9  24
HETATM   24  N2  UNK     1       5.130   3.193  -1.809  1.00  0.00    -0.116 N 
HETATM   25  O4  UNK     1       5.745   3.674  -2.791  1.00  0.00    -0.532 OA
HETATM   26  O5  UNK     1       5.528   3.354  -0.630  1.00  0.00    -0.532 OA
ENDBRANCH   9  24
TORSDOF 3
