REMARK  1 active torsions:
REMARK  status: ('A' for Active; 'I' for Inactive)
REMARK    1  A    between atoms: C10_13  and  C6_9 
ROOT
HETATM    1  O1  UNK     1       1.615   0.669   2.020  1.00  0.00    -0.320 OA
HETATM    2  O2  UNK     1      -2.760  -1.367   1.941  1.00  0.00    -0.274 OA
HETATM    3  O3  UNK     1      -4.834  -2.324   1.834  1.00  0.00    -0.260 OA
HETATM    4  C1  UNK     1       0.538   0.391   0.054  1.00  0.00     0.012 A 
HETATM    5  C2  UNK     1       0.478   0.205   1.430  1.00  0.00     0.094 A 
HETATM    6  C3  UNK     1      -1.672  -0.621  -0.118  1.00  0.00     0.005 A 
HETATM    7  C4  UNK     1      -0.600  -0.375   2.091  1.00  0.00     0.008 A 
HETATM    8  C5  UNK     1      -1.662  -0.777   1.272  1.00  0.00     0.099 A 
HETATM    9  C6  UNK     1       1.794   1.006  -0.197  1.00  0.00     0.009 A 
HETATM   10  C7  UNK     1      -0.553  -0.028  -0.734  1.00  0.00     0.030 A 
HETATM   11  C8  UNK     1      -2.849  -1.084  -0.869  1.00  0.00    -0.043 A 
HETATM   12  C9  UNK     1       2.406   1.152   1.026  1.00  0.00     0.155 A 
HETATM   13  C11 UNK     1      -0.632  -0.559   3.569  1.00  0.00     0.054 C 
HETATM   14  C12 UNK     1      -3.872  -1.639  -0.203  1.00  0.00     0.090 A 
HETATM   15  C13 UNK     1      -2.892  -0.932  -2.362  1.00  0.00     0.049 C 
HETATM   16  C14 UNK     1      -3.880  -1.812   1.258  1.00  0.00     0.288 A 
ENDROOT
BRANCH   9  17
HETATM   17  C10 UNK     1       2.396   1.428  -1.426  1.00  0.00    -0.023 A 
HETATM   18  C16 UNK     1       2.183   2.723  -1.903  1.00  0.00     0.012 A 
HETATM   19  C18 UNK     1       2.769   3.135  -3.100  1.00  0.00     0.001 A 
HETATM   20  C19 UNK     1       3.571   2.252  -3.823  1.00  0.00     0.000 A 
HETATM   21  C17 UNK     1       3.786   0.958  -3.349  1.00  0.00     0.001 A 
HETATM   22  C15 UNK     1       3.200   0.546  -2.152  1.00  0.00     0.012 A 
ENDBRANCH   9  17
TORSDOF 1
