REMARK  4 active torsions:
REMARK  status: ('A' for Active; 'I' for Inactive)
REMARK    1  A    between atoms: C9_15  and  O2_2 
REMARK    2  A    between atoms: C1_7  and  N1_5 
REMARK       I    between atoms: C6_12  and  N1_5 
REMARK    3  A    between atoms: C1_7  and  C2_8 
REMARK    4  A    between atoms: C4_10  and  C6_12 
ROOT
HETATM    1  O1  UNK     1       2.128   0.781  -0.076  1.00  0.00    -0.271 OA
HETATM    2  O4  UNK     1       0.470  -0.324   1.041  1.00  0.00    -0.259 OA
HETATM    3  C4  UNK     1       0.104   0.091  -1.263  1.00  0.00     0.108 A 
HETATM    4  C5  UNK     1       1.865   1.263  -2.445  1.00  0.00     0.002 A 
HETATM    5  C7  UNK     1       2.618   1.332  -1.277  1.00  0.00     0.123 A 
HETATM    6  C8  UNK     1       0.564   0.612  -2.406  1.00  0.00     0.037 A 
HETATM    7  C9  UNK     1       3.871   1.940  -1.246  1.00  0.00     0.102 A 
HETATM    8  C12 UNK     1       0.888   0.153  -0.008  1.00  0.00     0.304 A 
HETATM    9  C13 UNK     1       2.385   1.820  -3.616  1.00  0.00     0.014 A 
HETATM   10  C14 UNK     1       4.382   2.493  -2.418  1.00  0.00     0.040 A 
HETATM   11  C15 UNK     1       3.640   2.434  -3.601  1.00  0.00     0.004 A 
ENDROOT
BRANCH   3  12
HETATM   12  C6  UNK     1      -1.218  -0.544  -1.324  1.00  0.00     0.258 C 
HETATM   13  O3  UNK     1      -1.616  -1.074  -2.359  1.00  0.00    -0.267 OA
HETATM   14  N1  UNK     1      -1.909  -0.464  -0.128  1.00  0.00    -0.348 N 
HETATM   15  H2  UNK     1      -1.506   0.059   0.644  1.00  0.00     0.163 HD
BRANCH  14  16
HETATM   16  C1  UNK     1      -3.232  -1.014   0.055  1.00  0.00     0.114 C 
HETATM   17  C3  UNK     1      -4.306  -0.016  -0.363  1.00  0.00     0.037 C 
BRANCH  16  18
HETATM   18  C2  UNK     1      -3.393  -1.479   1.487  1.00  0.00    -0.033 A 
HETATM   19  C10 UNK     1      -3.576  -2.822   1.744  1.00  0.00     0.028 A 
HETATM   20  C16 UNK     1      -3.717  -3.196   3.071  1.00  0.00     0.116 A 
HETATM   21  N2  UNK     1      -3.686  -2.331   4.109  1.00  0.00    -0.273 NA
HETATM   22  C17 UNK     1      -3.505  -1.028   3.799  1.00  0.00     0.116 A 
HETATM   23  C11 UNK     1      -3.353  -0.552   2.507  1.00  0.00     0.028 A 
ENDBRANCH  16  18
ENDBRANCH  14  16
ENDBRANCH   3  12
BRANCH   7  24
HETATM   24  O2  UNK     1       4.596   2.000  -0.097  1.00  0.00    -0.353 OA
HETATM   25  C18 UNK     1       4.397   3.140   0.738  1.00  0.00     0.210 C 
ENDBRANCH   7  24
TORSDOF 4
