REMARK  2 active torsions:
REMARK  status: ('A' for Active; 'I' for Inactive)
REMARK    1  A    between atoms: C4_8  and  N1_4 
REMARK       I    between atoms: C8_12  and  N1_4 
REMARK    2  A    between atoms: C3_7  and  C8_12 
ROOT
HETATM    1  O1  UNK     1       0.630   0.568  -1.111  1.00  0.00    -0.304 OA
HETATM    2  O2  UNK     1       4.185   2.075   0.202  1.00  0.00    -0.287 OA
HETATM    3  C1  UNK     1       2.759   1.621  -1.629  1.00  0.00     0.048 A 
HETATM    4  C2  UNK     1       1.526   1.090  -2.011  1.00  0.00     0.090 A 
HETATM    5  C3  UNK     1       0.980   0.578   0.223  1.00  0.00     0.147 A 
HETATM    6  C5  UNK     1       3.121   1.626  -0.202  1.00  0.00     0.187 A 
HETATM    7  C6  UNK     1       2.125   1.055   0.727  1.00  0.00     0.098 A 
HETATM    8  C9  UNK     1       3.632   2.138  -2.589  1.00  0.00     0.018 A 
HETATM    9  C11 UNK     1       1.160   1.073  -3.357  1.00  0.00     0.038 A 
HETATM   10  C13 UNK     1       3.263   2.120  -3.935  1.00  0.00     0.001 A 
HETATM   11  C15 UNK     1       2.030   1.589  -4.318  1.00  0.00     0.003 A 
ENDROOT
BRANCH   5  12
HETATM   12  C8  UNK     1       0.011   0.018   1.167  1.00  0.00     0.280 C 
HETATM   13  O3  UNK     1       0.268  -0.002   2.372  1.00  0.00    -0.265 OA
HETATM   14  N1  UNK     1      -1.136  -0.445   0.534  1.00  0.00    -0.321 N 
HETATM   15  H4  UNK     1      -1.184  -0.350  -0.479  1.00  0.00     0.169 HD
BRANCH  14  16
HETATM   16  C4  UNK     1      -2.273  -1.045   1.128  1.00  0.00     0.035 A 
HETATM   17  C10 UNK     1      -3.343  -1.453   0.333  1.00  0.00     0.036 A 
HETATM   18  C7  UNK     1      -4.462  -2.044   0.920  1.00  0.00    -0.060 A 
HETATM   19  C14 UNK     1      -4.511  -2.227   2.302  1.00  0.00     0.007 A 
HETATM   20  C17 UNK     1      -5.607  -2.480   0.069  1.00  0.00     0.048 C 
HETATM   21  C16 UNK     1      -3.440  -1.819   3.097  1.00  0.00     0.003 A 
HETATM   22  C12 UNK     1      -2.321  -1.227   2.510  1.00  0.00     0.029 A 
ENDBRANCH  14  16
ENDBRANCH   5  12
TORSDOF 2
