REMARK  8 active torsions:
REMARK  status: ('A' for Active; 'I' for Inactive)
REMARK    1  A    between atoms: C4_15  and  O1_1 
REMARK    2  A    between atoms: C7_18  and  O1_1 
REMARK    3  A    between atoms: C14_25  and  N1_8 
REMARK    4  A    between atoms: N1_8  and  N2_9 
REMARK    5  A    between atoms: C15_26  and  N3_10 
REMARK    6  A    between atoms: C20_31  and  N4_11 
REMARK    7  A    between atoms: C7_18  and  C9_20 
REMARK    8  A    between atoms: C11_22  and  C9_20 
ROOT
HETATM    1  N2  UNK     1       1.153   0.293  -0.157  1.00  0.00    -0.176 NA
HETATM    2  C9  UNK     1       1.169   0.190   1.140  1.00  0.00     0.089 C 
ENDROOT
BRANCH   2   3
HETATM    3  C11 UNK     1       2.253   0.898   1.880  1.00  0.00    -0.008 A 
HETATM    4  C16 UNK     1       3.429   0.226   2.131  1.00  0.00     0.013 A 
HETATM    5  C22 UNK     1       4.443   0.889   2.823  1.00  0.00     0.001 A 
HETATM    6  C24 UNK     1       4.255   2.205   3.245  1.00  0.00     0.000 A 
HETATM    7  C23 UNK     1       3.052   2.858   2.975  1.00  0.00     0.001 A 
HETATM    8  C17 UNK     1       2.038   2.196   2.284  1.00  0.00     0.013 A 
ENDBRANCH   2   3
BRANCH   2   9
HETATM    9  C7  UNK     1       0.150  -0.594   1.955  1.00  0.00     0.237 C 
BRANCH   9  10
HETATM   10  O1  UNK     1      -1.150  -0.040   1.752  1.00  0.00    -0.345 OA
BRANCH  10  11
HETATM   11  C4  UNK     1      -2.212  -0.874   1.922  1.00  0.00     0.071 A 
HETATM   12  C5  UNK     1      -3.381  -0.673   1.196  1.00  0.00     0.075 A 
HETATM   13  C2  UNK     1      -4.458  -1.540   1.386  1.00  0.00     0.092 A 
HETATM   14  C1  UNK     1      -4.407  -2.608   2.283  1.00  0.00     0.004 A 
HETATM   15  O2  UNK     1      -5.614  -1.286   0.621  1.00  0.00    -0.275 OA
HETATM   16  C3  UNK     1      -5.588  -3.470   2.419  1.00  0.00    -0.043 A 
HETATM   17  C6  UNK     1      -3.220  -2.793   3.005  1.00  0.00     0.017 A 
HETATM   18  C10 UNK     1      -6.674  -3.205   1.679  1.00  0.00     0.090 A 
HETATM   19  C12 UNK     1      -5.565  -4.627   3.375  1.00  0.00     0.049 C 
HETATM   20  C13 UNK     1      -6.744  -2.083   0.728  1.00  0.00     0.288 A 
HETATM   21  O3  UNK     1      -7.755  -1.871   0.068  1.00  0.00    -0.260 OA
HETATM   22  C8  UNK     1      -2.132  -1.932   2.826  1.00  0.00     0.038 A 
ENDBRANCH  10  11
ENDBRANCH   9  10
ENDBRANCH   2   9
BRANCH   1  23
HETATM   23  N1  UNK     1       2.114   1.031  -0.741  1.00  0.00    -0.276 N 
HETATM   24  H10 UNK     1       2.826   1.500  -0.203  1.00  0.00     0.189 HD
BRANCH  23  25
HETATM   25  C14 UNK     1       2.149   1.179  -2.137  1.00  0.00     0.083 A 
HETATM   26  C15 UNK     1       3.088   2.009  -2.759  1.00  0.00     0.133 A 
HETATM   27  C19 UNK     1       3.102   2.139  -4.148  1.00  0.00     0.074 A 
HETATM   28  C20 UNK     1       2.177   1.440  -4.923  1.00  0.00     0.105 A 
HETATM   29  C21 UNK     1       1.237   0.612  -4.310  1.00  0.00     0.038 A 
HETATM   30  C18 UNK     1       1.223   0.481  -2.921  1.00  0.00     0.036 A 
BRANCH  26  31
HETATM   31  N3  UNK     1       4.045   2.731  -1.992  1.00  0.00    -0.113 N 
HETATM   32  O4  UNK     1       4.871   3.462  -2.587  1.00  0.00    -0.532 OA
HETATM   33  O5  UNK     1       4.032   2.614  -0.744  1.00  0.00    -0.532 OA
ENDBRANCH  26  31
BRANCH  28  34
HETATM   34  N4  UNK     1       2.190   1.572  -6.337  1.00  0.00    -0.116 N 
HETATM   35  O6  UNK     1       1.349   0.935  -7.015  1.00  0.00    -0.532 OA
HETATM   36  O7  UNK     1       3.043   2.323  -6.869  1.00  0.00    -0.532 OA
ENDBRANCH  28  34
ENDBRANCH  23  25
ENDBRANCH   1  23
TORSDOF 8
