REMARK  2 active torsions:
REMARK  status: ('A' for Active; 'I' for Inactive)
REMARK    1  A    between atoms: C5_9  and  O2_2 
REMARK    2  A    between atoms: C7_11  and  O3_3 
ROOT
HETATM    1  O1  UNK     1      -2.275  -0.591  -0.647  1.00  0.00    -0.275 OA
HETATM    2  O4  UNK     1      -4.099  -1.551   0.344  1.00  0.00    -0.260 OA
HETATM    3  C1  UNK     1      -0.274  -0.169   0.688  1.00  0.00     0.007 A 
HETATM    4  C2  UNK     1      -0.955  -0.114  -0.529  1.00  0.00     0.093 A 
HETATM    5  C3  UNK     1      -0.962  -0.739   1.854  1.00  0.00    -0.043 A 
HETATM    6  C4  UNK     1       1.037   0.326   0.722  1.00  0.00     0.054 A 
HETATM    7  C5  UNK     1       1.632   0.855  -0.428  1.00  0.00     0.102 A 
HETATM    8  C6  UNK     1      -0.374   0.411  -1.685  1.00  0.00     0.077 A 
HETATM    9  C7  UNK     1       0.927   0.897  -1.630  1.00  0.00     0.104 A 
HETATM   10  C8  UNK     1      -2.218  -1.185   1.712  1.00  0.00     0.090 A 
HETATM   11  C9  UNK     1      -0.257  -0.813   3.177  1.00  0.00     0.049 C 
HETATM   12  C10 UNK     1      -2.950  -1.133   0.435  1.00  0.00     0.288 A 
ENDROOT
BRANCH   7  13
HETATM   13  O2  UNK     1       2.909   1.328  -0.361  1.00  0.00    -0.353 OA
HETATM   14  C11 UNK     1       3.072   2.705  -0.028  1.00  0.00     0.210 C 
ENDBRANCH   7  13
BRANCH   9  15
HETATM   15  O3  UNK     1       1.501   1.411  -2.753  1.00  0.00    -0.353 OA
HETATM   16  C12 UNK     1       2.218   0.504  -3.589  1.00  0.00     0.210 C 
ENDBRANCH   9  15
TORSDOF 2
