REMARK  4 active torsions:
REMARK  status: ('A' for Active; 'I' for Inactive)
REMARK    1  A    between atoms: C5_9  and  N1_3 
REMARK    2  A    between atoms: C6_10  and  N2_4 
REMARK    3  A    between atoms: C5_9  and  C7_11 
REMARK    4  A    between atoms: C18_22  and  C23_27 
ROOT
HETATM    1  N1  UNK     1       0.086  -0.862  -0.532  1.00  0.00     0.095 N 
HETATM    2  N2  UNK     1       2.132   0.865  -1.526  1.00  0.00    -0.377 N 
HETATM    3  C1  UNK     1      -0.040  -0.248  -1.859  1.00  0.00     0.292 C 
HETATM    4  C2  UNK     1       1.498  -1.142  -0.243  1.00  0.00     0.292 C 
HETATM    5  C3  UNK     1       0.738   1.068  -1.932  1.00  0.00     0.153 C 
HETATM    6  C4  UNK     1       2.327   0.145  -0.261  1.00  0.00     0.153 C 
ENDROOT
BRANCH   1   7
HETATM    7  C5  UNK     1      -0.705  -2.090  -0.457  1.00  0.00     0.312 C 
BRANCH   7   8
HETATM    8  C7  UNK     1      -2.120  -1.650  -0.221  1.00  0.00    -0.011 A 
HETATM    9  C11 UNK     1      -2.949  -1.403  -1.244  1.00  0.00     0.092 A 
HETATM   10  C19 UNK     1      -4.344  -0.970  -1.062  1.00  0.00     0.288 A 
HETATM   11  O1  UNK     1      -4.785  -0.823   0.244  1.00  0.00    -0.275 OA
HETATM   12  O2  UNK     1      -5.073  -0.751  -2.023  1.00  0.00    -0.260 OA
HETATM   13  C13 UNK     1      -3.937  -1.076   1.341  1.00  0.00     0.090 A 
HETATM   14  C9  UNK     1      -2.616  -1.485   1.152  1.00  0.00     0.007 A 
HETATM   15  C20 UNK     1      -4.487  -0.894   2.611  1.00  0.00     0.039 A 
HETATM   16  C15 UNK     1      -1.838  -1.716   2.295  1.00  0.00     0.022 A 
HETATM   17  C18 UNK     1      -2.375  -1.538   3.575  1.00  0.00    -0.058 A 
HETATM   18  C21 UNK     1      -3.698  -1.128   3.732  1.00  0.00     0.010 A 
BRANCH  17  19
HETATM   19  C23 UNK     1      -1.528  -1.789   4.777  1.00  0.00     0.034 C 
HETATM   20  C24 UNK     1      -0.782  -0.538   5.232  1.00  0.00     0.010 C 
ENDBRANCH  17  19
ENDBRANCH   7   8
ENDBRANCH   1   7
BRANCH   2  21
HETATM   21  C6  UNK     1       3.110   1.788  -1.914  1.00  0.00     0.036 A 
HETATM   22  C10 UNK     1       2.987   3.119  -1.515  1.00  0.00     0.036 A 
HETATM   23  C12 UNK     1       3.952   4.052  -1.894  1.00  0.00    -0.060 A 
HETATM   24  C17 UNK     1       5.040   3.654  -2.671  1.00  0.00     0.007 A 
HETATM   25  C22 UNK     1       3.821   5.475  -1.468  1.00  0.00     0.048 C 
HETATM   26  C14 UNK     1       5.163   2.324  -3.070  1.00  0.00     0.009 A 
HETATM   27  C8  UNK     1       4.198   1.390  -2.692  1.00  0.00    -0.035 A 
HETATM   28  C16 UNK     1       4.355  -0.029  -3.133  1.00  0.00     0.050 C 
ENDBRANCH   2  21
TORSDOF 4
