REMARK  6 active torsions:
REMARK  status: ('A' for Active; 'I' for Inactive)
REMARK    1  A    between atoms: C15_22  and  O1_1 
REMARK    2  A    between atoms: C8_15  and  O1_1 
REMARK    3  A    between atoms: C1_8  and  N1_7 
REMARK    4  A    between atoms: C1_8  and  C2_9 
REMARK    5  A    between atoms: C1_8  and  C8_15 
REMARK    6  A    between atoms: C2_9  and  C7_14 
ROOT
HETATM    1  C1  UNK     1       1.776   0.543   0.331  1.00  0.00     0.200 C 
ENDROOT
BRANCH   1   2
HETATM    2  N1  UNK     1       1.523   0.627  -1.085  1.00  0.00    -0.265 N 
HETATM    3  C3  UNK     1       2.219  -0.093  -2.040  1.00  0.00     0.262 A 
HETATM    4  O2  UNK     1       3.130  -0.889  -1.906  1.00  0.00    -0.267 OA
HETATM    5  C5  UNK     1       1.639   0.283  -3.328  1.00  0.00     0.048 A 
HETATM    6  C6  UNK     1       0.633   1.209  -3.093  1.00  0.00     0.048 A 
HETATM    7  C9  UNK     1       1.958  -0.140  -4.602  1.00  0.00     0.018 A 
HETATM    8  C10 UNK     1      -0.107   1.759  -4.120  1.00  0.00     0.018 A 
HETATM    9  C4  UNK     1       0.555   1.438  -1.651  1.00  0.00     0.262 A 
HETATM   10  C14 UNK     1       0.198   1.344  -5.419  1.00  0.00     0.001 A 
HETATM   11  C13 UNK     1       1.221   0.403  -5.658  1.00  0.00     0.001 A 
HETATM   12  O3  UNK     1      -0.232   2.203  -1.125  1.00  0.00    -0.267 OA
ENDBRANCH   1   2
BRANCH   1  13
HETATM   13  C2  UNK     1       2.220   1.898   0.900  1.00  0.00     0.074 C 
BRANCH  13  14
HETATM   14  C7  UNK     1       3.432   2.499   0.224  1.00  0.00    -0.056 A 
HETATM   15  C11 UNK     1       4.695   2.202   0.709  1.00  0.00     0.007 A 
HETATM   16  C19 UNK     1       5.812   2.756   0.086  1.00  0.00     0.001 A 
HETATM   17  C24 UNK     1       5.652   3.600  -1.013  1.00  0.00     0.000 A 
HETATM   18  C20 UNK     1       4.373   3.889  -1.489  1.00  0.00     0.001 A 
HETATM   19  C12 UNK     1       3.255   3.335  -0.866  1.00  0.00     0.007 A 
ENDBRANCH  13  14
ENDBRANCH   1  13
BRANCH   1  20
HETATM   20  C8  UNK     1       0.594  -0.034   1.101  1.00  0.00     0.288 C 
HETATM   21  O4  UNK     1       0.396   0.201   2.289  1.00  0.00    -0.262 OA
BRANCH  20  22
HETATM   22  O1  UNK     1      -0.209  -0.874   0.312  1.00  0.00    -0.277 OA
BRANCH  22  23
HETATM   23  C15 UNK     1      -1.276  -1.409   0.964  1.00  0.00     0.082 A 
HETATM   24  C18 UNK     1      -2.495  -0.739   0.976  1.00  0.00     0.075 A 
HETATM   25  C17 UNK     1      -3.577  -1.306   1.651  1.00  0.00     0.092 A 
HETATM   26  C16 UNK     1      -3.482  -2.528   2.319  1.00  0.00     0.004 A 
HETATM   27  O5  UNK     1      -4.786  -0.581   1.628  1.00  0.00    -0.275 OA
HETATM   28  C22 UNK     1      -2.246  -3.187   2.295  1.00  0.00     0.017 A 
HETATM   29  C23 UNK     1      -4.672  -3.051   3.003  1.00  0.00    -0.043 A 
HETATM   30  C21 UNK     1      -1.152  -2.631   1.622  1.00  0.00     0.038 A 
HETATM   31  C25 UNK     1      -5.808  -2.339   2.964  1.00  0.00     0.090 A 
HETATM   32  C26 UNK     1      -4.603  -4.362   3.730  1.00  0.00     0.049 C 
HETATM   33  C27 UNK     1      -5.925  -1.049   2.264  1.00  0.00     0.288 A 
HETATM   34  O6  UNK     1      -6.981  -0.427   2.250  1.00  0.00    -0.260 OA
ENDBRANCH  22  23
ENDBRANCH  20  22
ENDBRANCH   1  20
TORSDOF 6
