REMARK  4 active torsions:
REMARK  status: ('A' for Active; 'I' for Inactive)
REMARK    1  A    between atoms: C13_19  and  O3_3 
REMARK    2  A    between atoms: C5_11  and  O3_3 
REMARK    3  A    between atoms: C1_7  and  C5_11 
REMARK    4  A    between atoms: C10_16  and  C13_19 
ROOT
HETATM    1  O5  UNK     1      -0.230  -0.530  -3.169  1.00  0.00    -0.259 OA
HETATM    2  C13 UNK     1       0.003  -0.165  -2.029  1.00  0.00     0.299 C 
ENDROOT
BRANCH   2   3
HETATM    3  C10 UNK     1       1.235   0.529  -1.637  1.00  0.00     0.115 A 
HETATM    4  C12 UNK     1       1.810   1.289  -2.576  1.00  0.00     0.038 A 
HETATM    5  C8  UNK     1       3.035   2.016  -2.283  1.00  0.00    -0.001 A 
HETATM    6  C11 UNK     1       3.595   1.907  -1.014  1.00  0.00     0.089 A 
HETATM    7  C14 UNK     1       3.670   2.821  -3.232  1.00  0.00     0.014 A 
HETATM    8  O4  UNK     1       2.985   1.105  -0.029  1.00  0.00    -0.274 OA
HETATM    9  C16 UNK     1       4.767   2.577  -0.668  1.00  0.00     0.038 A 
HETATM   10  C15 UNK     1       1.813   0.398  -0.280  1.00  0.00     0.304 A 
HETATM   11  O6  UNK     1       1.289  -0.298   0.583  1.00  0.00    -0.259 OA
HETATM   12  C18 UNK     1       5.393   3.377  -1.621  1.00  0.00     0.003 A 
HETATM   13  C17 UNK     1       4.846   3.499  -2.900  1.00  0.00     0.001 A 
ENDBRANCH   2   3
BRANCH   2  14
HETATM   14  O3  UNK     1      -0.779  -0.311  -0.931  1.00  0.00    -0.313 OA
BRANCH  14  15
HETATM   15  C5  UNK     1      -2.027  -0.976  -1.153  1.00  0.00     0.217 C 
BRANCH  15  16
HETATM   16  C1  UNK     1      -2.775  -1.062   0.145  1.00  0.00    -0.031 A 
HETATM   17  C4  UNK     1      -2.589  -2.167   0.971  1.00  0.00     0.049 A 
HETATM   18  C2  UNK     1      -3.299  -2.201   2.154  1.00  0.00     0.105 A 
HETATM   19  O1  UNK     1      -3.252  -3.192   3.086  1.00  0.00    -0.323 OA
HETATM   20  C3  UNK     1      -4.158  -1.187   2.512  1.00  0.00     0.105 A 
HETATM   21  C9  UNK     1      -4.177  -2.688   4.070  1.00  0.00     0.352 A 
HETATM   22  O2  UNK     1      -4.756  -1.417   3.713  1.00  0.00    -0.323 OA
HETATM   23  C7  UNK     1      -4.355  -0.084   1.707  1.00  0.00     0.040 A 
HETATM   24  C6  UNK     1      -3.649  -0.026   0.504  1.00  0.00     0.012 A 
ENDBRANCH  15  16
ENDBRANCH  14  15
ENDBRANCH   2  14
TORSDOF 4
