REMARK  3 active torsions:
REMARK  status: ('A' for Active; 'I' for Inactive)
REMARK    1  A    between atoms: C10_17  and  O3_3 
REMARK    2  A    between atoms: C5_12  and  N1_7 
REMARK    3  A    between atoms: C10_17  and  C7_14 
ROOT
HETATM    1  O1  UNK     1      -1.704  -0.575  -1.330  1.00  0.00    -0.274 OA
HETATM    2  O2  UNK     1      -3.454  -1.537  -0.219  1.00  0.00    -0.259 OA
HETATM    3  C1  UNK     1       0.206   0.251  -0.073  1.00  0.00     0.001 A 
HETATM    4  C2  UNK     1      -0.439   0.043  -1.288  1.00  0.00     0.089 A 
HETATM    5  C3  UNK     1       1.460   0.867  -0.072  1.00  0.00     0.050 A 
HETATM    6  C4  UNK     1      -0.447  -0.180   1.153  1.00  0.00     0.039 A 
HETATM    7  C5  UNK     1       2.045   1.264  -1.279  1.00  0.00     0.103 A 
HETATM    8  C6  UNK     1       0.132   0.433  -2.498  1.00  0.00     0.041 A 
HETATM    9  C7  UNK     1      -1.648  -0.767   1.108  1.00  0.00     0.114 A 
HETATM   10  C8  UNK     1       1.382   1.047  -2.489  1.00  0.00     0.039 A 
HETATM   11  C9  UNK     1      -2.353  -0.998  -0.173  1.00  0.00     0.305 A 
ENDROOT
BRANCH   9  12
HETATM   12  C10 UNK     1      -2.224  -1.167   2.397  1.00  0.00     0.182 C 
HETATM   13  O4  UNK     1      -1.571  -1.495   3.369  1.00  0.00    -0.646 OA
BRANCH  12  14
HETATM   14  O3  UNK     1      -3.570  -1.112   2.325  1.00  0.00    -0.772 OA
HETATM   15  H5  UNK     1      -3.996  -1.373   3.169  1.00  0.00     0.167 HD
ENDBRANCH  12  14
ENDBRANCH   9  12
BRANCH   7  16
HETATM   16  N1  UNK     1       3.320   1.889  -1.274  1.00  0.00    -0.116 N 
HETATM   17  O5  UNK     1       3.830   2.238  -2.367  1.00  0.00    -0.532 OA
HETATM   18  O6  UNK     1       3.901   2.077  -0.178  1.00  0.00    -0.532 OA
ENDBRANCH   7  16
TORSDOF 3
