REMARK  2 active torsions:
REMARK  status: ('A' for Active; 'I' for Inactive)
REMARK       I    between atoms: C10_16  and  N1_4 
REMARK    1  A    between atoms: C3_9  and  N1_4 
REMARK    2  A    between atoms: C10_16  and  C8_14 
ROOT
HETATM    1  O1  UNK     1      -3.008  -1.041  -0.329  1.00  0.00    -0.275 OA
HETATM    2  O3  UNK     1      -5.105  -1.937  -0.494  1.00  0.00    -0.260 OA
HETATM    3  C1  UNK     1      -1.875  -1.041   1.835  1.00  0.00     0.004 A 
HETATM    4  C2  UNK     1      -1.893  -0.731   0.474  1.00  0.00     0.092 A 
HETATM    5  C3  UNK     1       0.310   0.226   0.581  1.00  0.00     0.037 A 
HETATM    6  C4  UNK     1      -3.050  -1.702   2.421  1.00  0.00    -0.043 A 
HETATM    7  C5  UNK     1      -0.820  -0.104  -0.161  1.00  0.00     0.067 A 
HETATM    8  C6  UNK     1      -0.729  -0.701   2.565  1.00  0.00     0.017 A 
HETATM    9  C7  UNK     1       0.355  -0.072   1.941  1.00  0.00     0.030 A 
HETATM   10  C9  UNK     1      -4.096  -1.984   1.633  1.00  0.00     0.090 A 
HETATM   11  C11 UNK     1      -3.062  -2.049   3.881  1.00  0.00     0.049 C 
HETATM   12  C12 UNK     1      -4.130  -1.664   0.196  1.00  0.00     0.288 A 
ENDROOT
BRANCH   5  13
HETATM   13  N1  UNK     1       1.394   0.852  -0.035  1.00  0.00    -0.322 N 
HETATM   14  C10 UNK     1       1.537   1.231  -1.385  1.00  0.00     0.274 C 
HETATM   15  O2  UNK     1       0.676   1.049  -2.243  1.00  0.00    -0.266 OA
HETATM   16  H4  UNK     1       2.180   1.037   0.583  1.00  0.00     0.169 HD
BRANCH  14  17
HETATM   17  C8  UNK     1       2.833   1.841  -1.729  1.00  0.00     0.121 A 
HETATM   18  C13 UNK     1       3.631   2.566  -0.924  1.00  0.00     0.058 A 
HETATM   19  C15 UNK     1       4.718   2.885  -1.760  1.00  0.00     0.141 A 
HETATM   20  N3  UNK     1       4.586   2.385  -2.991  1.00  0.00    -0.185 NA
HETATM   21  N2  UNK     1       3.406   1.743  -2.935  1.00  0.00    -0.269 N 
HETATM   22  C14 UNK     1       2.919   1.058  -4.109  1.00  0.00     0.180 C 
ENDBRANCH  14  17
ENDBRANCH   5  13
TORSDOF 2
