REMARK  9 active torsions:
REMARK  status: ('A' for Active; 'I' for Inactive)
REMARK    1  A    between atoms: C11_19  and  O2_2 
REMARK    2  A    between atoms: C15_23  and  O2_2 
REMARK    3  A    between atoms: N1_6  and  N2_7 
REMARK    4  A    between atoms: C23_31  and  N2_7 
REMARK    5  A    between atoms: C29_37  and  N3_8 
REMARK    6  A    between atoms: C2_10  and  C4_12 
REMARK    7  A    between atoms: C4_12  and  C7_15 
REMARK    8  A    between atoms: C15_23  and  C16_24 
REMARK    9  A    between atoms: C16_24  and  C20_28 
ROOT
HETATM    1  O2  UNK     1      -0.072  -0.283  -2.326  1.00  0.00    -0.345 OA
ENDROOT
BRANCH   1   2
HETATM    2  C11 UNK     1      -1.178  -0.663  -1.631  1.00  0.00     0.071 A 
HETATM    3  C10 UNK     1      -1.063  -1.536  -0.556  1.00  0.00     0.075 A 
HETATM    4  C5  UNK     1      -2.211  -1.915   0.144  1.00  0.00     0.092 A 
HETATM    5  C3  UNK     1      -3.479  -1.447  -0.188  1.00  0.00     0.005 A 
HETATM    6  O1  UNK     1      -2.025  -2.804   1.213  1.00  0.00    -0.274 OA
HETATM    7  C1  UNK     1      -4.639  -1.901   0.608  1.00  0.00    -0.036 A 
HETATM    8  C8  UNK     1      -3.572  -0.571  -1.281  1.00  0.00     0.017 A 
HETATM    9  C2  UNK     1      -4.450  -2.783   1.612  1.00  0.00     0.029 A 
HETATM   10  C9  UNK     1      -5.983  -1.321   0.245  1.00  0.00     0.050 C 
HETATM   11  C6  UNK     1      -3.086  -3.269   1.971  1.00  0.00     0.295 A 
HETATM   12  O3  UNK     1      -2.895  -4.044   2.903  1.00  0.00    -0.259 OA
HETATM   13  C12 UNK     1      -2.432  -0.182  -1.994  1.00  0.00     0.038 A 
BRANCH   9  14
HETATM   14  C4  UNK     1      -5.548  -3.373   2.459  1.00  0.00     0.084 C 
BRANCH  14  15
HETATM   15  C7  UNK     1      -5.593  -2.768   3.830  1.00  0.00    -0.054 A 
HETATM   16  C13 UNK     1      -5.491  -1.389   3.979  1.00  0.00     0.007 A 
HETATM   17  C17 UNK     1      -5.532  -0.826   5.254  1.00  0.00     0.001 A 
HETATM   18  C19 UNK     1      -5.676  -1.645   6.374  1.00  0.00     0.000 A 
HETATM   19  C18 UNK     1      -5.778  -3.028   6.218  1.00  0.00     0.001 A 
HETATM   20  C14 UNK     1      -5.736  -3.591   4.943  1.00  0.00     0.007 A 
ENDBRANCH  14  15
ENDBRANCH   9  14
ENDBRANCH   1   2
BRANCH   1  21
HETATM   21  C15 UNK     1      -0.094   1.012  -2.926  1.00  0.00     0.237 C 
BRANCH  21  22
HETATM   22  C16 UNK     1       1.330   1.529  -3.074  1.00  0.00     0.089 C 
HETATM   23  N1  UNK     1       2.143   1.740  -2.080  1.00  0.00    -0.176 NA
BRANCH  23  24
HETATM   24  N2  UNK     1       3.379   2.188  -2.364  1.00  0.00    -0.278 N 
HETATM   25  H18 UNK     1       3.718   2.325  -3.308  1.00  0.00     0.189 HD
BRANCH  24  26
HETATM   26  C23 UNK     1       4.302   2.434  -1.335  1.00  0.00     0.050 A 
HETATM   27  C27 UNK     1       5.611   2.817  -1.640  1.00  0.00     0.033 A 
HETATM   28  C30 UNK     1       6.527   3.061  -0.617  1.00  0.00     0.038 A 
HETATM   29  C29 UNK     1       6.138   2.923   0.716  1.00  0.00     0.103 A 
HETATM   30  C31 UNK     1       4.833   2.541   1.025  1.00  0.00     0.038 A 
HETATM   31  C28 UNK     1       3.916   2.297   0.002  1.00  0.00     0.033 A 
BRANCH  29  32
HETATM   32  N3  UNK     1       7.071   3.172   1.757  1.00  0.00    -0.116 N 
HETATM   33  O4  UNK     1       8.240   3.515   1.457  1.00  0.00    -0.532 OA
HETATM   34  O5  UNK     1       6.701   3.042   2.949  1.00  0.00    -0.532 OA
ENDBRANCH  29  32
ENDBRANCH  24  26
ENDBRANCH  23  24
BRANCH  22  35
HETATM   35  C20 UNK     1       1.831   1.800  -4.452  1.00  0.00    -0.008 A 
HETATM   36  C21 UNK     1       1.648   3.056  -4.986  1.00  0.00     0.013 A 
HETATM   37  C24 UNK     1       2.117   3.310  -6.275  1.00  0.00     0.001 A 
HETATM   38  C26 UNK     1       2.757   2.301  -6.995  1.00  0.00     0.000 A 
HETATM   39  C25 UNK     1       2.927   1.038  -6.427  1.00  0.00     0.001 A 
HETATM   40  C22 UNK     1       2.458   0.785  -5.138  1.00  0.00     0.013 A 
ENDBRANCH  22  35
ENDBRANCH  21  22
ENDBRANCH   1  21
TORSDOF 9
