REMARK  4 active torsions:
REMARK  status: ('A' for Active; 'I' for Inactive)
REMARK    1  A    between atoms: C1_8  and  S1_1 
REMARK    2  A    between atoms: N1_6  and  S1_1 
REMARK    3  A    between atoms: N1_6  and  N2_7 
REMARK    4  A    between atoms: C3_10  and  C6_13 
ROOT
HETATM    1  N2  UNK     1      -0.075   0.080   1.493  1.00  0.00    -0.169 NA
HETATM    2  C6  UNK     1       0.594   1.182   1.293  1.00  0.00     0.068 C 
HETATM    3  C15 UNK     1       0.460   2.417   2.161  1.00  0.00     0.073 C 
ENDROOT
BRANCH   1   4
HETATM    4  N1  UNK     1      -1.003   0.070   2.610  1.00  0.00    -0.200 N 
HETATM    5  H4  UNK     1      -1.432   0.960   2.889  1.00  0.00     0.202 HD
BRANCH   4   6
HETATM    6  S1  UNK     1      -1.875  -1.376   2.843  1.00  0.00     0.277 S 
HETATM    7  O2  UNK     1      -2.885  -1.167   3.862  1.00  0.00    -0.199 OA
HETATM    8  O3  UNK     1      -0.939  -2.478   2.951  1.00  0.00    -0.199 OA
BRANCH   6   9
HETATM    9  C1  UNK     1      -2.726  -1.532   1.301  1.00  0.00     0.081 A 
HETATM   10  C7  UNK     1      -2.123  -2.224   0.264  1.00  0.00     0.026 A 
HETATM   11  C11 UNK     1      -2.794  -2.347  -0.952  1.00  0.00     0.008 A 
HETATM   12  C9  UNK     1      -4.057  -1.777  -1.114  1.00  0.00    -0.062 A 
HETATM   13  C12 UNK     1      -4.649  -1.084  -0.058  1.00  0.00     0.008 A 
HETATM   14  C18 UNK     1      -4.774  -1.909  -2.414  1.00  0.00     0.048 C 
HETATM   15  C8  UNK     1      -3.978  -0.960   1.159  1.00  0.00     0.026 A 
ENDBRANCH   6   9
ENDBRANCH   4   6
ENDBRANCH   1   4
BRANCH   2  16
HETATM   16  C3  UNK     1       1.533   1.252   0.167  1.00  0.00     0.066 A 
HETATM   17  C10 UNK     1       2.955   0.867   0.306  1.00  0.00     0.300 A 
HETATM   18  O1  UNK     1       3.746   0.975  -0.834  1.00  0.00    -0.274 OA
HETATM   19  O4  UNK     1       3.419   0.470   1.370  1.00  0.00    -0.259 OA
HETATM   20  C5  UNK     1       3.224   1.428  -2.061  1.00  0.00     0.089 A 
HETATM   21  C14 UNK     1       4.093   1.503  -3.147  1.00  0.00     0.038 A 
HETATM   22  C2  UNK     1       1.883   1.785  -2.170  1.00  0.00    -0.001 A 
HETATM   23  C17 UNK     1       3.605   1.947  -4.374  1.00  0.00     0.003 A 
HETATM   24  C16 UNK     1       2.263   2.311  -4.502  1.00  0.00     0.001 A 
HETATM   25  C13 UNK     1       1.402   2.230  -3.404  1.00  0.00     0.014 A 
HETATM   26  C4  UNK     1       1.030   1.683  -0.996  1.00  0.00     0.034 A 
ENDBRANCH   2  16
TORSDOF 4
