REMARK  4 active torsions:
REMARK  status: ('A' for Active; 'I' for Inactive)
REMARK    1  A    between atoms: C1_6  and  N1_4 
REMARK    2  A    between atoms: C7_12  and  N1_4 
REMARK    3  A    between atoms: C7_12  and  N2_5 
REMARK    4  A    between atoms: C8_13  and  N2_5 
ROOT
HETATM    1  O1  UNK     1       1.964   1.549  -3.037  1.00  0.00    -0.275 OA
HETATM    2  O2  UNK     1       3.332   2.348  -4.687  1.00  0.00    -0.260 OA
HETATM    3  C8  UNK     1       0.279   0.419   0.016  1.00  0.00     0.036 A 
HETATM    4  C9  UNK     1       2.758   1.539  -0.727  1.00  0.00     0.004 A 
HETATM    5  C10 UNK     1       0.533   0.716  -1.319  1.00  0.00     0.067 A 
HETATM    6  C11 UNK     1       1.765   1.270  -1.671  1.00  0.00     0.092 A 
HETATM    7  C12 UNK     1       1.252   0.677   0.980  1.00  0.00     0.030 A 
HETATM    8  C13 UNK     1       2.483   1.233   0.612  1.00  0.00     0.017 A 
HETATM    9  C14 UNK     1       4.025   2.124  -1.187  1.00  0.00    -0.043 A 
HETATM   10  C15 UNK     1       4.187   2.379  -2.493  1.00  0.00     0.090 A 
HETATM   11  C16 UNK     1       5.113   2.425  -0.197  1.00  0.00     0.049 C 
HETATM   12  C17 UNK     1       3.149   2.101  -3.500  1.00  0.00     0.288 A 
ENDROOT
BRANCH   3  13
HETATM   13  N2  UNK     1      -0.946  -0.135   0.390  1.00  0.00    -0.333 N 
HETATM   14  H13 UNK     1      -1.104  -0.048   1.389  1.00  0.00     0.168 HD
BRANCH  13  15
HETATM   15  C7  UNK     1      -1.814  -1.041  -0.245  1.00  0.00     0.172 C 
HETATM   16  S1  UNK     1      -1.598  -1.808  -1.724  1.00  0.00    -0.041 SA
BRANCH  15  17
HETATM   17  N1  UNK     1      -2.966  -1.357   0.464  1.00  0.00    -0.362 N 
HETATM   18  H12 UNK     1      -3.572  -2.047   0.032  1.00  0.00     0.162 HD
BRANCH  17  19
HETATM   19  C1  UNK     1      -3.354  -0.857   1.764  1.00  0.00     0.083 C 
HETATM   20  C2  UNK     1      -4.878  -0.747   1.880  1.00  0.00     0.025 C 
HETATM   21  C4  UNK     1      -5.557  -2.113   1.976  1.00  0.00     0.002 C 
HETATM   22  C6  UNK     1      -4.971  -2.956   3.104  1.00  0.00     0.000 C 
HETATM   23  C5  UNK     1      -3.456  -3.092   2.979  1.00  0.00     0.002 C 
HETATM   24  C3  UNK     1      -2.773  -1.728   2.884  1.00  0.00     0.025 C 
ENDBRANCH  17  19
ENDBRANCH  15  17
ENDBRANCH  13  15
ENDBRANCH   3  13
TORSDOF 4
