REMARK  5 active torsions:
REMARK  status: ('A' for Active; 'I' for Inactive)
REMARK    1  A    between atoms: C17_23  and  O2_3 
REMARK    2  A    between atoms: C5_11  and  N1_5 
REMARK    3  A    between atoms: C6_12  and  N2_6 
REMARK    4  A    between atoms: C5_11  and  C7_13 
REMARK    5  A    between atoms: C6_12  and  C8_14 
ROOT
HETATM    1  N1  UNK     1       0.320  -0.323   0.308  1.00  0.00     0.096 N 
HETATM    2  N2  UNK     1       2.275   1.573  -0.663  1.00  0.00     0.096 N 
HETATM    3  C1  UNK     1       1.135   0.473   1.234  1.00  0.00     0.303 C 
HETATM    4  C2  UNK     1       1.047  -0.553  -0.946  1.00  0.00     0.303 C 
HETATM    5  C3  UNK     1       1.549   1.802   0.593  1.00  0.00     0.303 C 
HETATM    6  C4  UNK     1       1.460   0.776  -1.588  1.00  0.00     0.303 C 
ENDROOT
BRANCH   1   7
HETATM    7  C5  UNK     1      -0.073  -1.590   0.920  1.00  0.00     0.312 C 
BRANCH   7   8
HETATM    8  C7  UNK     1      -1.231  -1.434   1.843  1.00  0.00    -0.011 A 
HETATM    9  C10 UNK     1      -1.049  -1.164   3.144  1.00  0.00     0.092 A 
HETATM   10  C15 UNK     1      -2.162  -1.000   4.094  1.00  0.00     0.288 A 
HETATM   11  O1  UNK     1      -3.443  -1.139   3.583  1.00  0.00    -0.275 OA
HETATM   12  O3  UNK     1      -1.957  -0.754   5.277  1.00  0.00    -0.260 OA
HETATM   13  C11 UNK     1      -3.666  -1.423   2.220  1.00  0.00     0.090 A 
HETATM   14  C9  UNK     1      -2.601  -1.575   1.331  1.00  0.00     0.009 A 
HETATM   15  C16 UNK     1      -4.997  -1.542   1.817  1.00  0.00     0.041 A 
HETATM   16  C14 UNK     1      -2.907  -1.857  -0.007  1.00  0.00     0.051 A 
HETATM   17  C17 UNK     1      -4.236  -1.979  -0.427  1.00  0.00     0.069 A 
HETATM   18  C20 UNK     1      -5.280  -1.821   0.484  1.00  0.00     0.039 A 
BRANCH  17  19
HETATM   19  O2  UNK     1      -4.512  -2.253  -1.732  1.00  0.00    -0.356 OA
HETATM   20  C22 UNK     1      -5.887  -2.365  -2.095  1.00  0.00     0.210 C 
ENDBRANCH  17  19
ENDBRANCH   7   8
ENDBRANCH   1   7
BRANCH   2  21
HETATM   21  C6  UNK     1       2.666   2.841  -1.275  1.00  0.00     0.314 C 
BRANCH  21  22
HETATM   22  C8  UNK     1       3.790   2.665  -2.262  1.00  0.00     0.009 A 
HETATM   23  C12 UNK     1       3.735   3.294  -3.505  1.00  0.00     0.124 A 
HETATM   24  F1  UNK     1       2.684   4.058  -3.834  1.00  0.00    -0.205 F 
HETATM   25  C18 UNK     1       4.778   3.129  -4.417  1.00  0.00     0.043 A 
HETATM   26  C21 UNK     1       5.875   2.334  -4.085  1.00  0.00     0.003 A 
HETATM   27  C19 UNK     1       5.930   1.705  -2.841  1.00  0.00     0.001 A 
HETATM   28  C13 UNK     1       4.887   1.870  -1.930  1.00  0.00     0.012 A 
ENDBRANCH  21  22
ENDBRANCH   2  21
TORSDOF 5
