REMARK  6 active torsions:
REMARK  status: ('A' for Active; 'I' for Inactive)
REMARK    1  A    between atoms: C5_13  and  N1_5 
REMARK    2  A    between atoms: C6_14  and  N2_6 
REMARK       I    between atoms: C11_19  and  N3_7 
REMARK    3  A    between atoms: C13_21  and  N4_8 
REMARK    4  A    between atoms: C11_19  and  C5_13 
REMARK    5  A    between atoms: C12_20  and  C6_14 
REMARK    6  A    between atoms: C20_28  and  C26_34 
ROOT
HETATM    1  N1  UNK     1       0.156   1.629   1.430  1.00  0.00     0.100 N 
HETATM    2  N2  UNK     1       2.122   2.477  -0.512  1.00  0.00     0.096 N 
HETATM    3  C1  UNK     1      -0.043   1.399  -0.006  1.00  0.00     0.303 C 
HETATM    4  C2  UNK     1       1.588   1.646   1.753  1.00  0.00     0.303 C 
HETATM    5  C3  UNK     1       0.690   2.459  -0.835  1.00  0.00     0.303 C 
HETATM    6  C4  UNK     1       2.322   2.705   0.924  1.00  0.00     0.303 C 
ENDROOT
BRANCH   1   7
HETATM    7  C5  UNK     1      -0.543   0.617   2.219  1.00  0.00     0.374 C 
BRANCH   7   8
HETATM    8  C11 UNK     1      -2.028   0.875   2.291  1.00  0.00     0.248 C 
HETATM    9  O1  UNK     1      -2.451   2.031   2.206  1.00  0.00    -0.271 OA
HETATM   10  N3  UNK     1      -2.841  -0.246   2.460  1.00  0.00    -0.348 N 
HETATM   11  C7  UNK     1      -2.338  -1.618   2.552  1.00  0.00     0.145 C 
HETATM   12  C8  UNK     1      -4.290  -0.078   2.544  1.00  0.00     0.145 C 
HETATM   13  C9  UNK     1      -3.323  -2.565   3.237  1.00  0.00     0.143 C 
HETATM   14  N4  UNK     1      -4.633  -2.516   2.583  1.00  0.00    -0.375 N 
HETATM   15  C10 UNK     1      -5.038  -1.264   1.938  1.00  0.00     0.143 C 
BRANCH  14  16
HETATM   16  C13 UNK     1      -5.489  -3.614   2.603  1.00  0.00     0.069 A 
HETATM   17  C17 UNK     1      -6.402  -3.809   1.566  1.00  0.00     0.142 A 
HETATM   18  F1  UNK     1      -6.464  -2.945   0.543  1.00  0.00    -0.204 F 
HETATM   19  C24 UNK     1      -7.258  -4.910   1.588  1.00  0.00     0.044 A 
HETATM   20  C27 UNK     1      -7.202  -5.816   2.648  1.00  0.00     0.003 A 
HETATM   21  C25 UNK     1      -6.290  -5.621   3.685  1.00  0.00     0.002 A 
HETATM   22  C18 UNK     1      -5.434  -4.520   3.662  1.00  0.00     0.032 A 
ENDBRANCH  14  16
ENDBRANCH   7   8
ENDBRANCH   1   7
BRANCH   2  23
HETATM   23  C6  UNK     1       2.820   3.491  -1.301  1.00  0.00     0.312 C 
BRANCH  23  24
HETATM   24  C12 UNK     1       3.050   3.051  -2.705  1.00  0.00    -0.011 A 
HETATM   25  C14 UNK     1       4.281   2.330  -3.055  1.00  0.00     0.007 A 
HETATM   26  C16 UNK     1       4.468   1.931  -4.379  1.00  0.00     0.090 A 
HETATM   27  C19 UNK     1       5.288   2.015  -2.133  1.00  0.00     0.022 A 
HETATM   28  O2  UNK     1       3.503   2.208  -5.367  1.00  0.00    -0.275 OA
HETATM   29  C22 UNK     1       5.609   1.242  -4.797  1.00  0.00     0.039 A 
HETATM   30  C21 UNK     1       2.331   2.886  -5.066  1.00  0.00     0.288 A 
HETATM   31  C15 UNK     1       2.149   3.301  -3.665  1.00  0.00     0.092 A 
HETATM   32  O3  UNK     1       1.485   3.135  -5.918  1.00  0.00    -0.260 OA
HETATM   33  C23 UNK     1       6.597   0.940  -3.866  1.00  0.00     0.010 A 
HETATM   34  C20 UNK     1       6.437   1.325  -2.536  1.00  0.00    -0.058 A 
BRANCH  34  35
HETATM   35  C26 UNK     1       7.497   1.001  -1.537  1.00  0.00     0.034 C 
HETATM   36  C28 UNK     1       7.270  -0.353  -0.870  1.00  0.00     0.010 C 
ENDBRANCH  34  35
ENDBRANCH  23  24
ENDBRANCH   2  23
TORSDOF 6
