REMARK  2 active torsions:
REMARK  status: ('A' for Active; 'I' for Inactive)
REMARK    1  A    between atoms: C5_12  and  N1_7 
REMARK       I    between atoms: C6_13  and  N1_7 
REMARK    2  A    between atoms: C2_9  and  C6_13 
ROOT
HETATM    1  O2  UNK     1       0.487   0.109   1.771  1.00  0.00    -0.267 OA
HETATM    2  N1  UNK     1      -1.126  -0.330   0.112  1.00  0.00    -0.319 N 
HETATM    3  C6  UNK     1       0.074   0.155   0.613  1.00  0.00     0.262 C 
HETATM    4  H3  UNK     1      -1.213  -0.407  -0.899  1.00  0.00     0.169 HD
ENDROOT
BRANCH   3   5
HETATM    5  C2  UNK     1       0.895   0.783  -0.429  1.00  0.00     0.108 A 
HETATM    6  C4  UNK     1       2.221   0.719  -0.256  1.00  0.00     0.037 A 
HETATM    7  C1  UNK     1       3.117   1.313  -1.236  1.00  0.00    -0.001 A 
HETATM    8  C3  UNK     1       2.574   1.945  -2.350  1.00  0.00     0.089 A 
HETATM    9  C7  UNK     1       4.507   1.270  -1.096  1.00  0.00     0.014 A 
HETATM   10  O1  UNK     1       1.178   2.009  -2.526  1.00  0.00    -0.274 OA
HETATM   11  C9  UNK     1       3.377   2.534  -3.324  1.00  0.00     0.038 A 
HETATM   12  C8  UNK     1       0.295   1.451  -1.606  1.00  0.00     0.304 A 
HETATM   13  O3  UNK     1      -0.919   1.511  -1.767  1.00  0.00    -0.259 OA
HETATM   14  C13 UNK     1       4.761   2.487  -3.177  1.00  0.00     0.003 A 
HETATM   15  C10 UNK     1       5.325   1.856  -2.066  1.00  0.00     0.001 A 
ENDBRANCH   3   5
BRANCH   2  16
HETATM   16  C5  UNK     1      -2.155  -0.992   0.826  1.00  0.00     0.091 A 
HETATM   17  C11 UNK     1      -2.960  -1.933   0.203  1.00  0.00     0.043 A 
HETATM   18 Br1  UNK     1      -2.752  -2.400  -1.625  1.00  0.00    -0.049 Br
HETATM   19  C14 UNK     1      -3.964  -2.566   0.936  1.00  0.00     0.064 A 
HETATM   20  C16 UNK     1      -4.149  -2.252   2.282  1.00  0.00     0.120 A 
HETATM   21  C15 UNK     1      -3.331  -1.303   2.895  1.00  0.00     0.087 A 
HETATM   22  F2  UNK     1      -5.113  -2.860   2.986  1.00  0.00    -0.206 F 
HETATM   23  C12 UNK     1      -2.328  -0.669   2.163  1.00  0.00     0.147 A 
HETATM   24  F1  UNK     1      -1.548   0.241   2.765  1.00  0.00    -0.204 F 
ENDBRANCH   2  16
TORSDOF 2
