REMARK  4 active torsions:
REMARK  status: ('A' for Active; 'I' for Inactive)
REMARK    1  A    between atoms: C11_19  and  O2_2 
REMARK    2  A    between atoms: C3_11  and  O2_2 
REMARK       I    between atoms: C10_18  and  N1_5 
REMARK    3  A    between atoms: N1_5  and  N2_6 
REMARK    4  A    between atoms: C10_18  and  C5_13 
ROOT
HETATM    1  O1  UNK     1       0.656   0.502  -1.705  1.00  0.00    -0.271 OA
HETATM    2  O3  UNK     1      -1.467  -0.343  -1.645  1.00  0.00    -0.259 OA
HETATM    3  C1  UNK     1       1.806   1.005   0.377  1.00  0.00     0.002 A 
HETATM    4  C2  UNK     1       1.790   0.969  -1.014  1.00  0.00     0.123 A 
HETATM    5  C3  UNK     1       2.882   1.389  -1.771  1.00  0.00     0.103 A 
HETATM    6  C4  UNK     1       0.632   0.552   1.106  1.00  0.00     0.037 A 
HETATM    7  C5  UNK     1      -0.444   0.109   0.444  1.00  0.00     0.110 A 
HETATM    8  C6  UNK     1       2.950   1.474   1.026  1.00  0.00     0.014 A 
HETATM    9  C7  UNK     1       4.019   1.856  -1.116  1.00  0.00     0.040 A 
HETATM   10  C8  UNK     1      -0.483   0.062  -1.035  1.00  0.00     0.304 A 
HETATM   11  C9  UNK     1       4.054   1.899   0.280  1.00  0.00     0.004 A 
ENDROOT
BRANCH   7  12
HETATM   12  C10 UNK     1      -1.578  -0.326   1.267  1.00  0.00     0.276 C 
HETATM   13  O4  UNK     1      -1.791   0.179   2.368  1.00  0.00    -0.266 OA
HETATM   14  N1  UNK     1      -2.321  -1.323   0.661  1.00  0.00    -0.257 N 
HETATM   15  H7  UNK     1      -2.101  -1.735  -0.240  1.00  0.00     0.191 HD
BRANCH  14  16
HETATM   16  N2  UNK     1      -3.415  -1.842   1.296  1.00  0.00    -0.237 N 
HETATM   17  C13 UNK     1      -4.677  -1.388   1.201  1.00  0.00     0.258 A 
HETATM   18  N3  UNK     1      -5.452  -2.135   1.955  1.00  0.00    -0.142 NA
HETATM   19  N4  UNK     1      -4.653  -3.093   2.548  1.00  0.00    -0.142 NA
HETATM   20  C14 UNK     1      -3.423  -2.894   2.132  1.00  0.00     0.258 A 
ENDBRANCH  14  16
ENDBRANCH   7  12
BRANCH   5  21
HETATM   21  O2  UNK     1       2.853   1.349  -3.130  1.00  0.00    -0.349 OA
BRANCH  21  22
HETATM   22  C11 UNK     1       3.626   2.327  -3.826  1.00  0.00     0.171 C 
HETATM   23  C12 UNK     1       2.965   2.621  -5.156  1.00  0.00     0.034 C 
ENDBRANCH  21  22
ENDBRANCH   5  21
TORSDOF 4
