REMARK  2 active torsions:
REMARK  status: ('A' for Active; 'I' for Inactive)
REMARK    1  A    between atoms: C8_16  and  N1_8 
REMARK    2  A    between atoms: C10_18  and  C4_12 
ROOT
HETATM    1 Cl1  UNK     1      -3.665  -1.457  -0.954  1.00  0.00    -0.077 Cl
HETATM    2  O1  UNK     1      -0.658  -0.330   1.464  1.00  0.00    -0.307 OA
HETATM    3  O2  UNK     1      -1.474  -0.251  -2.526  1.00  0.00    -0.286 OA
HETATM    4  C1  UNK     1       0.029   0.249  -0.789  1.00  0.00     0.052 A 
HETATM    5  C2  UNK     1       0.251   0.195   0.583  1.00  0.00     0.090 A 
HETATM    6  C3  UNK     1      -1.235  -0.279  -1.326  1.00  0.00     0.209 A 
HETATM    7  C4  UNK     1      -1.857  -0.834   0.975  1.00  0.00     0.143 A 
HETATM    8  C5  UNK     1       0.993   0.797  -1.639  1.00  0.00     0.054 A 
HETATM    9  C6  UNK     1      -2.183  -0.836  -0.330  1.00  0.00     0.120 A 
HETATM   10  C7  UNK     1       1.441   0.690   1.118  1.00  0.00     0.041 A 
HETATM   11  C8  UNK     1       2.183   1.291  -1.103  1.00  0.00     0.104 A 
HETATM   12  C9  UNK     1       2.407   1.238   0.273  1.00  0.00     0.039 A 
ENDROOT
BRANCH   7  13
HETATM   13  C10 UNK     1      -2.721  -1.364   2.083  1.00  0.00     0.412 C 
HETATM   14  F1  UNK     1      -2.074  -2.346   2.749  1.00  0.00    -0.207 F 
HETATM   15  F2  UNK     1      -2.990  -0.385   2.974  1.00  0.00    -0.207 F 
ENDBRANCH   7  13
BRANCH  11  16
HETATM   16  N1  UNK     1       3.169   1.850  -1.959  1.00  0.00    -0.116 N 
HETATM   17  O3  UNK     1       4.231   2.290  -1.457  1.00  0.00    -0.532 OA
HETATM   18  O4  UNK     1       2.950   1.889  -3.194  1.00  0.00    -0.532 OA
ENDBRANCH  11  16
TORSDOF 2
