REMARK  2 active torsions:
REMARK  status: ('A' for Active; 'I' for Inactive)
REMARK    1  A    between atoms: C11_17  and  N1_5 
REMARK       I    between atoms: C8_14  and  N1_5 
REMARK    2  A    between atoms: C3_9  and  C8_14 
ROOT
HETATM    1 Br1  UNK     1       5.684   3.530  -1.241  1.00  0.00    -0.051 Br
HETATM    2  O1  UNK     1       0.641   0.469  -2.655  1.00  0.00    -0.274 OA
HETATM    3  O2  UNK     1      -1.187  -0.747  -2.019  1.00  0.00    -0.259 OA
HETATM    4  C1  UNK     1       2.184   1.288  -0.964  1.00  0.00     0.000 A 
HETATM    5  C2  UNK     1       1.807   1.174  -2.299  1.00  0.00     0.089 A 
HETATM    6  C3  UNK     1       0.248  -0.000  -0.287  1.00  0.00     0.108 A 
HETATM    7  C4  UNK     1       1.355   0.668   0.057  1.00  0.00     0.037 A 
HETATM    8  C5  UNK     1       3.347   1.996  -0.651  1.00  0.00     0.033 A 
HETATM    9  C6  UNK     1      -0.173  -0.135  -1.700  1.00  0.00     0.304 A 
HETATM   10  C7  UNK     1       2.557   1.746  -3.325  1.00  0.00     0.039 A 
HETATM   11  C9  UNK     1       4.110   2.574  -1.670  1.00  0.00     0.011 A 
HETATM   12  C10 UNK     1       3.715   2.449  -3.004  1.00  0.00     0.022 A 
ENDROOT
BRANCH   6  13
HETATM   13  C8  UNK     1      -0.522  -0.591   0.814  1.00  0.00     0.262 C 
HETATM   14  O3  UNK     1       0.056  -0.956   1.836  1.00  0.00    -0.267 OA
HETATM   15  N1  UNK     1      -1.879  -0.659   0.527  1.00  0.00    -0.321 N 
HETATM   16  H5  UNK     1      -2.205  -0.292  -0.364  1.00  0.00     0.169 HD
BRANCH  15  17
HETATM   17  C11 UNK     1      -2.912  -1.168   1.352  1.00  0.00     0.052 A 
HETATM   18  C12 UNK     1      -4.217  -1.162   0.910  1.00  0.00     0.032 A 
HETATM   19  C14 UNK     1      -5.210  -1.668   1.742  1.00  0.00     0.021 A 
HETATM   20  C15 UNK     1      -4.831  -2.156   2.982  1.00  0.00     0.116 A 
HETATM   21  N2  UNK     1      -3.556  -2.170   3.432  1.00  0.00    -0.271 NA
HETATM   22  C13 UNK     1      -2.619  -1.671   2.596  1.00  0.00     0.145 A 
ENDBRANCH  15  17
ENDBRANCH   6  13
TORSDOF 2
