REMARK  6 active torsions:
REMARK  status: ('A' for Active; 'I' for Inactive)
REMARK    1  A    between atoms: C2_7  and  O1_3 
REMARK    2  A    between atoms: C3_8  and  O1_3 
REMARK    3  A    between atoms: C5_10  and  O2_4 
REMARK    4  A    between atoms: C1_6  and  C2_7 
REMARK    5  A    between atoms: C12_17  and  C4_9 
REMARK    6  A    between atoms: C15_20  and  C16_21 
ROOT
HETATM    1  N1  UNK     1       1.507   3.838  -0.406  1.00  0.00    -0.191 NA
HETATM    2  C12 UNK     1       2.183   0.607  -1.402  1.00  0.00     0.036 C 
HETATM    3  C15 UNK     1       2.756   1.836  -1.497  1.00  0.00     0.055 C 
HETATM    4  C24 UNK     1       2.057   2.938  -0.890  1.00  0.00     0.100 C 
ENDROOT
BRANCH   3   5
HETATM    5  C16 UNK     1       4.023   2.089  -2.165  1.00  0.00    -0.014 A 
HETATM    6  C18 UNK     1       4.045   2.410  -3.523  1.00  0.00     0.036 A 
HETATM    7  C20 UNK     1       5.261   2.653  -4.162  1.00  0.00     0.034 A 
HETATM    8 Cl1  UNK     1       5.289   3.048  -5.837  1.00  0.00    -0.084 Cl
HETATM    9  C22 UNK     1       6.454   2.574  -3.445  1.00  0.00     0.024 A 
HETATM   10  C21 UNK     1       6.432   2.254  -2.087  1.00  0.00     0.003 A 
HETATM   11  C19 UNK     1       5.217   2.011  -1.448  1.00  0.00     0.013 A 
ENDBRANCH   3   5
BRANCH   2  12
HETATM   12  C4  UNK     1       0.910   0.304  -0.731  1.00  0.00    -0.015 A 
HETATM   13  C6  UNK     1       0.968  -0.036   0.615  1.00  0.00     0.052 A 
HETATM   14  C5  UNK     1      -0.209  -0.332   1.301  1.00  0.00     0.102 A 
HETATM   15  C3  UNK     1      -1.434  -0.286   0.636  1.00  0.00     0.103 A 
HETATM   16  C7  UNK     1      -1.482   0.056  -0.715  1.00  0.00     0.059 A 
HETATM   17  C8  UNK     1      -0.305   0.353  -1.401  1.00  0.00     0.024 A 
HETATM   18 Br1  UNK     1      -0.441   0.812  -3.240  1.00  0.00    -0.050 Br
BRANCH  14  19
HETATM   19  O2  UNK     1      -0.150  -0.666   2.621  1.00  0.00    -0.353 OA
HETATM   20  C23 UNK     1      -0.247   0.400   3.564  1.00  0.00     0.210 C 
ENDBRANCH  14  19
BRANCH  15  21
HETATM   21  O1  UNK     1      -2.591  -0.574   1.296  1.00  0.00    -0.344 OA
BRANCH  21  22
HETATM   22  C2  UNK     1      -3.650  -1.144   0.529  1.00  0.00     0.214 C 
BRANCH  22  23
HETATM   23  C1  UNK     1      -4.494  -2.005   1.422  1.00  0.00    -0.034 A 
HETATM   24  C9  UNK     1      -5.579  -1.449   2.090  1.00  0.00     0.010 A 
HETATM   25  C13 UNK     1      -6.363  -2.249   2.921  1.00  0.00     0.007 A 
HETATM   26  C11 UNK     1      -6.056  -3.601   3.079  1.00  0.00    -0.062 A 
HETATM   27  C14 UNK     1      -4.965  -4.152   2.406  1.00  0.00     0.007 A 
HETATM   28  C17 UNK     1      -6.894  -4.456   3.968  1.00  0.00     0.048 C 
HETATM   29  C10 UNK     1      -4.181  -3.351   1.575  1.00  0.00     0.010 A 
ENDBRANCH  22  23
ENDBRANCH  21  22
ENDBRANCH  15  21
ENDBRANCH   2  12
TORSDOF 6
