REMARK  5 active torsions:
REMARK  status: ('A' for Active; 'I' for Inactive)
REMARK       I    between atoms: C11_19  and  N1_7 
REMARK    1  A    between atoms: C6_14  and  N1_7 
REMARK       I    between atoms: C12_20  and  N2_8 
REMARK    2  A    between atoms: C7_15  and  N2_8 
REMARK    3  A    between atoms: C1_9  and  C7_15 
REMARK    4  A    between atoms: C11_19  and  C13_21 
REMARK    5  A    between atoms: C12_20  and  C14_22 
ROOT
HETATM    1  C1  UNK     1      -0.554  -0.449  -0.127  1.00  0.00    -0.025 C 
HETATM    2  C2  UNK     1      -1.767   1.250  -1.760  1.00  0.00    -0.045 C 
HETATM    3  C3  UNK     1      -1.785   0.443  -0.436  1.00  0.00     0.019 C 
HETATM    4  C4  UNK     1       0.754   0.323  -0.398  1.00  0.00     0.036 C 
HETATM    5  C5  UNK     1      -0.401   1.941  -1.953  1.00  0.00     0.034 C 
HETATM    6  C6  UNK     1       0.792   0.997  -1.772  1.00  0.00     0.086 C 
HETATM    7  C8  UNK     1      -0.580  -1.771  -0.915  1.00  0.00     0.017 C 
HETATM    8  C9  UNK     1      -2.112   0.376  -2.981  1.00  0.00     0.015 C 
HETATM    9  C10 UNK     1      -2.860   2.340  -1.673  1.00  0.00     0.015 C 
ENDROOT
BRANCH   1  10
HETATM   10  C7  UNK     1      -0.600  -0.825   1.372  1.00  0.00     0.132 C 
BRANCH  10  11
HETATM   11  N2  UNK     1      -1.797  -1.538   1.667  1.00  0.00    -0.356 N 
HETATM   12  C12 UNK     1      -2.746  -1.098   2.586  1.00  0.00     0.257 C 
HETATM   13  O2  UNK     1      -2.685  -0.068   3.248  1.00  0.00    -0.267 OA
HETATM   14  H20 UNK     1      -1.912  -2.452   1.242  1.00  0.00     0.162 HD
BRANCH  12  15
HETATM   15  C14 UNK     1      -3.900  -2.007   2.714  1.00  0.00     0.108 A 
HETATM   16  C17 UNK     1      -4.500  -2.036   3.910  1.00  0.00     0.037 A 
HETATM   17  C21 UNK     1      -5.647  -2.902   4.135  1.00  0.00    -0.001 A 
HETATM   18  C22 UNK     1      -6.106  -3.695   3.088  1.00  0.00     0.089 A 
HETATM   19  C25 UNK     1      -6.304  -2.964   5.366  1.00  0.00     0.014 A 
HETATM   20  O4  UNK     1      -5.470  -3.661   1.832  1.00  0.00    -0.274 OA
HETATM   21  C27 UNK     1      -7.199  -4.547   3.238  1.00  0.00     0.038 A 
HETATM   22  C18 UNK     1      -4.371  -2.842   1.587  1.00  0.00     0.304 A 
HETATM   23  O6  UNK     1      -3.824  -2.819   0.490  1.00  0.00    -0.259 OA
HETATM   24  C30 UNK     1      -7.848  -4.603   4.469  1.00  0.00     0.003 A 
HETATM   25  C29 UNK     1      -7.402  -3.813   5.531  1.00  0.00     0.001 A 
ENDBRANCH  12  15
ENDBRANCH  10  11
ENDBRANCH   1  10
BRANCH   6  26
HETATM   26  N1  UNK     1       2.033   1.721  -1.935  1.00  0.00    -0.352 N 
HETATM   27  C11 UNK     1       3.176   1.138  -2.445  1.00  0.00     0.258 C 
HETATM   28  O1  UNK     1       3.304  -0.023  -2.818  1.00  0.00    -0.267 OA
HETATM   29  H19 UNK     1       2.044   2.692  -1.640  1.00  0.00     0.163 HD
BRANCH  27  30
HETATM   30  C13 UNK     1       4.309   2.079  -2.516  1.00  0.00     0.108 A 
HETATM   31  C15 UNK     1       5.196   1.863  -3.494  1.00  0.00     0.037 A 
HETATM   32  C19 UNK     1       6.349   2.738  -3.645  1.00  0.00    -0.001 A 
HETATM   33  C20 UNK     1       6.510   3.798  -2.758  1.00  0.00     0.089 A 
HETATM   34  C23 UNK     1       7.300   2.550  -4.651  1.00  0.00     0.014 A 
HETATM   35  O3  UNK     1       5.572   4.020  -1.731  1.00  0.00    -0.274 OA
HETATM   36  C24 UNK     1       7.591   4.672  -2.848  1.00  0.00     0.038 A 
HETATM   37  C16 UNK     1       4.460   3.200  -1.561  1.00  0.00     0.304 A 
HETATM   38  O5  UNK     1       3.649   3.400  -0.663  1.00  0.00    -0.259 OA
HETATM   39  C28 UNK     1       8.535   4.477  -3.854  1.00  0.00     0.003 A 
HETATM   40  C26 UNK     1       8.390   3.419  -4.754  1.00  0.00     0.001 A 
ENDBRANCH  27  30
ENDBRANCH   6  26
TORSDOF 5
