REMARK  6 active torsions:
REMARK  status: ('A' for Active; 'I' for Inactive)
REMARK    1  A    between atoms: C17_19  and  O1_1 
REMARK    2  A    between atoms: C18_20  and  O2_2 
REMARK    3  A    between atoms: C1_3  and  C3_5 
REMARK    4  A    between atoms: C1_3  and  C5_7 
REMARK    5  A    between atoms: C2_4  and  C4_6 
REMARK    6  A    between atoms: C2_4  and  C6_8 
ROOT
HETATM    1  C1  UNK     1       1.176   0.622   0.981  1.00  0.00    -0.041 C 
HETATM    2  C2  UNK     1       0.134  -0.014   1.575  1.00  0.00    -0.041 C 
ENDROOT
BRANCH   1   3
HETATM    3  C3  UNK     1       2.363   1.196   1.730  1.00  0.00     0.035 C 
HETATM    4  C7  UNK     1       3.492   0.185   1.885  1.00  0.00     0.010 C 
ENDBRANCH   1   3
BRANCH   1   5
HETATM    5  C5  UNK     1       1.216   0.860  -0.481  1.00  0.00    -0.029 A 
HETATM    6  C11 UNK     1       1.792  -0.093  -1.298  1.00  0.00     0.014 A 
HETATM    7  C15 UNK     1       1.830   0.130  -2.675  1.00  0.00     0.037 A 
HETATM    8  C17 UNK     1       1.292   1.302  -3.207  1.00  0.00     0.065 A 
HETATM    9  C13 UNK     1       0.715   2.250  -2.362  1.00  0.00     0.037 A 
HETATM   10  C9  UNK     1       0.677   2.027  -0.986  1.00  0.00     0.014 A 
BRANCH   8  11
HETATM   11  O1  UNK     1       1.329   1.520  -4.549  1.00  0.00    -0.361 OA
HETATM   12  H19 UNK     1       0.913   2.378  -4.741  1.00  0.00     0.217 HD
ENDBRANCH   8  11
ENDBRANCH   1   5
BRANCH   2  13
HETATM   13  C4  UNK     1       0.058  -0.325   3.057  1.00  0.00     0.035 C 
HETATM   14  C8  UNK     1      -0.599   0.798   3.850  1.00  0.00     0.010 C 
ENDBRANCH   2  13
BRANCH   2  15
HETATM   15  C6  UNK     1      -1.023  -0.515   0.796  1.00  0.00    -0.029 A 
HETATM   16  C10 UNK     1      -0.986  -1.801   0.293  1.00  0.00     0.014 A 
HETATM   17  C14 UNK     1      -2.075  -2.272  -0.440  1.00  0.00     0.037 A 
HETATM   18  C18 UNK     1      -3.180  -1.448  -0.655  1.00  0.00     0.065 A 
HETATM   19  C16 UNK     1      -3.195  -0.153  -0.138  1.00  0.00     0.037 A 
HETATM   20  C12 UNK     1      -2.106   0.318   0.595  1.00  0.00     0.014 A 
BRANCH  18  21
HETATM   21  O2  UNK     1      -4.243  -1.909  -1.370  1.00  0.00    -0.361 OA
HETATM   22  H20 UNK     1      -4.915  -1.208  -1.421  1.00  0.00     0.217 HD
ENDBRANCH  18  21
ENDBRANCH   2  15
TORSDOF 6
