REMARK  1 active torsions:
REMARK  status: ('A' for Active; 'I' for Inactive)
REMARK    1  A    between atoms: C3_5  and  C4_6 
ROOT
HETATM    1  O1  UNK     1      -0.261   0.831   0.423  1.00  0.00    -0.309 OA
HETATM    2  O2  UNK     1      -2.076  -2.388  -1.292  1.00  0.00    -0.287 OA
HETATM    3  C1  UNK     1      -1.926  -0.932   0.563  1.00  0.00     0.048 A 
HETATM    4  C2  UNK     1      -1.264   0.176   1.090  1.00  0.00     0.090 A 
HETATM    5  C3  UNK     1       0.116   0.364  -0.828  1.00  0.00     0.090 A 
HETATM    6  C5  UNK     1      -2.941  -1.560   1.288  1.00  0.00     0.025 A 
HETATM    7  C6  UNK     1      -1.536  -1.424  -0.767  1.00  0.00     0.187 A 
HETATM    8  C7  UNK     1      -3.290  -1.070   2.547  1.00  0.00    -0.061 A 
HETATM    9  C8  UNK     1      -0.449  -0.687  -1.443  1.00  0.00     0.093 A 
HETATM   10  C9  UNK     1      -1.616   0.663   2.349  1.00  0.00     0.039 A 
HETATM   11  C11 UNK     1      -2.629   0.039   3.077  1.00  0.00     0.009 A 
HETATM   12  C15 UNK     1      -4.373  -1.733   3.330  1.00  0.00     0.048 C 
ENDROOT
BRANCH   5  13
HETATM   13  C4  UNK     1       1.199   1.144  -1.459  1.00  0.00    -0.002 A 
HETATM   14  C10 UNK     1       2.167   1.769  -0.668  1.00  0.00     0.021 A 
HETATM   15  C12 UNK     1       3.191   2.505  -1.265  1.00  0.00    -0.061 A 
HETATM   16  C14 UNK     1       3.250   2.618  -2.654  1.00  0.00     0.007 A 
HETATM   17  C17 UNK     1       4.223   3.169  -0.418  1.00  0.00     0.048 C 
HETATM   18  C16 UNK     1       2.285   1.996  -3.446  1.00  0.00     0.001 A 
HETATM   19  C13 UNK     1       1.261   1.260  -2.850  1.00  0.00     0.014 A 
ENDBRANCH   5  13
TORSDOF 1
