REMARK  4 active torsions:
REMARK  status: ('A' for Active; 'I' for Inactive)
REMARK    1  A    between atoms: C8_13  and  O2_2 
REMARK    2  A    between atoms: C9_14  and  O3_3 
REMARK    3  A    between atoms: C15_20  and  O5_5 
REMARK    4  A    between atoms: C2_7  and  C5_10 
ROOT
HETATM    1  O1  UNK     1       1.139   1.493   1.262  1.00  0.00    -0.321 OA
HETATM    2  O4  UNK     1      -1.275  -0.305  -1.493  1.00  0.00    -0.286 OA
HETATM    3  C1  UNK     1       0.693   0.909  -1.051  1.00  0.00     0.052 A 
HETATM    4  C2  UNK     1      -0.862   0.197   0.798  1.00  0.00     0.048 A 
HETATM    5  C3  UNK     1       1.474   1.515  -0.067  1.00  0.00     0.092 A 
HETATM    6  C4  UNK     1      -0.547   0.215  -0.657  1.00  0.00     0.198 A 
HETATM    7  C6  UNK     1       1.084   0.964  -2.391  1.00  0.00     0.058 A 
HETATM    8  C7  UNK     1       2.649   2.181  -0.418  1.00  0.00     0.077 A 
HETATM    9  C8  UNK     1       2.260   1.630  -2.740  1.00  0.00     0.102 A 
HETATM   10  C9  UNK     1       3.040   2.237  -1.756  1.00  0.00     0.104 A 
HETATM   11  C10 UNK     1      -0.008   0.825   1.620  1.00  0.00     0.159 A 
ENDROOT
BRANCH   4  12
HETATM   12  C5  UNK     1      -2.048  -0.494   1.330  1.00  0.00    -0.020 A 
HETATM   13  C11 UNK     1      -3.255   0.194   1.473  1.00  0.00     0.015 A 
HETATM   14  C13 UNK     1      -4.379  -0.461   1.977  1.00  0.00     0.037 A 
HETATM   15  C15 UNK     1      -4.298  -1.806   2.338  1.00  0.00     0.068 A 
HETATM   16  C14 UNK     1      -3.094  -2.495   2.196  1.00  0.00     0.037 A 
HETATM   17  C12 UNK     1      -1.970  -1.840   1.692  1.00  0.00     0.015 A 
BRANCH  15  18
HETATM   18  O5  UNK     1      -5.395  -2.445   2.829  1.00  0.00    -0.356 OA
HETATM   19  C18 UNK     1      -5.243  -3.820   3.179  1.00  0.00     0.210 C 
ENDBRANCH  15  18
ENDBRANCH   4  12
BRANCH   9  20
HETATM   20  O2  UNK     1       2.637   1.679  -4.048  1.00  0.00    -0.353 OA
HETATM   21  C16 UNK     1       3.470   0.623  -4.523  1.00  0.00     0.210 C 
ENDBRANCH   9  20
BRANCH  10  22
HETATM   22  O3  UNK     1       4.191   2.887  -2.089  1.00  0.00    -0.353 OA
HETATM   23  C17 UNK     1       4.084   4.276  -2.395  1.00  0.00     0.210 C 
ENDBRANCH  10  22
TORSDOF 4
