REMARK  6 active torsions:
REMARK  status: ('A' for Active; 'I' for Inactive)
REMARK    1  A    between atoms: C16_21  and  O2_2 
REMARK    2  A    between atoms: C6_11  and  O2_2 
REMARK    3  A    between atoms: C17_22  and  O3_3 
REMARK    4  A    between atoms: C8_13  and  O3_3 
REMARK    5  A    between atoms: C7_12  and  O4_4 
REMARK    6  A    between atoms: C1_6  and  C2_7 
ROOT
HETATM    1  O1  UNK     1      -1.378  -1.299   0.314  1.00  0.00    -0.306 OA
HETATM    2  O5  UNK     1      -3.676   1.262   2.498  1.00  0.00    -0.284 OA
HETATM    3  C2  UNK     1      -1.207   0.073   0.233  1.00  0.00     0.123 A 
HETATM    4  C3  UNK     1      -3.150  -0.969   1.940  1.00  0.00     0.051 A 
HETATM    5  C4  UNK     1      -2.335  -1.790   1.165  1.00  0.00     0.090 A 
HETATM    6  C7  UNK     1      -1.934   0.975   0.919  1.00  0.00     0.152 A 
HETATM    7  C10 UNK     1      -2.984   0.490   1.847  1.00  0.00     0.220 A 
HETATM    8  C12 UNK     1      -4.110  -1.526   2.789  1.00  0.00     0.018 A 
HETATM    9  C13 UNK     1      -2.475  -3.177   1.233  1.00  0.00     0.038 A 
HETATM   10  C14 UNK     1      -4.247  -2.912   2.857  1.00  0.00     0.001 A 
HETATM   11  C15 UNK     1      -3.431  -3.737   2.080  1.00  0.00     0.003 A 
ENDROOT
BRANCH   3  12
HETATM   12  C1  UNK     1      -0.149   0.466  -0.713  1.00  0.00     0.004 A 
HETATM   13  C5  UNK     1       1.163   0.625  -0.267  1.00  0.00     0.054 A 
HETATM   14  C6  UNK     1       2.165   0.998  -1.163  1.00  0.00     0.102 A 
HETATM   15  C8  UNK     1       1.855   1.212  -2.506  1.00  0.00     0.102 A 
HETATM   16  C11 UNK     1       0.543   1.053  -2.953  1.00  0.00     0.040 A 
HETATM   17  C9  UNK     1      -0.458   0.680  -2.057  1.00  0.00     0.017 A 
BRANCH  14  18
HETATM   18  O2  UNK     1       3.443   1.150  -0.715  1.00  0.00    -0.349 OA
BRANCH  18  19
HETATM   19  C16 UNK     1       3.662   2.126   0.301  1.00  0.00     0.171 C 
HETATM   20  C18 UNK     1       5.068   2.671   0.166  1.00  0.00     0.034 C 
ENDBRANCH  18  19
ENDBRANCH  14  18
BRANCH  15  21
HETATM   21  O3  UNK     1       2.825   1.575  -3.391  1.00  0.00    -0.349 OA
BRANCH  21  22
HETATM   22  C17 UNK     1       2.654   2.820  -4.065  1.00  0.00     0.171 C 
HETATM   23  C19 UNK     1       4.016   3.409  -4.365  1.00  0.00     0.034 C 
ENDBRANCH  21  22
ENDBRANCH  15  21
ENDBRANCH   3  12
BRANCH   6  24
HETATM   24  O4  UNK     1      -1.760   2.336   0.790  1.00  0.00    -0.355 OA
HETATM   25  H12 UNK     1      -1.049   2.519   0.156  1.00  0.00     0.218 HD
ENDBRANCH   6  24
TORSDOF 6
