REMARK  5 active torsions:
REMARK  status: ('A' for Active; 'I' for Inactive)
REMARK    1  A    between atoms: C13_20  and  O3_4 
REMARK    2  A    between atoms: C23_30  and  O3_4 
REMARK    3  A    between atoms: C1_8  and  C10_17 
REMARK    4  A    between atoms: C11_18  and  C4_11 
REMARK    5  A    between atoms: C13_20  and  C8_15 
ROOT
HETATM    1  O1  UNK     1       2.169  -1.814  -0.550  1.00  0.00    -0.293 OA
HETATM    2  N1  UNK     1      -0.765   1.353  -2.500  1.00  0.00    -0.362 N 
HETATM    3  C1  UNK     1       2.854   1.603  -1.518  1.00  0.00     0.038 C 
HETATM    4  C2  UNK     1       1.636   1.861  -2.416  1.00  0.00     0.068 C 
HETATM    5  C3  UNK     1       0.637  -0.233  -1.438  1.00  0.00     0.024 C 
HETATM    6  C4  UNK     1      -0.568  -1.100  -1.088  1.00  0.00     0.104 C 
HETATM    7  C5  UNK     1       0.488   0.940  -2.090  1.00  0.00     0.021 C 
HETATM    8  C6  UNK     1       3.202   0.114  -1.509  1.00  0.00     0.094 C 
HETATM    9  C7  UNK     1       2.010  -0.723  -1.097  1.00  0.00     0.159 C 
HETATM   10  C8  UNK     1      -1.867  -0.590  -1.716  1.00  0.00     0.052 C 
HETATM   11  C9  UNK     1      -1.918   0.595  -2.369  1.00  0.00     0.018 C 
HETATM   12  C12 UNK     1      -3.136   1.184  -3.028  1.00  0.00     0.069 C 
HETATM   13  H7  UNK     1      -0.833   2.233  -2.999  1.00  0.00     0.165 HD
ENDROOT
BRANCH   6  14
HETATM   14  C11 UNK     1      -0.719  -1.206   0.406  1.00  0.00     0.029 A 
HETATM   15  C14 UNK     1      -0.976   0.034   1.182  1.00  0.00     0.194 A 
HETATM   16  O5  UNK     1      -1.069   1.130   0.646  1.00  0.00    -0.287 OA
HETATM   17  C17 UNK     1      -1.114  -0.126   2.641  1.00  0.00     0.048 A 
HETATM   18  C20 UNK     1      -0.998  -1.400   3.198  1.00  0.00     0.089 A 
HETATM   19  C21 UNK     1      -1.356   0.980   3.459  1.00  0.00     0.018 A 
HETATM   20  O2  UNK     1      -0.761  -2.520   2.443  1.00  0.00    -0.321 OA
HETATM   21  C22 UNK     1      -1.125  -1.574   4.577  1.00  0.00     0.038 A 
HETATM   22  C16 UNK     1      -0.634  -2.357   1.085  1.00  0.00     0.154 A 
HETATM   23  C25 UNK     1      -1.368  -0.471   5.395  1.00  0.00     0.003 A 
HETATM   24  C24 UNK     1      -1.483   0.803   4.838  1.00  0.00     0.001 A 
ENDBRANCH   6  14
BRANCH  10  25
HETATM   25  C13 UNK     1      -3.048  -1.457  -1.574  1.00  0.00     0.292 C 
HETATM   26  O4  UNK     1      -3.344  -2.320  -2.379  1.00  0.00    -0.259 OA
BRANCH  25  27
HETATM   27  O3  UNK     1      -3.695  -1.116  -0.434  1.00  0.00    -0.318 OA
BRANCH  27  28
HETATM   28  C23 UNK     1      -4.874  -1.877  -0.154  1.00  0.00     0.174 C 
HETATM   29  C26 UNK     1      -5.483  -1.385   1.142  1.00  0.00     0.034 C 
ENDBRANCH  27  28
ENDBRANCH  25  27
ENDBRANCH  10  25
BRANCH   3  30
HETATM   30  C10 UNK     1       4.043   2.467  -1.908  1.00  0.00    -0.013 A 
HETATM   31  C15 UNK     1       4.739   2.475  -3.093  1.00  0.00     0.015 A 
HETATM   32  C18 UNK     1       5.796   3.430  -3.082  1.00  0.00     0.008 A 
HETATM   33  C19 UNK     1       5.864   4.113  -1.888  1.00  0.00     0.050 A 
HETATM   34  S1  UNK     1       4.657   3.603  -0.786  1.00  0.00    -0.106 SA
ENDBRANCH   3  30
TORSDOF 5
