REMARK  1 active torsions:
REMARK  status: ('A' for Active; 'I' for Inactive)
REMARK    1  A    between atoms: C2_5  and  C8_11 
ROOT
HETATM    1  O1  UNK     1       1.336   0.488   2.453  1.00  0.00    -0.321 OA
HETATM    2  O2  UNK     1      -3.041  -1.533   2.248  1.00  0.00    -0.275 OA
HETATM    3  O3  UNK     1      -5.115  -2.483   2.080  1.00  0.00    -0.260 OA
HETATM    4  C1  UNK     1       0.305   0.235   0.459  1.00  0.00     0.012 A 
HETATM    5  C2  UNK     1       1.568   0.849   0.245  1.00  0.00     0.009 A 
HETATM    6  C3  UNK     1      -1.903  -0.769   0.224  1.00  0.00     0.005 A 
HETATM    7  C4  UNK     1       0.211   0.034   1.831  1.00  0.00     0.088 A 
HETATM    8  C5  UNK     1      -0.768  -0.172  -0.360  1.00  0.00     0.030 A 
HETATM    9  C6  UNK     1      -1.927  -0.939   1.611  1.00  0.00     0.093 A 
HETATM   10  C7  UNK     1      -0.883  -0.549   2.459  1.00  0.00     0.076 A 
HETATM   11  C9  UNK     1      -3.063  -1.220  -0.560  1.00  0.00    -0.043 A 
HETATM   12  C10 UNK     1       2.151   0.980   1.484  1.00  0.00     0.155 A 
HETATM   13  C13 UNK     1      -4.103  -1.779   0.074  1.00  0.00     0.090 A 
HETATM   14  C14 UNK     1      -3.071  -1.051  -2.052  1.00  0.00     0.049 C 
HETATM   15  C16 UNK     1      -4.146  -1.968   1.533  1.00  0.00     0.288 A 
ENDROOT
BRANCH   5  16
HETATM   16  C8  UNK     1       2.200   1.283  -0.965  1.00  0.00    -0.023 A 
HETATM   17  C11 UNK     1       3.018   0.407  -1.682  1.00  0.00     0.013 A 
HETATM   18  C17 UNK     1       3.632   0.830  -2.861  1.00  0.00     0.007 A 
HETATM   19  C15 UNK     1       3.430   2.129  -3.326  1.00  0.00    -0.062 A 
HETATM   20  C18 UNK     1       2.614   3.007  -2.612  1.00  0.00     0.007 A 
HETATM   21  C19 UNK     1       4.086   2.580  -4.587  1.00  0.00     0.048 C 
HETATM   22  C12 UNK     1       1.999   2.584  -1.433  1.00  0.00     0.013 A 
ENDBRANCH   5  16
TORSDOF 1
