REMARK  6 active torsions:
REMARK  status: ('A' for Active; 'I' for Inactive)
REMARK    1  A    between atoms: C12_18  and  O3_3 
REMARK    2  A    between atoms: C18_24  and  O3_3 
REMARK    3  A    between atoms: C1_7  and  C10_16 
REMARK    4  A    between atoms: C12_18  and  C6_12 
REMARK    5  A    between atoms: C18_24  and  C22_28 
REMARK    6  A    between atoms: C22_28  and  C24_30 
ROOT
HETATM    1  O1  UNK     1       1.322   0.347  -4.020  1.00  0.00    -0.293 OA
HETATM    2  N1  UNK     1       3.247   2.518  -0.275  1.00  0.00    -0.362 N 
HETATM    3  C1  UNK     1       1.790   0.255  -1.175  1.00  0.00     0.104 C 
HETATM    4  C2  UNK     1       2.183   1.416  -2.083  1.00  0.00     0.024 C 
HETATM    5  C3  UNK     1       2.856   2.482  -1.600  1.00  0.00     0.020 C 
HETATM    6  C4  UNK     1       3.225   3.677  -2.439  1.00  0.00     0.058 C 
HETATM    7  C5  UNK     1       2.360   3.791  -3.689  1.00  0.00     0.014 C 
HETATM    8  C6  UNK     1       2.411   0.359   0.219  1.00  0.00     0.052 C 
HETATM    9  C7  UNK     1       2.322   2.473  -4.441  1.00  0.00     0.084 C 
HETATM   10  C8  UNK     1       1.872   1.340  -3.545  1.00  0.00     0.158 C 
HETATM   11  C9  UNK     1       3.076   1.469   0.615  1.00  0.00     0.018 C 
HETATM   12  C13 UNK     1       3.677   1.691   1.977  1.00  0.00     0.069 C 
HETATM   13  H8  UNK     1       3.752   3.335   0.048  1.00  0.00     0.165 HD
ENDROOT
BRANCH   3  14
HETATM   14  C10 UNK     1       0.292   0.159  -1.071  1.00  0.00     0.029 A 
HETATM   15  C11 UNK     1      -0.377  -1.071  -1.566  1.00  0.00     0.194 A 
HETATM   16  O4  UNK     1       0.251  -2.002  -2.053  1.00  0.00    -0.287 OA
HETATM   17  C15 UNK     1      -1.845  -1.112  -1.441  1.00  0.00     0.049 A 
HETATM   18  C16 UNK     1      -2.509  -0.021  -0.879  1.00  0.00     0.089 A 
HETATM   19  C17 UNK     1      -2.567  -2.225  -1.879  1.00  0.00     0.025 A 
HETATM   20  O2  UNK     1      -1.851   1.098  -0.433  1.00  0.00    -0.321 OA
HETATM   21  C19 UNK     1      -3.898  -0.038  -0.751  1.00  0.00     0.039 A 
HETATM   22  C14 UNK     1      -0.483   1.122  -0.557  1.00  0.00     0.154 A 
HETATM   23  C21 UNK     1      -4.621  -1.149  -1.187  1.00  0.00     0.009 A 
HETATM   24  C20 UNK     1      -3.957  -2.240  -1.749  1.00  0.00    -0.061 A 
HETATM   25  C23 UNK     1      -4.735  -3.426  -2.212  1.00  0.00     0.048 C 
ENDBRANCH   3  14
BRANCH   8  26
HETATM   26  C12 UNK     1       2.289  -0.827   1.083  1.00  0.00     0.292 C 
HETATM   27  O5  UNK     1       3.093  -1.740   1.081  1.00  0.00    -0.259 OA
BRANCH  26  28
HETATM   28  O3  UNK     1       1.167  -0.697   1.831  1.00  0.00    -0.317 OA
BRANCH  28  29
HETATM   29  C18 UNK     1       0.909  -1.781   2.729  1.00  0.00     0.183 C 
BRANCH  29  30
HETATM   30  C22 UNK     1       0.163  -1.267   3.956  1.00  0.00     0.065 C 
BRANCH  30  31
HETATM   31  C24 UNK     1      -1.141  -0.597   3.597  1.00  0.00    -0.056 A 
HETATM   32  C25 UNK     1      -1.157   0.764   3.337  1.00  0.00     0.007 A 
HETATM   33  C27 UNK     1      -2.362   1.382   3.005  1.00  0.00     0.001 A 
HETATM   34  C29 UNK     1      -3.536   0.632   2.936  1.00  0.00     0.000 A 
HETATM   35  C28 UNK     1      -3.504  -0.738   3.200  1.00  0.00     0.001 A 
HETATM   36  C26 UNK     1      -2.299  -1.356   3.533  1.00  0.00     0.007 A 
ENDBRANCH  30  31
ENDBRANCH  29  30
ENDBRANCH  28  29
ENDBRANCH  26  28
ENDBRANCH   8  26
TORSDOF 6
