REMARK  6 active torsions:
REMARK  status: ('A' for Active; 'I' for Inactive)
REMARK    1  A    between atoms: C3_7  and  N1_4 
REMARK       I    between atoms: C4_8  and  N1_4 
REMARK    2  A    between atoms: C1_5  and  C2_6 
REMARK    3  A    between atoms: C1_5  and  C4_8 
REMARK    4  A    between atoms: C12_16  and  C5_9 
REMARK    5  A    between atoms: C12_16  and  C16_20 
REMARK    6  A    between atoms: C15_19  and  C18_22 
ROOT
HETATM    1  C3  UNK     1       1.536  -2.207   1.851  1.00  0.00     0.034 A 
HETATM    2  C5  UNK     1       0.651   0.438   1.793  1.00  0.00     0.014 A 
HETATM    3  C6  UNK     1       2.452  -1.169   1.683  1.00  0.00     0.030 A 
HETATM    4  C7  UNK     1       0.177  -1.923   1.990  1.00  0.00     0.030 A 
HETATM    5  C8  UNK     1       2.010   0.153   1.654  1.00  0.00     0.018 A 
HETATM    6  C9  UNK     1      -0.265  -0.601   1.960  1.00  0.00     0.018 A 
ENDROOT
BRANCH   1   7
HETATM    7  N1  UNK     1       1.978  -3.530   1.879  1.00  0.00    -0.327 N 
HETATM    8  C4  UNK     1       1.214  -4.699   2.035  1.00  0.00     0.226 C 
HETATM    9  O1  UNK     1      -0.002  -4.765   2.179  1.00  0.00    -0.273 OA
HETATM   10  H3  UNK     1       2.983  -3.643   1.768  1.00  0.00     0.169 HD
BRANCH   8  11
HETATM   11  C1  UNK     1       2.097  -5.937   2.007  1.00  0.00     0.141 C 
BRANCH  11  12
HETATM   12  C2  UNK     1       1.751  -6.895   0.898  1.00  0.00    -0.050 A 
HETATM   13  C10 UNK     1       0.816  -7.907   1.116  1.00  0.00     0.007 A 
HETATM   14  C13 UNK     1       0.496  -8.794   0.087  1.00  0.00     0.001 A 
HETATM   15  C17 UNK     1       1.110  -8.668  -1.158  1.00  0.00     0.000 A 
HETATM   16  C14 UNK     1       2.045  -7.656  -1.376  1.00  0.00     0.001 A 
HETATM   17  C11 UNK     1       2.366  -6.770  -0.348  1.00  0.00     0.007 A 
ENDBRANCH  11  12
ENDBRANCH   8  11
ENDBRANCH   1   7
BRANCH   2  18
HETATM   18  C12 UNK     1       0.180   1.843   1.761  1.00  0.00     0.182 C 
HETATM   19  O2  UNK     1       0.809   2.681   1.125  1.00  0.00    -0.288 OA
BRANCH  18  20
HETATM   20  C16 UNK     1      -1.041   2.181   2.546  1.00  0.00     0.056 C 
HETATM   21  C18 UNK     1      -1.844   3.196   2.155  1.00  0.00     0.015 C 
BRANCH  21  22
HETATM   22  C15 UNK     1      -1.627   4.035   0.987  1.00  0.00    -0.036 A 
HETATM   23  C19 UNK     1      -1.467   5.413   1.137  1.00  0.00     0.014 A 
HETATM   24  C21 UNK     1      -1.259   6.217   0.017  1.00  0.00     0.043 A 
HETATM   25  C23 UNK     1      -1.211   5.643  -1.254  1.00  0.00     0.116 A 
HETATM   26  C22 UNK     1      -1.370   4.266  -1.404  1.00  0.00     0.043 A 
HETATM   27  F1  UNK     1      -1.010   6.415  -2.330  1.00  0.00    -0.206 F 
HETATM   28  C20 UNK     1      -1.579   3.462  -0.283  1.00  0.00     0.014 A 
ENDBRANCH  21  22
ENDBRANCH  18  20
ENDBRANCH   2  18
TORSDOF 6
