REMARK  2 active torsions:
REMARK  status: ('A' for Active; 'I' for Inactive)
REMARK    1  A    between atoms: C12_17  and  O3_3 
REMARK    2  A    between atoms: C1_6  and  C3_8 
ROOT
HETATM    1  O1  UNK     1      -3.099  -1.705  -0.527  1.00  0.00    -0.275 OA
HETATM    2  O5  UNK     1      -3.255  -1.716  -2.806  1.00  0.00    -0.260 OA
HETATM    3  C1  UNK     1      -0.743  -0.128  -0.802  1.00  0.00    -0.001 A 
HETATM    4  C2  UNK     1      -1.252  -0.505   0.532  1.00  0.00     0.009 A 
HETATM    5  C4  UNK     1      -2.409  -1.282   0.624  1.00  0.00     0.093 A 
HETATM    6  C7  UNK     1      -0.638  -0.121   1.733  1.00  0.00     0.018 A 
HETATM    7  C8  UNK     1      -1.435  -0.549  -1.873  1.00  0.00     0.096 A 
HETATM    8  C11 UNK     1      -2.949  -1.678   1.850  1.00  0.00     0.075 A 
HETATM    9  C12 UNK     1      -2.321  -1.289   3.027  1.00  0.00     0.070 A 
HETATM   10  C13 UNK     1      -1.167  -0.511   2.969  1.00  0.00     0.038 A 
HETATM   11  C14 UNK     1      -2.661  -1.362  -1.794  1.00  0.00     0.289 A 
ENDROOT
BRANCH   3  12
HETATM   12  C3  UNK     1       0.452   0.659  -1.034  1.00  0.00     0.052 A 
HETATM   13  C10 UNK     1       0.338   2.142  -1.112  1.00  0.00     0.299 A 
HETATM   14  O2  UNK     1       1.514   2.855  -1.337  1.00  0.00    -0.274 OA
HETATM   15  O4  UNK     1      -0.734   2.724  -0.984  1.00  0.00    -0.259 OA
HETATM   16  C9  UNK     1       2.759   2.218  -1.486  1.00  0.00     0.089 A 
HETATM   17  C16 UNK     1       3.877   3.019  -1.708  1.00  0.00     0.038 A 
HETATM   18  C5  UNK     1       2.854   0.834  -1.411  1.00  0.00    -0.001 A 
HETATM   19  C18 UNK     1       5.123   2.414  -1.859  1.00  0.00     0.003 A 
HETATM   20  C17 UNK     1       5.237   1.024  -1.786  1.00  0.00     0.001 A 
HETATM   21  C15 UNK     1       4.106   0.234  -1.563  1.00  0.00     0.014 A 
HETATM   22  C6  UNK     1       1.645   0.062  -1.177  1.00  0.00     0.032 A 
ENDBRANCH   3  12
BRANCH   9  23
HETATM   23  O3  UNK     1      -2.832  -1.664   4.231  1.00  0.00    -0.356 OA
HETATM   24  C19 UNK     1      -4.015  -2.461   4.215  1.00  0.00     0.210 C 
ENDBRANCH   9  23
TORSDOF 2
