REMARK  6 active torsions:
REMARK  status: ('A' for Active; 'I' for Inactive)
REMARK    1  A    between atoms: C17_24  and  O2_2 
REMARK    2  A    between atoms: C5_12  and  O2_2 
REMARK    3  A    between atoms: C13_20  and  O3_3 
REMARK    4  A    between atoms: C15_22  and  O4_4 
REMARK    5  A    between atoms: C10_17  and  N1_7 
REMARK       I    between atoms: C8_15  and  N1_7 
REMARK    6  A    between atoms: C3_10  and  C8_15 
ROOT
HETATM    1  O1  UNK     1       1.907   0.753  -2.200  1.00  0.00    -0.271 OA
HETATM    2  O5  UNK     1       0.106  -0.604  -1.826  1.00  0.00    -0.259 OA
HETATM    3  C1  UNK     1       3.050   1.776  -0.314  1.00  0.00     0.002 A 
HETATM    4  C2  UNK     1       2.927   1.577  -1.685  1.00  0.00     0.123 A 
HETATM    5  C3  UNK     1       1.140   0.340   0.086  1.00  0.00     0.108 A 
HETATM    6  C4  UNK     1       2.107   1.122   0.580  1.00  0.00     0.037 A 
HETATM    7  C5  UNK     1       3.797   2.175  -2.595  1.00  0.00     0.103 A 
HETATM    8  C6  UNK     1       4.075   2.600   0.158  1.00  0.00     0.014 A 
HETATM    9  C7  UNK     1       0.991   0.112  -1.369  1.00  0.00     0.304 A 
HETATM   10  C9  UNK     1       4.816   2.995  -2.116  1.00  0.00     0.040 A 
HETATM   11  C11 UNK     1       4.955   3.207  -0.742  1.00  0.00     0.004 A 
ENDROOT
BRANCH   5  12
HETATM   12  C8  UNK     1       0.239  -0.277   1.067  1.00  0.00     0.262 C 
HETATM   13  O6  UNK     1       0.655  -0.545   2.193  1.00  0.00    -0.267 OA
HETATM   14  N1  UNK     1      -1.033  -0.483   0.552  1.00  0.00    -0.323 N 
HETATM   15  H5  UNK     1      -1.224  -0.182  -0.401  1.00  0.00     0.169 HD
BRANCH  14  16
HETATM   16  C10 UNK     1      -2.150  -1.053   1.211  1.00  0.00     0.037 A 
HETATM   17  C14 UNK     1      -2.018  -1.474   2.523  1.00  0.00     0.032 A 
HETATM   18  C16 UNK     1      -3.117  -2.034   3.173  1.00  0.00     0.042 A 
HETATM   19  C15 UNK     1      -4.332  -2.166   2.501  1.00  0.00     0.101 A 
HETATM   20  C13 UNK     1      -4.448  -1.738   1.178  1.00  0.00     0.103 A 
HETATM   21  C12 UNK     1      -3.348  -1.177   0.529  1.00  0.00     0.069 A 
BRANCH  19  22
HETATM   22  O4  UNK     1      -5.398  -2.717   3.146  1.00  0.00    -0.353 OA
HETATM   23  C20 UNK     1      -6.256  -1.826   3.857  1.00  0.00     0.210 C 
ENDBRANCH  19  22
BRANCH  20  24
HETATM   24  O3  UNK     1      -5.629  -1.861   0.511  1.00  0.00    -0.353 OA
HETATM   25  C19 UNK     1      -5.842  -3.072  -0.210  1.00  0.00     0.210 C 
ENDBRANCH  20  24
ENDBRANCH  14  16
ENDBRANCH   5  12
BRANCH   7  26
HETATM   26  O2  UNK     1       3.665   1.971  -3.933  1.00  0.00    -0.349 OA
BRANCH  26  27
HETATM   27  C17 UNK     1       4.082   3.029  -4.796  1.00  0.00     0.171 C 
HETATM   28  C18 UNK     1       3.257   2.984  -6.064  1.00  0.00     0.034 C 
ENDBRANCH  26  27
ENDBRANCH   7  26
TORSDOF 6
