REMARK  3 active torsions:
REMARK  status: ('A' for Active; 'I' for Inactive)
REMARK    1  A    between atoms: C7_11  and  O2_2 
REMARK    2  A    between atoms: C5_9  and  O3_3 
REMARK    3  A    between atoms: C1_5  and  C2_6 
ROOT
HETATM    1  O1  UNK     1      -0.172  -1.511   0.101  1.00  0.00    -0.306 OA
HETATM    2  O4  UNK     1       1.792  -2.765   3.444  1.00  0.00    -0.284 OA
HETATM    3  C1  UNK     1       0.106  -0.643   1.145  1.00  0.00     0.126 A 
HETATM    4  C3  UNK     1       0.922  -3.303   1.319  1.00  0.00     0.051 A 
HETATM    5  C4  UNK     1       0.244  -2.813   0.205  1.00  0.00     0.090 A 
HETATM    6  C5  UNK     1       0.743  -0.991   2.278  1.00  0.00     0.152 A 
HETATM    7  C6  UNK     1       1.206  -2.390   2.437  1.00  0.00     0.220 A 
HETATM    8  C8  UNK     1       1.322  -4.641   1.370  1.00  0.00     0.018 A 
HETATM    9  C10 UNK     1      -0.039  -3.659  -0.867  1.00  0.00     0.038 A 
HETATM   10  C12 UNK     1       1.038  -5.485   0.296  1.00  0.00     0.001 A 
HETATM   11  C13 UNK     1       0.359  -4.996  -0.820  1.00  0.00     0.003 A 
ENDROOT
BRANCH   3  12
HETATM   12  C2  UNK     1      -0.394   0.722   0.906  1.00  0.00     0.034 A 
HETATM   13  C7  UNK     1       0.407   1.687   0.291  1.00  0.00     0.081 A 
HETATM   14  C11 UNK     1      -0.089   2.973   0.075  1.00  0.00     0.038 A 
HETATM   15  C15 UNK     1      -1.385   3.297   0.474  1.00  0.00     0.003 A 
HETATM   16  C14 UNK     1      -2.187   2.335   1.089  1.00  0.00     0.001 A 
HETATM   17  C9  UNK     1      -1.692   1.049   1.305  1.00  0.00     0.017 A 
BRANCH  13  18
HETATM   18  O2  UNK     1       1.678   1.397  -0.108  1.00  0.00    -0.355 OA
HETATM   19  C16 UNK     1       1.841   0.899  -1.434  1.00  0.00     0.210 C 
ENDBRANCH  13  18
ENDBRANCH   3  12
BRANCH   6  20
HETATM   20  O3  UNK     1       0.974  -0.109   3.312  1.00  0.00    -0.355 OA
HETATM   21  H9  UNK     1       0.622   0.766   3.084  1.00  0.00     0.218 HD
ENDBRANCH   6  20
TORSDOF 3
