REMARK  7 active torsions:
REMARK  status: ('A' for Active; 'I' for Inactive)
REMARK    1  A    between atoms: C11_19  and  O2_3 
REMARK    2  A    between atoms: C7_15  and  O2_3 
REMARK    3  A    between atoms: C21_29  and  N1_6 
REMARK    4  A    between atoms: C4_12  and  N1_6 
REMARK       I    between atoms: C19_27  and  N2_7 
REMARK    5  A    between atoms: N2_7  and  N3_8 
REMARK    6  A    between atoms: C21_29  and  N3_8 
REMARK    7  A    between atoms: C19_27  and  C7_15 
ROOT
HETATM    1  O4  UNK     1      -5.116  -0.780   1.092  1.00  0.00    -0.269 OA
HETATM    2  N2  UNK     1      -3.603  -1.590  -0.469  1.00  0.00    -0.266 N 
HETATM    3  C19 UNK     1      -4.289  -1.614   0.732  1.00  0.00     0.265 C 
HETATM    4  H17 UNK     1      -3.061  -2.381  -0.795  1.00  0.00     0.190 HD
ENDROOT
BRANCH   2   5
HETATM    5  N3  UNK     1      -3.842  -0.566  -1.354  1.00  0.00    -0.273 N 
HETATM    6  H20 UNK     1      -4.774  -0.165  -1.348  1.00  0.00     0.189 HD
BRANCH   5   7
HETATM    7  C21 UNK     1      -2.855  -0.097  -2.217  1.00  0.00     0.191 C 
HETATM    8  S1  UNK     1      -3.272   1.176  -3.224  1.00  0.00    -0.039 SA
BRANCH   7   9
HETATM    9  N1  UNK     1      -1.625  -0.770  -2.104  1.00  0.00    -0.332 N 
HETATM   10  H9  UNK     1      -1.710  -1.709  -1.728  1.00  0.00     0.168 HD
BRANCH   9  11
HETATM   11  C4  UNK     1      -0.291  -0.402  -2.280  1.00  0.00     0.037 A 
HETATM   12  C6  UNK     1       0.031   0.894  -2.672  1.00  0.00     0.067 A 
HETATM   13  C2  UNK     1       1.372   1.241  -2.841  1.00  0.00     0.092 A 
HETATM   14  C1  UNK     1       2.410   0.331  -2.632  1.00  0.00     0.004 A 
HETATM   15  O1  UNK     1       1.635   2.567  -3.238  1.00  0.00    -0.275 OA
HETATM   16  C3  UNK     1       3.793   0.783  -2.834  1.00  0.00    -0.043 A 
HETATM   17  C5  UNK     1       2.065  -0.969  -2.238  1.00  0.00     0.017 A 
HETATM   18  C10 UNK     1       4.013   2.050  -3.211  1.00  0.00     0.090 A 
HETATM   19  C12 UNK     1       4.931  -0.171  -2.616  1.00  0.00     0.049 C 
HETATM   20  C18 UNK     1       2.930   3.022  -3.436  1.00  0.00     0.288 A 
HETATM   21  O3  UNK     1       3.169   4.173  -3.782  1.00  0.00    -0.260 OA
HETATM   22  C8  UNK     1       0.725  -1.332  -2.064  1.00  0.00     0.030 A 
ENDBRANCH   9  11
ENDBRANCH   7   9
ENDBRANCH   5   7
ENDBRANCH   2   5
BRANCH   3  23
HETATM   23  C7  UNK     1      -3.897  -2.804   1.595  1.00  0.00     0.218 C 
HETATM   24  C20 UNK     1      -5.111  -3.654   1.937  1.00  0.00     0.050 C 
BRANCH  23  25
HETATM   25  O2  UNK     1      -3.328  -2.336   2.805  1.00  0.00    -0.337 OA
BRANCH  25  26
HETATM   26  C11 UNK     1      -2.206  -1.551   2.702  1.00  0.00     0.070 A 
HETATM   27  C16 UNK     1      -1.065  -2.062   2.097  1.00  0.00     0.037 A 
HETATM   28  C14 UNK     1       0.075  -1.265   1.992  1.00  0.00     0.015 A 
HETATM   29  C9  UNK     1       0.064   0.036   2.494  1.00  0.00    -0.026 A 
HETATM   30  C13 UNK     1       1.247   0.863   2.385  1.00  0.00    -0.026 A 
HETATM   31  C15 UNK     1      -1.086   0.541   3.100  1.00  0.00     0.015 A 
HETATM   32  C22 UNK     1       2.201   0.852   3.403  1.00  0.00     0.012 A 
HETATM   33  C23 UNK     1       1.433   1.670   1.263  1.00  0.00     0.012 A 
HETATM   34  C24 UNK     1       3.341   1.649   3.298  1.00  0.00     0.001 A 
HETATM   35  C26 UNK     1       3.528   2.456   2.176  1.00  0.00     0.000 A 
HETATM   36  C25 UNK     1       2.573   2.467   1.159  1.00  0.00     0.001 A 
HETATM   37  C17 UNK     1      -2.226  -0.256   3.205  1.00  0.00     0.037 A 
ENDBRANCH  25  26
ENDBRANCH  23  25
ENDBRANCH   3  23
TORSDOF 7
