REMARK  4 active torsions:
REMARK  status: ('A' for Active; 'I' for Inactive)
REMARK    1  A    between atoms: C10_17  and  O1_2 
REMARK       I    between atoms: C11_18  and  N1_7 
REMARK    2  A    between atoms: C9_16  and  N1_7 
REMARK    3  A    between atoms: C10_17  and  C8_15 
REMARK    4  A    between atoms: C11_18  and  C12_19 
ROOT
HETATM    1  O4  UNK     1       0.191   0.574   2.205  1.00  0.00    -0.267 OA
HETATM    2  N1  UNK     1       0.006   0.439  -0.150  1.00  0.00    -0.316 N 
HETATM    3  C11 UNK     1      -0.403   0.237   1.188  1.00  0.00     0.262 C 
HETATM    4  H11 UNK     1      -0.603   0.082  -0.882  1.00  0.00     0.169 HD
ENDROOT
BRANCH   2   5
HETATM    5  C9  UNK     1       1.141   1.046  -0.617  1.00  0.00     0.094 A 
HETATM    6  C8  UNK     1       1.592   1.271  -1.897  1.00  0.00     0.080 A 
HETATM    7  C5  UNK     1       2.854   1.949  -1.926  1.00  0.00    -0.026 A 
HETATM    8  C3  UNK     1       3.585   2.325  -3.178  1.00  0.00     0.041 C 
HETATM    9  C7  UNK     1       3.308   2.212  -0.645  1.00  0.00    -0.008 A 
HETATM   10  C1  UNK     1       4.999   1.747  -3.249  1.00  0.00     0.005 C 
HETATM   11  C2  UNK     1       6.012   2.450  -2.340  1.00  0.00     0.001 C 
HETATM   12  C4  UNK     1       5.814   2.217  -0.839  1.00  0.00     0.005 C 
HETATM   13  C6  UNK     1       4.579   2.903  -0.254  1.00  0.00     0.046 C 
HETATM   14  S1  UNK     1       2.226   1.648   0.555  1.00  0.00    -0.075 SA
BRANCH   6  15
HETATM   15  C10 UNK     1       0.836   0.847  -3.051  1.00  0.00     0.296 C 
HETATM   16  O2  UNK     1       0.848   1.417  -4.157  1.00  0.00    -0.259 OA
BRANCH  15  17
HETATM   17  O1  UNK     1       0.089  -0.274  -2.793  1.00  0.00    -0.322 OA
HETATM   18  C17 UNK     1      -0.706  -0.794  -3.864  1.00  0.00     0.213 C 
ENDBRANCH  15  17
ENDBRANCH   6  15
ENDBRANCH   2   5
BRANCH   3  19
HETATM   19  C12 UNK     1      -1.700  -0.461   1.304  1.00  0.00     0.108 A 
HETATM   20  C15 UNK     1      -2.756  -0.333   0.275  1.00  0.00     0.304 A 
HETATM   21  O3  UNK     1      -3.934  -1.040   0.497  1.00  0.00    -0.274 OA
HETATM   22  O5  UNK     1      -2.605   0.359  -0.726  1.00  0.00    -0.259 OA
HETATM   23  C16 UNK     1      -4.117  -1.839   1.643  1.00  0.00     0.089 A 
HETATM   24  C14 UNK     1      -3.112  -1.945   2.598  1.00  0.00    -0.001 A 
HETATM   25  C19 UNK     1      -5.331  -2.510   1.777  1.00  0.00     0.038 A 
HETATM   26  C13 UNK     1      -1.868  -1.218   2.395  1.00  0.00     0.037 A 
HETATM   27  C18 UNK     1      -3.331  -2.746   3.721  1.00  0.00     0.014 A 
HETATM   28  C20 UNK     1      -4.544  -3.425   3.870  1.00  0.00     0.001 A 
HETATM   29  C21 UNK     1      -5.542  -3.307   2.900  1.00  0.00     0.003 A 
ENDBRANCH   3  19
TORSDOF 4
