REMARK  7 active torsions:
REMARK  status: ('A' for Active; 'I' for Inactive)
REMARK    1  A    between atoms: C15_23  and  O3_4 
REMARK    2  A    between atoms: C20_28  and  O3_4 
REMARK    3  A    between atoms: C5_13  and  N1_6 
REMARK    4  A    between atoms: C6_14  and  N2_7 
REMARK    5  A    between atoms: C17_25  and  N3_8 
REMARK       I    between atoms: C9_17  and  N3_8 
REMARK    6  A    between atoms: C5_13  and  C7_15 
REMARK    7  A    between atoms: C6_14  and  C9_17 
ROOT
HETATM    1  N1  UNK     1       1.383  -0.351  -0.691  1.00  0.00     0.096 N 
HETATM    2  N2  UNK     1      -0.493  -1.336   1.275  1.00  0.00     0.100 N 
HETATM    3  C1  UNK     1       1.838  -1.081   0.498  1.00  0.00     0.303 C 
HETATM    4  C2  UNK     1       0.035  -0.786  -1.075  1.00  0.00     0.303 C 
HETATM    5  C3  UNK     1       0.854  -0.899   1.659  1.00  0.00     0.303 C 
HETATM    6  C4  UNK     1      -0.949  -0.606   0.086  1.00  0.00     0.303 C 
ENDROOT
BRANCH   1   7
HETATM    7  C5  UNK     1       2.320  -0.527  -1.799  1.00  0.00     0.312 C 
BRANCH   7   8
HETATM    8  C7  UNK     1       2.223   0.573  -2.798  1.00  0.00    -0.011 A 
HETATM    9  C10 UNK     1       1.385   0.489  -3.841  1.00  0.00     0.092 A 
HETATM   10  C13 UNK     1       1.255   1.550  -4.854  1.00  0.00     0.288 A 
HETATM   11  O1  UNK     1       2.052   2.672  -4.687  1.00  0.00    -0.275 OA
HETATM   12  O4  UNK     1       0.477   1.439  -5.795  1.00  0.00    -0.260 OA
HETATM   13  C11 UNK     1       2.943   2.788  -3.601  1.00  0.00     0.090 A 
HETATM   14  C8  UNK     1       3.056   1.774  -2.649  1.00  0.00     0.009 A 
HETATM   15  C14 UNK     1       3.697   3.961  -3.535  1.00  0.00     0.041 A 
HETATM   16  C12 UNK     1       3.966   1.966  -1.601  1.00  0.00     0.051 A 
HETATM   17  C15 UNK     1       4.729   3.136  -1.521  1.00  0.00     0.069 A 
HETATM   18  C16 UNK     1       4.595   4.132  -2.486  1.00  0.00     0.039 A 
BRANCH  17  19
HETATM   19  O3  UNK     1       5.608   3.303  -0.494  1.00  0.00    -0.351 OA
BRANCH  19  20
HETATM   20  C20 UNK     1       5.285   2.672   0.745  1.00  0.00     0.171 C 
HETATM   21  C24 UNK     1       5.874   3.483   1.879  1.00  0.00     0.034 C 
ENDBRANCH  19  20
ENDBRANCH  17  19
ENDBRANCH   7   8
ENDBRANCH   1   7
BRANCH   2  22
HETATM   22  C6  UNK     1      -1.431  -1.162   2.383  1.00  0.00     0.375 C 
BRANCH  22  23
HETATM   23  C9  UNK     1      -2.613  -2.098   2.196  1.00  0.00     0.250 C 
HETATM   24  O2  UNK     1      -2.516  -3.181   1.628  1.00  0.00    -0.271 OA
HETATM   25  N3  UNK     1      -3.761  -1.542   2.757  1.00  0.00    -0.323 N 
HETATM   26  H15 UNK     1      -3.679  -0.631   3.204  1.00  0.00     0.169 HD
BRANCH  25  27
HETATM   27  C17 UNK     1      -5.062  -2.098   2.791  1.00  0.00     0.073 A 
HETATM   28  C18 UNK     1      -6.106  -1.399   3.397  1.00  0.00     0.143 A 
HETATM   29  F1  UNK     1      -5.890  -0.198   3.953  1.00  0.00    -0.204 F 
HETATM   30  C21 UNK     1      -7.388  -1.949   3.428  1.00  0.00     0.044 A 
HETATM   31  C23 UNK     1      -7.625  -3.198   2.853  1.00  0.00     0.003 A 
HETATM   32  C22 UNK     1      -6.581  -3.896   2.247  1.00  0.00     0.002 A 
HETATM   33  C19 UNK     1      -5.299  -3.346   2.216  1.00  0.00     0.033 A 
ENDBRANCH  25  27
ENDBRANCH  22  23
ENDBRANCH   2  22
TORSDOF 7
