REMARK  2 active torsions:
REMARK  status: ('A' for Active; 'I' for Inactive)
REMARK    1  A    between atoms: C11_18  and  O4_5 
REMARK       I    between atoms: C5_12  and  N1_7 
REMARK    2  A    between atoms: C5_12  and  C6_13 
ROOT
HETATM    1 Cl1  UNK     1       1.696   2.025  -4.976  1.00  0.00    -0.084 Cl
HETATM    2  O2  UNK     1       1.718   0.671   0.765  1.00  0.00    -0.271 OA
HETATM    3  O5  UNK     1       0.594   0.135   2.681  1.00  0.00    -0.259 OA
HETATM    4  C6  UNK     1      -0.721   0.491   0.742  1.00  0.00     0.108 A 
HETATM    5  C7  UNK     1       0.473   1.061  -1.287  1.00  0.00     0.004 A 
HETATM    6  C8  UNK     1      -0.759   0.796  -0.560  1.00  0.00     0.037 A 
HETATM    7  C9  UNK     1       1.684   0.992  -0.606  1.00  0.00     0.123 A 
HETATM    8  C10 UNK     1       0.556   0.412   1.487  1.00  0.00     0.304 A 
HETATM    9  C11 UNK     1       2.899   1.235  -1.244  1.00  0.00     0.104 A 
HETATM   10  C12 UNK     1       0.481   1.383  -2.646  1.00  0.00     0.038 A 
HETATM   11  C13 UNK     1       2.898   1.555  -2.600  1.00  0.00     0.063 A 
HETATM   12  C14 UNK     1       1.692   1.629  -3.300  1.00  0.00     0.037 A 
ENDROOT
BRANCH   4  13
HETATM   13  C5  UNK     1      -2.023   0.239   1.391  1.00  0.00     0.260 C 
HETATM   14  O3  UNK     1      -2.604   1.203   1.894  1.00  0.00    -0.267 OA
HETATM   15  N1  UNK     1      -2.508  -1.064   1.397  1.00  0.00    -0.344 N 
HETATM   16  C1  UNK     1      -3.795  -1.348   2.035  1.00  0.00     0.152 C 
HETATM   17  C2  UNK     1      -1.802  -2.269   0.941  1.00  0.00     0.152 C 
HETATM   18  C3  UNK     1      -4.643  -2.239   1.137  1.00  0.00     0.187 C 
HETATM   19  O1  UNK     1      -3.926  -3.429   0.800  1.00  0.00    -0.388 OA
HETATM   20  C4  UNK     1      -2.726  -3.124   0.084  1.00  0.00     0.187 C 
ENDBRANCH   4  13
BRANCH   9  21
HETATM   21  O4  UNK     1       4.076   1.164  -0.566  1.00  0.00    -0.353 OA
HETATM   22  C15 UNK     1       5.269   1.428  -1.304  1.00  0.00     0.210 C 
ENDBRANCH   9  21
TORSDOF 2
