REMARK  4 active torsions:
REMARK  status: ('A' for Active; 'I' for Inactive)
REMARK    1  A    between atoms: C10_16  and  N1_5 
REMARK    2  A    between atoms: C11_17  and  N1_5 
REMARK    3  A    between atoms: C11_17  and  C9_15 
REMARK    4  A    between atoms: C12_18  and  C9_15 
ROOT
HETATM    1  O1  UNK     1       2.559   3.194  -1.382  1.00  0.00    -0.332 OA
HETATM    2  O2  UNK     1       0.969  -1.107   0.250  1.00  0.00    -0.274 OA
HETATM    3  O3  UNK     1       2.431   0.991  -4.239  1.00  0.00    -0.289 OA
HETATM    4  O4  UNK     1       0.297  -3.132   1.083  1.00  0.00    -0.260 OA
HETATM    5  C1  UNK     1       3.107   2.599  -2.560  1.00  0.00     0.125 C 
HETATM    6  C2  UNK     1       1.672   1.044  -0.650  1.00  0.00     0.048 A 
HETATM    7  C3  UNK     1       1.508   0.662  -2.062  1.00  0.00     0.044 C 
HETATM    8  C4  UNK     1       2.341   1.377  -3.076  1.00  0.00     0.196 C 
HETATM    9  C5  UNK     1       2.179   2.325  -0.392  1.00  0.00     0.084 A 
HETATM   10  C6  UNK     1       3.053   3.696  -3.631  1.00  0.00     0.055 C 
HETATM   11  C7  UNK     1       4.570   2.211  -2.308  1.00  0.00     0.055 C 
HETATM   12  C8  UNK     1       1.381   0.232   0.460  1.00  0.00     0.103 A 
HETATM   13  C10 UNK     1       0.587  -0.193  -2.533  1.00  0.00     0.099 C 
HETATM   14  C13 UNK     1       1.517   0.693   1.774  1.00  0.00    -0.001 A 
HETATM   15  C14 UNK     1       2.296   2.809   0.916  1.00  0.00     0.039 A 
HETATM   16  C16 UNK     1       1.964   1.995   1.997  1.00  0.00     0.017 A 
HETATM   17  C19 UNK     1       1.192  -0.194   2.880  1.00  0.00     0.020 A 
HETATM   18  C22 UNK     1       0.789  -1.445   2.652  1.00  0.00     0.083 A 
HETATM   19  C23 UNK     1       0.659  -1.979   1.287  1.00  0.00     0.288 A 
ENDROOT
BRANCH  13  20
HETATM   20  N1  UNK     1      -0.355  -0.862  -1.830  1.00  0.00    -0.398 N 
HETATM   21  H13 UNK     1      -0.485  -0.618  -0.857  1.00  0.00     0.158 HD
BRANCH  20  22
HETATM   22  C11 UNK     1      -1.291  -1.793  -2.422  1.00  0.00     0.123 C 
BRANCH  22  23
HETATM   23  C9  UNK     1      -2.228  -2.376  -1.364  1.00  0.00     0.060 C 
BRANCH  23  24
HETATM   24  C12 UNK     1      -3.054  -1.336  -0.661  1.00  0.00    -0.029 A 
HETATM   25  C15 UNK     1      -3.275  -1.262   0.727  1.00  0.00    -0.002 A 
HETATM   26  C17 UNK     1      -4.092  -0.149   0.934  1.00  0.00     0.042 A 
HETATM   27  C20 UNK     1      -2.869  -2.022   1.843  1.00  0.00     0.014 A 
HETATM   28  N2  UNK     1      -4.339   0.407  -0.301  1.00  0.00    -0.365 N 
HETATM   29  C21 UNK     1      -4.526   0.244   2.205  1.00  0.00     0.030 A 
HETATM   30  C18 UNK     1      -3.707  -0.314  -1.278  1.00  0.00     0.096 A 
HETATM   31  H16 UNK     1      -4.905   1.229  -0.461  1.00  0.00     0.165 HD
HETATM   32  C25 UNK     1      -4.111  -0.525   3.296  1.00  0.00     0.002 A 
HETATM   33  C24 UNK     1      -3.295  -1.641   3.120  1.00  0.00     0.001 A 
ENDBRANCH  23  24
ENDBRANCH  22  23
ENDBRANCH  20  22
ENDBRANCH  13  20
TORSDOF 4
