REMARK  2 active torsions:
REMARK  status: ('A' for Active; 'I' for Inactive)
REMARK    1  A    between atoms: C11_18  and  N1_5 
REMARK       I    between atoms: C8_15  and  N1_5 
REMARK    2  A    between atoms: C3_10  and  C8_15 
ROOT
HETATM    1  O1  UNK     1       1.288   0.651  -2.718  1.00  0.00    -0.274 OA
HETATM    2  O2  UNK     1      -0.476  -0.773  -2.429  1.00  0.00    -0.259 OA
HETATM    3  C1  UNK     1       2.457   1.525  -0.774  1.00  0.00    -0.001 A 
HETATM    4  C2  UNK     1       2.303   1.448  -2.155  1.00  0.00     0.089 A 
HETATM    5  C3  UNK     1       0.588   0.015  -0.463  1.00  0.00     0.108 A 
HETATM    6  C4  UNK     1       1.552   0.770   0.078  1.00  0.00     0.037 A 
HETATM    7  C5  UNK     1       3.477   2.325  -0.253  1.00  0.00     0.014 A 
HETATM    8  C6  UNK     1       0.407  -0.083  -1.929  1.00  0.00     0.304 A 
HETATM    9  C7  UNK     1       3.137   2.147  -3.026  1.00  0.00     0.038 A 
HETATM   10  C9  UNK     1       4.321   3.032  -1.115  1.00  0.00     0.001 A 
HETATM   11  C10 UNK     1       4.151   2.943  -2.498  1.00  0.00     0.003 A 
ENDROOT
BRANCH   5  12
HETATM   12  C8  UNK     1      -0.275  -0.709   0.478  1.00  0.00     0.263 C 
HETATM   13  O3  UNK     1       0.224  -1.523   1.254  1.00  0.00    -0.267 OA
HETATM   14  N1  UNK     1      -1.606  -0.343   0.345  1.00  0.00    -0.300 N 
HETATM   15  H6  UNK     1      -1.865   0.355  -0.348  1.00  0.00     0.171 HD
BRANCH  14  16
HETATM   16  C11 UNK     1      -2.678  -0.845   1.090  1.00  0.00     0.193 A 
HETATM   17  S1  UNK     1      -4.243  -0.235   0.741  1.00  0.00     0.052 SA
HETATM   18  N3  UNK     1      -4.976  -1.188   1.905  1.00  0.00    -0.193 NA
HETATM   19  C12 UNK     1      -3.995  -1.893   2.469  1.00  0.00     0.133 A 
HETATM   20  C13 UNK     1      -4.307  -2.844   3.550  1.00  0.00     0.094 C 
HETATM   21  N2  UNK     1      -2.684  -1.742   2.052  1.00  0.00    -0.207 NA
ENDBRANCH  14  16
ENDBRANCH   5  12
TORSDOF 2
