REMARK  4 active torsions:
REMARK  status: ('A' for Active; 'I' for Inactive)
REMARK    1  A    between atoms: C19_22  and  O1_1 
REMARK    2  A    between atoms: C14_17  and  C7_10 
REMARK    3  A    between atoms: C16_19  and  C20_23 
REMARK    4  A    between atoms: C18_21  and  C20_23 
ROOT
HETATM    1  C14 UNK     1      -0.892  -0.604  -3.605  1.00  0.00     0.015 C 
HETATM    2  C18 UNK     1       0.399  -0.955  -3.804  1.00  0.00     0.056 C 
ENDROOT
BRANCH   1   3
HETATM    3  C7  UNK     1      -1.465  -0.206  -2.329  1.00  0.00    -0.035 A 
HETATM    4  C11 UNK     1      -2.035   1.058  -2.191  1.00  0.00     0.013 A 
HETATM    5  C6  UNK     1      -2.594   1.466  -0.977  1.00  0.00     0.031 A 
HETATM    6  C2  UNK     1      -2.560   0.561   0.091  1.00  0.00     0.045 A 
HETATM    7  C1  UNK     1      -1.996  -0.711  -0.016  1.00  0.00     0.004 A 
HETATM    8  N1  UNK     1      -3.027   0.692   1.377  1.00  0.00    -0.350 N 
HETATM    9  C3  UNK     1      -2.139  -1.349   1.256  1.00  0.00     0.003 A 
HETATM   10  C5  UNK     1      -1.438  -1.099  -1.252  1.00  0.00     0.026 A 
HETATM   11  C4  UNK     1      -2.786  -0.450   2.104  1.00  0.00     0.045 A 
HETATM   12  C8  UNK     1      -1.776  -2.614   1.766  1.00  0.00     0.014 A 
HETATM   13  C9  UNK     1      -3.090  -0.750   3.436  1.00  0.00     0.030 A 
HETATM   14  C13 UNK     1      -2.721  -2.008   3.918  1.00  0.00     0.002 A 
HETATM   15  C12 UNK     1      -2.073  -2.928   3.097  1.00  0.00     0.001 A 
HETATM   16  C10 UNK     1      -3.686   1.874   1.896  1.00  0.00     0.156 C 
ENDBRANCH   1   3
BRANCH   2  17
HETATM   17  C20 UNK     1       1.361  -0.955  -2.667  1.00  0.00     0.184 C 
HETATM   18  O2  UNK     1       1.957  -1.963  -2.306  1.00  0.00    -0.287 OA
BRANCH  17  19
HETATM   19  C16 UNK     1       1.615   0.335  -1.981  1.00  0.00     0.048 A 
HETATM   20  C19 UNK     1       1.952   0.376  -0.628  1.00  0.00     0.090 A 
HETATM   21  C15 UNK     1       2.191   1.602   0.015  1.00  0.00     0.008 A 
HETATM   22  C17 UNK     1       2.086   2.803  -0.726  1.00  0.00    -0.023 A 
HETATM   23  C23 UNK     1       2.531   1.662   1.376  1.00  0.00     0.015 A 
HETATM   24  C22 UNK     1       1.746   2.743  -2.087  1.00  0.00     0.013 A 
HETATM   25  C24 UNK     1       2.325   4.029  -0.084  1.00  0.00     0.012 A 
HETATM   26  C21 UNK     1       1.512   1.517  -2.709  1.00  0.00     0.019 A 
HETATM   27  C26 UNK     1       2.662   4.070   1.269  1.00  0.00     0.001 A 
HETATM   28  C25 UNK     1       2.765   2.889   1.998  1.00  0.00     0.001 A 
BRANCH  20  29
HETATM   29  O1  UNK     1       2.048  -0.800   0.064  1.00  0.00    -0.359 OA
HETATM   30  H19 UNK     1       1.697  -1.540  -0.455  1.00  0.00     0.217 HD
ENDBRANCH  20  29
ENDBRANCH  17  19
ENDBRANCH   2  17
TORSDOF 4
