REMARK  3 active torsions:
REMARK  status: ('A' for Active; 'I' for Inactive)
REMARK    1  A    between atoms: C7_13  and  O2_2 
REMARK    2  A    between atoms: C5_11  and  N1_5 
REMARK       I    between atoms: C6_12  and  N2_6 
REMARK    3  A    between atoms: C6_12  and  C8_14 
ROOT
HETATM    1  O1  UNK     1       1.953   1.947   1.967  1.00  0.00    -0.267 OA
HETATM    2  N1  UNK     1      -2.101  -0.661   1.395  1.00  0.00    -0.376 N 
HETATM    3  N2  UNK     1       0.029   1.134   0.948  1.00  0.00    -0.345 N 
HETATM    4  C1  UNK     1      -1.414  -0.048   2.545  1.00  0.00     0.143 C 
HETATM    5  C2  UNK     1      -1.324  -0.756   0.150  1.00  0.00     0.143 C 
HETATM    6  C3  UNK     1      -0.792   1.290   2.146  1.00  0.00     0.146 C 
HETATM    7  C4  UNK     1      -0.715   0.602  -0.197  1.00  0.00     0.146 C 
HETATM    8  C6  UNK     1       1.370   1.502   0.977  1.00  0.00     0.260 C 
ENDROOT
BRANCH   8   9
HETATM    9  C8  UNK     1       2.154   1.345  -0.264  1.00  0.00     0.108 A 
HETATM   10  C10 UNK     1       2.169   2.397  -1.091  1.00  0.00     0.037 A 
HETATM   11  C14 UNK     1       2.914   2.339  -2.339  1.00  0.00    -0.001 A 
HETATM   12  C16 UNK     1       3.607   1.174  -2.655  1.00  0.00     0.089 A 
HETATM   13  C17 UNK     1       2.957   3.412  -3.232  1.00  0.00     0.014 A 
HETATM   14  O3  UNK     1       3.588   0.071  -1.780  1.00  0.00    -0.274 OA
HETATM   15  C18 UNK     1       4.339   1.053  -3.834  1.00  0.00     0.038 A 
HETATM   16  C13 UNK     1       2.884   0.097  -0.579  1.00  0.00     0.304 A 
HETATM   17  O4  UNK     1       2.873  -0.869   0.176  1.00  0.00    -0.259 OA
HETATM   18  C21 UNK     1       4.377   2.128  -4.719  1.00  0.00     0.003 A 
HETATM   19  C20 UNK     1       3.688   3.305  -4.419  1.00  0.00     0.001 A 
ENDBRANCH   8   9
BRANCH   2  20
HETATM   20  C5  UNK     1      -3.093  -1.613   1.663  1.00  0.00     0.064 A 
HETATM   21  C7  UNK     1      -4.202  -1.803   0.804  1.00  0.00     0.094 A 
HETATM   22  C11 UNK     1      -5.183  -2.755   1.082  1.00  0.00     0.039 A 
HETATM   23  C15 UNK     1      -5.083  -3.545   2.227  1.00  0.00     0.003 A 
HETATM   24  C12 UNK     1      -4.002  -3.383   3.094  1.00  0.00     0.002 A 
HETATM   25  C9  UNK     1      -3.022  -2.431   2.816  1.00  0.00     0.032 A 
BRANCH  21  26
HETATM   26  O2  UNK     1      -4.318  -1.041  -0.321  1.00  0.00    -0.354 OA
HETATM   27  C19 UNK     1      -5.456  -1.277  -1.148  1.00  0.00     0.210 C 
ENDBRANCH  21  26
ENDBRANCH   2  20
TORSDOF 3
