REMARK  5 active torsions:
REMARK  status: ('A' for Active; 'I' for Inactive)
REMARK    1  A    between atoms: C17_23  and  O2_2 
REMARK    2  A    between atoms: C18_24  and  O2_2 
REMARK    3  A    between atoms: C3_9  and  N1_6 
REMARK       I    between atoms: C7_13  and  N1_6 
REMARK    4  A    between atoms: C2_8  and  C7_13 
REMARK    5  A    between atoms: C17_23  and  C6_12 
ROOT
HETATM    1  O3  UNK     1      -1.114   0.476  -2.693  1.00  0.00    -0.267 OA
HETATM    2  N1  UNK     1      -1.073  -0.260  -0.456  1.00  0.00    -0.322 N 
HETATM    3  C7  UNK     1      -0.577   0.365  -1.592  1.00  0.00     0.262 C 
HETATM    4  H2  UNK     1      -0.482  -0.276   0.370  1.00  0.00     0.169 HD
ENDROOT
BRANCH   2   5
HETATM    5  C3  UNK     1      -2.319  -0.918  -0.306  1.00  0.00     0.051 A 
HETATM    6  C10 UNK     1      -3.173  -0.965  -1.397  1.00  0.00     0.030 A 
HETATM    7  C15 UNK     1      -4.405  -1.606  -1.272  1.00  0.00     0.002 A 
HETATM    8  C16 UNK     1      -4.768  -2.192  -0.059  1.00  0.00     0.001 A 
HETATM    9  C12 UNK     1      -3.897  -2.135   1.030  1.00  0.00     0.020 A 
HETATM   10  C6  UNK     1      -2.665  -1.494   0.905  1.00  0.00     0.066 A 
BRANCH  10  11
HETATM   11  C17 UNK     1      -1.778  -1.455   2.061  1.00  0.00     0.295 C 
HETATM   12  O5  UNK     1      -0.550  -1.426   2.013  1.00  0.00    -0.259 OA
BRANCH  11  13
HETATM   13  O2  UNK     1      -2.493  -1.455   3.230  1.00  0.00    -0.318 OA
BRANCH  13  14
HETATM   14  C18 UNK     1      -1.727  -1.418   4.440  1.00  0.00     0.174 C 
HETATM   15  C19 UNK     1      -2.671  -1.423   5.623  1.00  0.00     0.034 C 
ENDBRANCH  13  14
ENDBRANCH  11  13
ENDBRANCH  10  11
ENDBRANCH   2   5
BRANCH   3  16
HETATM   16  C2  UNK     1       0.755   0.940  -1.370  1.00  0.00     0.108 A 
HETATM   17  C5  UNK     1       1.560   0.996  -2.437  1.00  0.00     0.037 A 
HETATM   18  C1  UNK     1       2.900   1.549  -2.316  1.00  0.00    -0.001 A 
HETATM   19  C4  UNK     1       3.326   2.016  -1.077  1.00  0.00     0.089 A 
HETATM   20  C8  UNK     1       3.775   1.627  -3.403  1.00  0.00     0.014 A 
HETATM   21  C11 UNK     1       4.597   2.557  -0.894  1.00  0.00     0.038 A 
HETATM   22  O1  UNK     1       2.474   1.955   0.043  1.00  0.00    -0.274 OA
HETATM   23  C14 UNK     1       5.463   2.631  -1.983  1.00  0.00     0.003 A 
HETATM   24  C13 UNK     1       5.053   2.167  -3.235  1.00  0.00     0.001 A 
HETATM   25  C9  UNK     1       1.187   1.432  -0.042  1.00  0.00     0.304 A 
HETATM   26  O4  UNK     1       0.452   1.382   0.939  1.00  0.00    -0.259 OA
ENDBRANCH   3  16
TORSDOF 5
