REMARK  2 active torsions:
REMARK  status: ('A' for Active; 'I' for Inactive)
REMARK    1  A    between atoms: C1_4  and  C3_6 
REMARK    2  A    between atoms: C2_5  and  C4_7 
ROOT
HETATM    1  N1  UNK     1       1.865  -1.519   0.645  1.00  0.00    -0.191 NA
HETATM    2  C3  UNK     1      -0.303  -0.198   0.127  1.00  0.00     0.055 C 
HETATM    3  C4  UNK     1      -0.198   0.879  -0.654  1.00  0.00     0.034 C 
HETATM    4  C15 UNK     1       0.895  -0.926   0.412  1.00  0.00     0.100 C 
ENDROOT
BRANCH   2   5
HETATM    5  C1  UNK     1      -1.566  -0.701   0.706  1.00  0.00    -0.015 A 
HETATM    6  C5  UNK     1      -1.963  -0.250   1.953  1.00  0.00     0.014 A 
HETATM    7  C9  UNK     1      -3.154  -0.726   2.500  1.00  0.00     0.020 A 
HETATM    8  C13 UNK     1      -3.930  -1.645   1.792  1.00  0.00     0.011 A 
HETATM    9 Br1  UNK     1      -5.543  -2.291   2.534  1.00  0.00    -0.051 Br
HETATM   10  C10 UNK     1      -3.513  -2.087   0.536  1.00  0.00     0.020 A 
HETATM   11  C6  UNK     1      -2.321  -1.611  -0.011  1.00  0.00     0.014 A 
ENDBRANCH   2   5
BRANCH   3  12
HETATM   12  C2  UNK     1       1.058   1.341  -1.223  1.00  0.00    -0.035 A 
HETATM   13  C7  UNK     1       1.863   2.227  -0.507  1.00  0.00     0.013 A 
HETATM   14  C11 UNK     1       3.068   2.671  -1.053  1.00  0.00     0.024 A 
HETATM   15  C14 UNK     1       3.468   2.228  -2.314  1.00  0.00     0.034 A 
HETATM   16  C12 UNK     1       2.662   1.342  -3.029  1.00  0.00     0.024 A 
HETATM   17 Cl1  UNK     1       4.953   2.776  -2.987  1.00  0.00    -0.084 Cl
HETATM   18  C8  UNK     1       1.457   0.899  -2.484  1.00  0.00     0.013 A 
ENDBRANCH   3  12
TORSDOF 2
