REMARK  4 active torsions:
REMARK  status: ('A' for Active; 'I' for Inactive)
REMARK    1  A    between atoms: C10_15  and  O2_2 
REMARK    2  A    between atoms: C3_8  and  O2_2 
REMARK    3  A    between atoms: C11_16  and  O4_4 
REMARK    4  A    between atoms: C10_15  and  C11_16 
ROOT
HETATM    1  O1  UNK     1       2.307   0.932   0.676  1.00  0.00    -0.322 OA
HETATM    2  O3  UNK     1       2.240   2.045  -3.249  1.00  0.00    -0.287 OA
HETATM    3  C1  UNK     1       1.174   0.896  -1.476  1.00  0.00     0.048 A 
HETATM    4  C2  UNK     1       1.259   0.549  -0.125  1.00  0.00     0.091 A 
HETATM    5  C3  UNK     1      -0.838  -0.633  -0.302  1.00  0.00     0.072 A 
HETATM    6  C4  UNK     1       0.252  -0.216   0.463  1.00  0.00     0.075 A 
HETATM    7  C5  UNK     1       0.084   0.480  -2.244  1.00  0.00     0.021 A 
HETATM    8  C6  UNK     1      -0.921  -0.285  -1.652  1.00  0.00     0.038 A 
HETATM    9  C7  UNK     1       2.251   1.706  -2.074  1.00  0.00     0.186 A 
HETATM   10  C8  UNK     1       3.352   2.091  -1.170  1.00  0.00     0.080 A 
HETATM   11  C9  UNK     1       3.301   1.687   0.101  1.00  0.00     0.146 A 
ENDROOT
BRANCH   5  12
HETATM   12  O2  UNK     1      -1.823  -1.380   0.268  1.00  0.00    -0.341 OA
BRANCH  12  13
HETATM   13  C10 UNK     1      -2.071  -1.175   1.658  1.00  0.00     0.285 C 
BRANCH  13  14
HETATM   14  C11 UNK     1      -3.515  -1.462   1.965  1.00  0.00     0.164 C 
HETATM   15  O5  UNK     1      -4.365  -1.795   1.153  1.00  0.00    -0.648 OA
BRANCH  14  16
HETATM   16  O4  UNK     1      -3.753  -1.298   3.290  1.00  0.00    -0.775 OA
HETATM   17  H8  UNK     1      -4.690  -1.480   3.519  1.00  0.00     0.167 HD
ENDBRANCH  14  16
ENDBRANCH  13  14
ENDBRANCH  12  13
ENDBRANCH   5  12
TORSDOF 4
