REMARK  2 active torsions:
REMARK  status: ('A' for Active; 'I' for Inactive)
REMARK    1  A    between atoms: C8_14  and  N1_4 
REMARK    2  A    between atoms: C1_7  and  C5_11 
ROOT
HETATM    1  O1  UNK     1      -0.516   0.653  -2.148  1.00  0.00    -0.291 OA
HETATM    2  O2  UNK     1       2.755   0.296   0.437  1.00  0.00    -0.274 OA
HETATM    3  O3  UNK     1       1.634  -1.281   1.643  1.00  0.00    -0.259 OA
HETATM    4  N3  UNK     1      -3.822  -2.659  -1.007  1.00  0.00    -0.191 NA
HETATM    5  C1  UNK     1      -0.786  -1.126   0.090  1.00  0.00     0.109 C 
HETATM    6  C2  UNK     1       0.469  -0.322  -0.195  1.00  0.00     0.066 A 
HETATM    7  C3  UNK     1       0.528   0.502  -1.253  1.00  0.00     0.104 A 
HETATM    8  C4  UNK     1      -1.789  -1.053  -1.057  1.00  0.00     0.086 C 
HETATM    9  C6  UNK     1       1.719   1.304  -1.521  1.00  0.00     0.033 A 
HETATM   10  C7  UNK     1       1.640  -0.490   0.705  1.00  0.00     0.298 A 
HETATM   11  C8  UNK     1      -1.623  -0.191  -2.086  1.00  0.00     0.159 C 
HETATM   12  C9  UNK     1       2.804   1.180  -0.658  1.00  0.00     0.092 A 
HETATM   13  C12 UNK     1       1.828   2.194  -2.596  1.00  0.00     0.017 A 
HETATM   14  C13 UNK     1       3.979   1.911  -0.834  1.00  0.00     0.038 A 
HETATM   15  C14 UNK     1       3.000   2.933  -2.787  1.00  0.00     0.001 A 
HETATM   16  C15 UNK     1      -2.912  -1.940  -1.029  1.00  0.00     0.100 C 
HETATM   17  C16 UNK     1       4.073   2.792  -1.907  1.00  0.00     0.003 A 
ENDROOT
BRANCH   5  18
HETATM   18  C5  UNK     1      -1.427  -0.665   1.367  1.00  0.00    -0.041 A 
HETATM   19  C10 UNK     1      -1.553  -1.545   2.429  1.00  0.00     0.027 A 
HETATM   20  C17 UNK     1      -2.151  -1.071   3.586  1.00  0.00     0.116 A 
HETATM   21  N2  UNK     1      -2.614   0.190   3.736  1.00  0.00    -0.273 NA
HETATM   22  C18 UNK     1      -2.470   1.014   2.674  1.00  0.00     0.116 A 
HETATM   23  C11 UNK     1      -1.887   0.637   1.474  1.00  0.00     0.027 A 
ENDBRANCH   5  18
BRANCH  11  24
HETATM   24  N1  UNK     1      -2.481  -0.051  -3.143  1.00  0.00    -0.379 N 
HETATM   25  H8  UNK     1      -2.261   0.625  -3.863  1.00  0.00     0.158 HD
HETATM   26  H9  UNK     1      -3.322  -0.609  -3.209  1.00  0.00     0.158 HD
ENDBRANCH  11  24
TORSDOF 2
