REMARK  3 active torsions:
REMARK  status: ('A' for Active; 'I' for Inactive)
REMARK    1  A    between atoms: C5_10  and  N1_5 
REMARK       I    between atoms: C6_11  and  N1_5 
REMARK    2  A    between atoms: C2_7  and  C6_11 
REMARK    3  A    between atoms: C5_10  and  C7_12 
ROOT
HETATM    1  O1  UNK     1       0.836   0.668  -2.485  1.00  0.00    -0.274 OA
HETATM    2  O4  UNK     1      -0.941  -0.537  -1.701  1.00  0.00    -0.259 OA
HETATM    3  C1  UNK     1       2.484   1.531  -0.920  1.00  0.00    -0.001 A 
HETATM    4  C2  UNK     1       0.602   0.253  -0.086  1.00  0.00     0.108 A 
HETATM    5  C3  UNK     1       2.020   1.384  -2.223  1.00  0.00     0.089 A 
HETATM    6  C4  UNK     1       1.727   0.933   0.168  1.00  0.00     0.037 A 
HETATM    7  C8  UNK     1       3.663   2.249  -0.701  1.00  0.00     0.014 A 
HETATM    8  C9  UNK     1       0.090   0.084  -1.464  1.00  0.00     0.304 A 
HETATM    9  C10 UNK     1       2.698   1.933  -3.310  1.00  0.00     0.038 A 
HETATM   10  C11 UNK     1       4.354   2.805  -1.781  1.00  0.00     0.001 A 
HETATM   11  C12 UNK     1       3.872   2.647  -3.083  1.00  0.00     0.003 A 
ENDROOT
BRANCH   4  12
HETATM   12  C6  UNK     1      -0.091  -0.313   1.077  1.00  0.00     0.258 C 
HETATM   13  O3  UNK     1      -0.024   0.231   2.178  1.00  0.00    -0.267 OA
HETATM   14  N1  UNK     1      -0.784  -1.472   0.779  1.00  0.00    -0.351 N 
HETATM   15  H4  UNK     1      -0.765  -1.852  -0.162  1.00  0.00     0.163 HD
BRANCH  14  16
HETATM   16  C5  UNK     1      -1.541  -2.212   1.763  1.00  0.00     0.187 C 
BRANCH  16  17
HETATM   17  C7  UNK     1      -2.978  -1.779   1.807  1.00  0.00     0.070 A 
HETATM   18  C13 UNK     1      -3.741  -1.264   2.800  1.00  0.00     0.036 A 
HETATM   19  C14 UNK     1      -5.016  -1.062   2.219  1.00  0.00     0.027 A 
HETATM   20  C15 UNK     1      -4.911  -1.478   0.912  1.00  0.00     0.142 A 
HETATM   21  O2  UNK     1      -3.653  -1.922   0.653  1.00  0.00    -0.325 OA
ENDBRANCH  16  17
ENDBRANCH  14  16
ENDBRANCH   4  12
TORSDOF 3
