REMARK  3 active torsions:
REMARK  status: ('A' for Active; 'I' for Inactive)
REMARK    1  A    between atoms: C3_11  and  N1_7 
REMARK       I    between atoms: C14_22  and  N2_8 
REMARK    2  A    between atoms: C16_24  and  N2_8 
REMARK    3  A    between atoms: C12_20  and  C14_22 
ROOT
HETATM    1  F1  UNK     1      -3.379  -1.194  -0.690  1.00  0.00    -0.201 F 
HETATM    2  F2  UNK     1      -1.813  -1.340   3.789  1.00  0.00    -0.204 F 
HETATM    3  O2  UNK     1      -1.249   0.272  -1.437  1.00  0.00    -0.310 OA
HETATM    4  O3  UNK     1       1.628   1.353   1.227  1.00  0.00    -0.286 OA
HETATM    5  C3  UNK     1      -2.622  -1.283   1.557  1.00  0.00     0.111 A 
HETATM    6  C6  UNK     1      -2.464  -0.867   0.235  1.00  0.00     0.180 A 
HETATM    7  C7  UNK     1      -1.349  -0.108  -0.125  1.00  0.00     0.131 A 
HETATM    8  C8  UNK     1      -1.669  -0.942   2.517  1.00  0.00     0.147 A 
HETATM    9  C9  UNK     1      -0.400   0.231   0.832  1.00  0.00     0.055 A 
HETATM   10  C10 UNK     1      -0.554  -0.184   2.157  1.00  0.00     0.063 A 
HETATM   11  C11 UNK     1       0.763   1.030   0.422  1.00  0.00     0.203 A 
HETATM   12  C12 UNK     1       0.833   1.419  -1.010  1.00  0.00     0.112 A 
HETATM   13  C13 UNK     1      -0.156   1.030  -1.839  1.00  0.00     0.069 A 
HETATM   14  C15 UNK     1      -0.217   1.366  -3.302  1.00  0.00     0.078 C 
ENDROOT
BRANCH  12  15
HETATM   15  C14 UNK     1       1.967   2.209  -1.514  1.00  0.00     0.262 C 
HETATM   16  O4  UNK     1       1.904   3.436  -1.504  1.00  0.00    -0.267 OA
HETATM   17  N2  UNK     1       3.007   1.405  -1.955  1.00  0.00    -0.323 N 
HETATM   18  H13 UNK     1       2.884   0.396  -1.888  1.00  0.00     0.169 HD
BRANCH  17  19
HETATM   19  C16 UNK     1       4.246   1.821  -2.501  1.00  0.00     0.035 A 
HETATM   20  C17 UNK     1       4.507   3.174  -2.633  1.00  0.00     0.029 A 
HETATM   21  C19 UNK     1       5.727   3.583  -3.171  1.00  0.00     0.002 A 
HETATM   22  C21 UNK     1       6.668   2.633  -3.568  1.00  0.00     0.000 A 
HETATM   23  C20 UNK     1       6.389   1.274  -3.427  1.00  0.00     0.002 A 
HETATM   24  C18 UNK     1       5.169   0.864  -2.890  1.00  0.00     0.029 A 
ENDBRANCH  17  19
ENDBRANCH  12  15
BRANCH   5  25
HETATM   25  N1  UNK     1      -3.738  -2.045   1.921  1.00  0.00    -0.372 N 
HETATM   26  C1  UNK     1      -3.937  -3.342   1.261  1.00  0.00     0.149 C 
HETATM   27  C4  UNK     1      -5.397  -3.764   1.386  1.00  0.00     0.187 C 
HETATM   28  O1  UNK     1      -5.802  -3.760   2.754  1.00  0.00    -0.388 OA
HETATM   29  C5  UNK     1      -5.720  -2.444   3.299  1.00  0.00     0.187 C 
HETATM   30  C2  UNK     1      -4.279  -1.946   3.281  1.00  0.00     0.149 C 
ENDBRANCH   5  25
TORSDOF 3
