REMARK  3 active torsions:
REMARK  status: ('A' for Active; 'I' for Inactive)
REMARK    1  A    between atoms: C13_20  and  O3_4 
REMARK    2  A    between atoms: C1_8  and  C10_17 
REMARK    3  A    between atoms: C13_20  and  C6_13 
ROOT
HETATM    1  O1  UNK     1       1.262  -1.635   1.905  1.00  0.00    -0.293 OA
HETATM    2  N1  UNK     1      -3.311  -0.458   1.526  1.00  0.00    -0.362 N 
HETATM    3  C1  UNK     1      -0.866  -0.826   0.133  1.00  0.00     0.104 C 
HETATM    4  C2  UNK     1      -0.996  -0.950   1.648  1.00  0.00     0.024 C 
HETATM    5  C3  UNK     1      -2.179  -0.741   2.265  1.00  0.00     0.020 C 
HETATM    6  C4  UNK     1      -2.353  -0.800   3.760  1.00  0.00     0.058 C 
HETATM    7  C5  UNK     1      -1.034  -0.617   4.501  1.00  0.00     0.014 C 
HETATM    8  C6  UNK     1      -2.217  -0.656  -0.564  1.00  0.00     0.052 C 
HETATM    9  C7  UNK     1       0.030  -1.547   3.947  1.00  0.00     0.084 C 
HETATM   10  C8  UNK     1       0.192  -1.372   2.453  1.00  0.00     0.158 C 
HETATM   11  C9  UNK     1      -3.355  -0.457   0.140  1.00  0.00     0.018 C 
HETATM   12  C12 UNK     1      -4.721  -0.229  -0.450  1.00  0.00     0.069 C 
HETATM   13  H8  UNK     1      -4.180  -0.310   2.026  1.00  0.00     0.165 HD
ENDROOT
BRANCH   3  14
HETATM   14  C10 UNK     1       0.049   0.316  -0.219  1.00  0.00     0.029 A 
HETATM   15  C11 UNK     1       1.303   0.018  -0.956  1.00  0.00     0.194 A 
HETATM   16  O4  UNK     1       1.612  -1.120  -1.282  1.00  0.00    -0.287 OA
HETATM   17  C15 UNK     1       2.163   1.173  -1.276  1.00  0.00     0.050 A 
HETATM   18  C16 UNK     1       1.760   2.449  -0.880  1.00  0.00     0.089 A 
HETATM   19  C17 UNK     1       3.364   0.997  -1.967  1.00  0.00     0.042 A 
HETATM   20  O2  UNK     1       0.591   2.679  -0.200  1.00  0.00    -0.321 OA
HETATM   21  C18 UNK     1       2.557   3.556  -1.172  1.00  0.00     0.040 A 
HETATM   22  C14 UNK     1      -0.199   1.594   0.091  1.00  0.00     0.154 A 
HETATM   23  C20 UNK     1       3.758   3.382  -1.862  1.00  0.00     0.026 A 
HETATM   24  C19 UNK     1       4.160   2.106  -2.258  1.00  0.00     0.035 A 
HETATM   25 Cl1  UNK     1       5.642   1.900  -3.109  1.00  0.00    -0.084 Cl
ENDBRANCH   3  14
BRANCH   8  26
HETATM   26  C13 UNK     1      -2.217  -0.770  -2.032  1.00  0.00     0.291 C 
HETATM   27  O5  UNK     1      -2.090   0.183  -2.777  1.00  0.00    -0.260 OA
BRANCH  26  28
HETATM   28  O3  UNK     1      -2.377  -2.075  -2.358  1.00  0.00    -0.323 OA
HETATM   29  C21 UNK     1      -2.397  -2.351  -3.763  1.00  0.00     0.213 C 
ENDBRANCH  26  28
ENDBRANCH   8  26
TORSDOF 3
