REMARK  4 active torsions:
REMARK  status: ('A' for Active; 'I' for Inactive)
REMARK    1  A    between atoms: C4_9  and  O2_3 
REMARK    2  A    between atoms: C9_14  and  O2_3 
REMARK    3  A    between atoms: C12_17  and  C9_14 
REMARK    4  A    between atoms: C11_16  and  C12_17 
ROOT
HETATM    1  I1  UNK     1       0.180  -0.137   2.994  1.00  0.00    -0.039 I 
HETATM    2  O1  UNK     1      -2.897  -0.847   2.796  1.00  0.00    -0.273 OA
HETATM    3  O4  UNK     1      -4.742  -0.816   4.146  1.00  0.00    -0.260 OA
HETATM    4  C1  UNK     1      -3.118  -1.614   0.487  1.00  0.00     0.005 A 
HETATM    5  C2  UNK     1      -2.336  -1.122   1.533  1.00  0.00     0.109 A 
HETATM    6  C3  UNK     1      -4.550  -1.841   0.727  1.00  0.00    -0.043 A 
HETATM    7  C4  UNK     1      -0.358  -1.131   0.167  1.00  0.00     0.088 A 
HETATM    8  C5  UNK     1      -2.485  -1.862  -0.738  1.00  0.00     0.017 A 
HETATM    9  C6  UNK     1      -0.968  -0.878   1.391  1.00  0.00     0.074 A 
HETATM   10  C7  UNK     1      -1.115  -1.622  -0.896  1.00  0.00     0.039 A 
HETATM   11  C8  UNK     1      -5.057  -1.570   1.938  1.00  0.00     0.090 A 
HETATM   12  C10 UNK     1      -5.419  -2.368  -0.377  1.00  0.00     0.049 C 
HETATM   13  C13 UNK     1      -4.244  -1.051   3.051  1.00  0.00     0.288 A 
ENDROOT
BRANCH   7  14
HETATM   14  O2  UNK     1       0.972  -0.917  -0.041  1.00  0.00    -0.342 OA
BRANCH  14  15
HETATM   15  C9  UNK     1       1.326   0.014  -1.061  1.00  0.00     0.259 C 
BRANCH  15  16
HETATM   16  C12 UNK     1       2.646   0.679  -0.722  1.00  0.00     0.183 C 
HETATM   17  O3  UNK     1       3.247   0.427   0.319  1.00  0.00    -0.290 OA
BRANCH  16  18
HETATM   18  C11 UNK     1       3.219   1.665  -1.684  1.00  0.00     0.012 A 
HETATM   19  C15 UNK     1       2.529   1.935  -2.844  1.00  0.00     0.016 A 
HETATM   20  C17 UNK     1       3.066   2.857  -3.742  1.00  0.00     0.007 A 
HETATM   21  C14 UNK     1       4.278   3.485  -3.457  1.00  0.00    -0.062 A 
HETATM   22  C18 UNK     1       4.954   3.190  -2.273  1.00  0.00     0.007 A 
HETATM   23  C19 UNK     1       4.852   4.470  -4.418  1.00  0.00     0.048 C 
HETATM   24  C16 UNK     1       4.417   2.268  -1.374  1.00  0.00     0.016 A 
ENDBRANCH  16  18
ENDBRANCH  15  16
ENDBRANCH  14  15
ENDBRANCH   7  14
TORSDOF 4
