REMARK  4 active torsions:
REMARK  status: ('A' for Active; 'I' for Inactive)
REMARK    1  A    between atoms: C1_5  and  N1_4 
REMARK    2  A    between atoms: C2_6  and  N1_4 
REMARK    3  A    between atoms: C3_7  and  N1_4 
REMARK    4  A    between atoms: C12_16  and  C14_18 
ROOT
HETATM    1  O1  UNK     1      -1.619  -0.422  -1.022  1.00  0.00    -0.274 OA
HETATM    2  O2  UNK     1      -3.575  -1.548  -0.668  1.00  0.00    -0.259 OA
HETATM    3  C1  UNK     1       1.609   1.329  -0.912  1.00  0.00     0.032 A 
HETATM    4  C4  UNK     1       0.434   0.760  -1.397  1.00  0.00     0.067 A 
HETATM    5  C5  UNK     1      -0.167   0.084   0.861  1.00  0.00    -0.001 A 
HETATM    6  C6  UNK     1      -0.439   0.145  -0.502  1.00  0.00     0.091 A 
HETATM    7  C7  UNK     1       1.898   1.279   0.453  1.00  0.00     0.030 A 
HETATM    8  C8  UNK     1       1.013   0.658   1.339  1.00  0.00     0.016 A 
HETATM    9  C11 UNK     1      -1.121  -0.574   1.740  1.00  0.00     0.035 A 
HETATM   10  C12 UNK     1      -2.241  -1.110   1.240  1.00  0.00     0.086 A 
HETATM   11  C13 UNK     1      -2.550  -1.058  -0.206  1.00  0.00     0.302 A 
ENDROOT
BRANCH   3  12
HETATM   12  N1  UNK     1       2.507   1.958  -1.800  1.00  0.00    -0.382 N 
BRANCH  12  13
HETATM   13  C2  UNK     1       3.732   2.553  -1.305  1.00  0.00     0.118 C 
HETATM   14  C9  UNK     1       4.863   1.545  -1.266  1.00  0.00     0.026 C 
ENDBRANCH  12  13
BRANCH  12  15
HETATM   15  C3  UNK     1       2.223   2.004  -3.221  1.00  0.00     0.118 C 
HETATM   16  C10 UNK     1       2.612   0.710  -3.906  1.00  0.00     0.026 C 
ENDBRANCH  12  15
ENDBRANCH   3  12
BRANCH  10  17
HETATM   17  C14 UNK     1      -3.140  -1.752   2.206  1.00  0.00     0.161 C 
HETATM   18  O3  UNK     1      -2.692  -2.267   3.232  1.00  0.00    -0.293 OA
HETATM   19  C15 UNK     1      -4.617  -1.749   1.907  1.00  0.00     0.097 C 
ENDBRANCH  10  17
TORSDOF 4
