REMARK  3 active torsions:
REMARK  status: ('A' for Active; 'I' for Inactive)
REMARK    1  A    between atoms: C4_8  and  O1_1 
REMARK    2  A    between atoms: C8_12  and  O1_1 
REMARK    3  A    between atoms: C8_12  and  C9_13 
ROOT
HETATM    1  O3  UNK     1       2.482   1.086   0.253  1.00  0.00    -0.274 OA
HETATM    2  O4  UNK     1       0.882   0.032   1.498  1.00  0.00    -0.259 OA
HETATM    3  C9  UNK     1       0.409   0.334  -0.803  1.00  0.00     0.115 A 
HETATM    4  C10 UNK     1       0.812   0.800  -1.991  1.00  0.00     0.038 A 
HETATM    5  C11 UNK     1       1.249   0.458   0.409  1.00  0.00     0.304 A 
HETATM    6  C12 UNK     1       2.107   1.451  -2.122  1.00  0.00    -0.001 A 
HETATM    7  C13 UNK     1       2.913   1.578  -0.995  1.00  0.00     0.089 A 
HETATM    8  C14 UNK     1       2.569   1.952  -3.341  1.00  0.00     0.014 A 
HETATM    9  C15 UNK     1       4.163   2.190  -1.052  1.00  0.00     0.038 A 
HETATM   10  C16 UNK     1       3.821   2.569  -3.414  1.00  0.00     0.001 A 
HETATM   11  C17 UNK     1       4.617   2.688  -2.272  1.00  0.00     0.003 A 
ENDROOT
BRANCH   3  12
HETATM   12  C8  UNK     1      -0.910  -0.305  -0.773  1.00  0.00     0.299 C 
HETATM   13  O2  UNK     1      -1.397  -0.895  -1.724  1.00  0.00    -0.259 OA
BRANCH  12  14
HETATM   14  O1  UNK     1      -1.463  -0.125   0.458  1.00  0.00    -0.311 OA
BRANCH  14  15
HETATM   15  C4  UNK     1      -2.752  -0.693   0.644  1.00  0.00     0.136 C 
HETATM   16  C1  UNK     1      -3.208  -0.477   2.100  1.00  0.00     0.015 C 
HETATM   17  C3  UNK     1      -2.522  -1.639   2.825  1.00  0.00     0.012 C 
HETATM   18  C6  UNK     1      -4.689  -0.872   2.215  1.00  0.00     0.007 C 
HETATM   19  C2  UNK     1      -3.147  -2.696   1.916  1.00  0.00    -0.012 C 
HETATM   20  C5  UNK     1      -2.690  -2.224   0.523  1.00  0.00     0.037 C 
HETATM   21  C7  UNK     1      -4.649  -2.402   2.078  1.00  0.00     0.005 C 
ENDBRANCH  14  15
ENDBRANCH  12  14
ENDBRANCH   3  12
TORSDOF 3
