REMARK  2 active torsions:
REMARK  status: ('A' for Active; 'I' for Inactive)
REMARK    1  A    between atoms: C1_5  and  N1_4 
REMARK       I    between atoms: C6_10  and  N1_4 
REMARK    2  A    between atoms: C4_8  and  C6_10 
ROOT
HETATM    1  O2  UNK     1      -0.917   1.472   1.210  1.00  0.00    -0.267 OA
HETATM    2  N1  UNK     1      -1.189  -0.695   0.329  1.00  0.00    -0.322 N 
HETATM    3  C6  UNK     1      -0.616   0.565   0.436  1.00  0.00     0.262 C 
HETATM    4  H1  UNK     1      -0.743  -1.383  -0.273  1.00  0.00     0.169 HD
ENDROOT
BRANCH   3   5
HETATM    5  C4  UNK     1       0.477   0.760  -0.524  1.00  0.00     0.108 A 
HETATM    6  C14 UNK     1       0.497   0.081  -1.839  1.00  0.00     0.304 A 
HETATM    7  O1  UNK     1       1.587   0.347  -2.663  1.00  0.00    -0.274 OA
HETATM    8  O3  UNK     1      -0.400  -0.678  -2.191  1.00  0.00    -0.259 OA
HETATM    9  C10 UNK     1       2.621   1.218  -2.270  1.00  0.00     0.089 A 
HETATM   10  C5  UNK     1       2.583   1.846  -1.029  1.00  0.00    -0.001 A 
HETATM   11  C16 UNK     1       3.671   1.422  -3.163  1.00  0.00     0.038 A 
HETATM   12  C15 UNK     1       3.628   2.703  -0.675  1.00  0.00     0.014 A 
HETATM   13  C7  UNK     1       1.457   1.589  -0.145  1.00  0.00     0.037 A 
HETATM   14  C17 UNK     1       4.687   2.917  -1.560  1.00  0.00     0.001 A 
HETATM   15  C18 UNK     1       4.709   2.278  -2.802  1.00  0.00     0.003 A 
ENDBRANCH   3   5
BRANCH   2  16
HETATM   16  C1  UNK     1      -2.258  -1.225   1.091  1.00  0.00     0.046 A 
HETATM   17  C2  UNK     1      -1.983  -1.907   2.266  1.00  0.00    -0.035 A 
HETATM   18  C12 UNK     1      -0.585  -2.102   2.757  1.00  0.00     0.050 C 
HETATM   19  C8  UNK     1      -3.036  -2.431   3.017  1.00  0.00     0.009 A 
HETATM   20  C11 UNK     1      -4.351  -2.265   2.584  1.00  0.00     0.001 A 
HETATM   21  C9  UNK     1      -4.614  -1.576   1.399  1.00  0.00     0.009 A 
HETATM   22  C3  UNK     1      -3.561  -1.053   0.649  1.00  0.00    -0.035 A 
HETATM   23  C13 UNK     1      -3.874  -0.320  -0.615  1.00  0.00     0.050 C 
ENDBRANCH   2  16
TORSDOF 2
