REMARK  3 active torsions:
REMARK  status: ('A' for Active; 'I' for Inactive)
REMARK    1  A    between atoms: C11_15  and  N1_4 
REMARK       I    between atoms: C12_16  and  N1_4 
REMARK    2  A    between atoms: C1_5  and  C11_15 
REMARK    3  A    between atoms: C12_16  and  C13_17 
ROOT
HETATM    1  O1  UNK     1       0.416   0.698   2.331  1.00  0.00    -0.267 OA
HETATM    2  N1  UNK     1       1.078  -0.279   0.318  1.00  0.00    -0.356 N 
HETATM    3  C12 UNK     1       0.183   0.017   1.338  1.00  0.00     0.257 C 
HETATM    4  H18 UNK     1       0.800  -0.932  -0.408  1.00  0.00     0.162 HD
ENDROOT
BRANCH   2   5
HETATM    5  C11 UNK     1       2.429   0.188   0.298  1.00  0.00     0.132 C 
BRANCH   5   6
HETATM    6  C1  UNK     1       2.692   1.046  -0.942  1.00  0.00    -0.023 C 
HETATM    7  C5  UNK     1       2.448   0.220  -2.228  1.00  0.00     0.015 C 
HETATM    8  C2  UNK     1       2.711   1.080  -3.477  1.00  0.00    -0.013 C 
HETATM    9  C8  UNK     1       1.768   2.294  -3.464  1.00  0.00     0.009 C 
HETATM   10  C9  UNK     1       4.168   1.570  -3.455  1.00  0.00     0.009 C 
HETATM   11  C3  UNK     1       2.011   3.138  -2.202  1.00  0.00    -0.013 C 
HETATM   12  C10 UNK     1       3.472   3.618  -2.187  1.00  0.00     0.009 C 
HETATM   13  C6  UNK     1       1.750   2.273  -0.956  1.00  0.00     0.015 C 
HETATM   14  C4  UNK     1       4.424   2.410  -2.193  1.00  0.00    -0.013 C 
HETATM   15  C7  UNK     1       4.156   1.548  -0.948  1.00  0.00     0.015 C 
ENDBRANCH   5   6
ENDBRANCH   2   5
BRANCH   3  16
HETATM   16  C13 UNK     1      -1.151  -0.576   1.130  1.00  0.00     0.108 A 
HETATM   17  C14 UNK     1      -1.838  -0.887   2.235  1.00  0.00     0.037 A 
HETATM   18  C16 UNK     1      -3.164  -1.478   2.133  1.00  0.00    -0.001 A 
HETATM   19  C17 UNK     1      -3.700  -1.712   0.871  1.00  0.00     0.089 A 
HETATM   20  C18 UNK     1      -3.917  -1.818   3.259  1.00  0.00     0.014 A 
HETATM   21  O2  UNK     1      -2.972  -1.382  -0.289  1.00  0.00    -0.274 OA
HETATM   22  C19 UNK     1      -4.964  -2.275   0.703  1.00  0.00     0.038 A 
HETATM   23  C15 UNK     1      -1.701  -0.817  -0.223  1.00  0.00     0.304 A 
HETATM   24  O3  UNK     1      -1.074  -0.533  -1.238  1.00  0.00    -0.259 OA
HETATM   25  C21 UNK     1      -5.708  -2.612   1.832  1.00  0.00     0.003 A 
HETATM   26  C20 UNK     1      -5.186  -2.384   3.107  1.00  0.00     0.001 A 
ENDBRANCH   3  16
TORSDOF 3
