REMARK  9 active torsions:
REMARK  status: ('A' for Active; 'I' for Inactive)
REMARK    1  A    between atoms: C2_9  and  O1_1 
REMARK    2  A    between atoms: C4_11  and  O1_1 
REMARK    3  A    between atoms: C12_19  and  O2_2 
REMARK    4  A    between atoms: C6_13  and  O2_2 
REMARK    5  A    between atoms: C3_10  and  O3_3 
REMARK    6  A    between atoms: C20_27  and  N1_6 
REMARK    7  A    between atoms: C1_8  and  C9_16 
REMARK    8  A    between atoms: C4_11  and  C6_13 
REMARK    9  A    between atoms: C10_17  and  C11_18 
ROOT
HETATM    1  N2  UNK     1      -0.928  -3.615   0.613  1.00  0.00    -0.191 NA
HETATM    2  C9  UNK     1      -2.471  -0.532   0.518  1.00  0.00     0.035 C 
HETATM    3  C11 UNK     1      -2.666  -1.744   1.105  1.00  0.00     0.055 C 
HETATM    4  C25 UNK     1      -1.699  -2.773   0.826  1.00  0.00     0.100 C 
ENDROOT
BRANCH   3   5
HETATM    5  C10 UNK     1      -3.780  -2.045   1.990  1.00  0.00    -0.015 A 
HETATM    6  C14 UNK     1      -3.659  -1.831   3.362  1.00  0.00     0.015 A 
HETATM    7  C21 UNK     1      -4.729  -2.118   4.210  1.00  0.00     0.037 A 
HETATM    8  C20 UNK     1      -5.920  -2.620   3.685  1.00  0.00     0.102 A 
HETATM    9  C22 UNK     1      -6.040  -2.835   2.312  1.00  0.00     0.037 A 
HETATM   10  C15 UNK     1      -4.971  -2.547   1.464  1.00  0.00     0.015 A 
BRANCH   8  11
HETATM   11  N1  UNK     1      -7.009  -2.913   4.547  1.00  0.00    -0.116 N 
HETATM   12  O4  UNK     1      -6.880  -2.713   5.780  1.00  0.00    -0.532 OA
HETATM   13  O5  UNK     1      -8.071  -3.363   4.054  1.00  0.00    -0.532 OA
ENDBRANCH   8  11
ENDBRANCH   3   5
BRANCH   2  14
HETATM   14  C1  UNK     1      -1.358  -0.182  -0.375  1.00  0.00    -0.032 A 
HETATM   15  C5  UNK     1      -0.193   0.346   0.161  1.00  0.00     0.051 A 
HETATM   16  C3  UNK     1       0.864   0.679  -0.687  1.00  0.00     0.102 A 
HETATM   17  C2  UNK     1       0.743   0.479  -2.063  1.00  0.00     0.102 A 
HETATM   18  C8  UNK     1      -0.434  -0.052  -2.590  1.00  0.00     0.040 A 
HETATM   19  C7  UNK     1      -1.490  -0.385  -1.741  1.00  0.00     0.014 A 
BRANCH  16  20
HETATM   20  O3  UNK     1       2.008   1.197  -0.161  1.00  0.00    -0.353 OA
HETATM   21  C24 UNK     1       3.025   0.272   0.218  1.00  0.00     0.210 C 
ENDBRANCH  16  20
BRANCH  17  22
HETATM   22  O1  UNK     1       1.767   0.800  -2.901  1.00  0.00    -0.346 OA
BRANCH  22  23
HETATM   23  C4  UNK     1       1.500   1.774  -3.908  1.00  0.00     0.202 C 
BRANCH  23  24
HETATM   24  C6  UNK     1       2.773   2.543  -4.203  1.00  0.00     0.202 C 
BRANCH  24  25
HETATM   25  O2  UNK     1       3.202   3.202  -3.017  1.00  0.00    -0.349 OA
BRANCH  25  26
HETATM   26  C12 UNK     1       4.552   3.378  -2.863  1.00  0.00     0.068 A 
HETATM   27  C16 UNK     1       5.359   3.524  -3.986  1.00  0.00     0.037 A 
HETATM   28  C18 UNK     1       6.734   3.703  -3.830  1.00  0.00     0.009 A 
HETATM   29  C13 UNK     1       7.292   3.734  -2.553  1.00  0.00    -0.062 A 
HETATM   30  C19 UNK     1       6.476   3.587  -1.431  1.00  0.00     0.009 A 
HETATM   31  C23 UNK     1       8.762   3.926  -2.385  1.00  0.00     0.048 C 
HETATM   32  C17 UNK     1       5.102   3.408  -1.587  1.00  0.00     0.037 A 
ENDBRANCH  25  26
ENDBRANCH  24  25
ENDBRANCH  23  24
ENDBRANCH  22  23
ENDBRANCH  17  22
ENDBRANCH   2  14
TORSDOF 9
