REMARK  6 active torsions:
REMARK  status: ('A' for Active; 'I' for Inactive)
REMARK    1  A    between atoms: C12_19  and  O2_2 
REMARK    2  A    between atoms: C6_13  and  O2_2 
REMARK    3  A    between atoms: C1_8  and  N1_6 
REMARK    4  A    between atoms: C3_10  and  N1_6 
REMARK    5  A    between atoms: C5_12  and  N2_7 
REMARK    6  A    between atoms: C3_10  and  C6_13 
ROOT
HETATM    1  O1  UNK     1       2.700   1.459  -2.905  1.00  0.00    -0.273 OA
HETATM    2  O3  UNK     1       1.149   0.858  -4.466  1.00  0.00    -0.257 OA
HETATM    3  C1  UNK     1       0.797   0.787  -0.868  1.00  0.00     0.081 A 
HETATM    4  C2  UNK     1       2.146   1.304  -0.520  1.00  0.00     0.027 A 
HETATM    5  C4  UNK     1       3.044   1.618  -1.547  1.00  0.00     0.092 A 
HETATM    6  C5  UNK     1       0.541   0.666  -2.181  1.00  0.00     0.205 A 
HETATM    7  C7  UNK     1       2.597   1.508   0.795  1.00  0.00     0.017 A 
HETATM    8  C8  UNK     1       1.455   0.990  -3.287  1.00  0.00     0.324 A 
HETATM    9  C9  UNK     1       4.331   2.108  -1.303  1.00  0.00     0.038 A 
HETATM   10  C10 UNK     1       3.884   1.999   1.055  1.00  0.00     0.001 A 
HETATM   11  C11 UNK     1       4.750   2.298   0.008  1.00  0.00     0.003 A 
ENDROOT
BRANCH   3  12
HETATM   12  N1  UNK     1      -0.060   0.481   0.157  1.00  0.00    -0.385 N 
HETATM   13  H3  UNK     1      -1.031   0.292  -0.057  1.00  0.00     0.159 HD
BRANCH  12  14
HETATM   14  C3  UNK     1       0.380   0.232   1.502  1.00  0.00     0.146 C 
BRANCH  14  15
HETATM   15  C6  UNK     1      -0.545  -0.769   2.174  1.00  0.00     0.195 C 
BRANCH  15  16
HETATM   16  O2  UNK     1      -1.860  -0.232   2.235  1.00  0.00    -0.350 OA
BRANCH  16  17
HETATM   17  C12 UNK     1      -2.895  -1.129   2.204  1.00  0.00     0.068 A 
HETATM   18  C13 UNK     1      -2.717  -2.404   2.729  1.00  0.00     0.037 A 
HETATM   19  C15 UNK     1      -3.771  -3.318   2.697  1.00  0.00     0.003 A 
HETATM   20  C17 UNK     1      -4.996  -2.950   2.140  1.00  0.00     0.000 A 
HETATM   21  C16 UNK     1      -5.167  -1.669   1.616  1.00  0.00     0.003 A 
HETATM   22  C14 UNK     1      -4.113  -0.755   1.648  1.00  0.00     0.037 A 
ENDBRANCH  16  17
ENDBRANCH  15  16
ENDBRANCH  14  15
ENDBRANCH  12  14
ENDBRANCH   3  12
BRANCH   6  23
HETATM   23  N2  UNK     1      -0.747   0.173  -2.555  1.00  0.00    -0.107 N 
HETATM   24  O4  UNK     1      -1.529  -0.105  -1.640  1.00  0.00    -0.531 OA
HETATM   25  O5  UNK     1      -0.976   0.064  -3.765  1.00  0.00    -0.531 OA
ENDBRANCH   6  23
TORSDOF 6
