REMARK  4 active torsions:
REMARK  status: ('A' for Active; 'I' for Inactive)
REMARK    1  A    between atoms: C8_13  and  O2_2 
REMARK    2  A    between atoms: C11_16  and  O3_3 
REMARK    3  A    between atoms: C12_17  and  O4_4 
REMARK    4  A    between atoms: C1_6  and  C3_8 
ROOT
HETATM    1  O1  UNK     1       2.372   0.536  -0.176  1.00  0.00    -0.271 OA
HETATM    2  O5  UNK     1       1.403  -0.760   1.432  1.00  0.00    -0.259 OA
HETATM    3  C1  UNK     1      -0.021  -0.000  -0.317  1.00  0.00     0.051 A 
HETATM    4  C2  UNK     1       1.045   1.353  -2.037  1.00  0.00     0.002 A 
HETATM    5  C4  UNK     1       2.265   1.259  -1.378  1.00  0.00     0.123 A 
HETATM    6  C5  UNK     1      -0.117   0.696  -1.460  1.00  0.00     0.032 A 
HETATM    7  C6  UNK     1       1.282  -0.116   0.394  1.00  0.00     0.299 A 
HETATM    8  C8  UNK     1       3.415   1.868  -1.875  1.00  0.00     0.102 A 
HETATM    9  C10 UNK     1       0.975   2.078  -3.229  1.00  0.00     0.014 A 
HETATM   10  C14 UNK     1       3.339   2.589  -3.064  1.00  0.00     0.040 A 
HETATM   11  C15 UNK     1       2.121   2.695  -3.740  1.00  0.00     0.004 A 
ENDROOT
BRANCH   3  12
HETATM   12  C3  UNK     1      -1.231  -0.635   0.238  1.00  0.00    -0.017 A 
HETATM   13  C7  UNK     1      -1.684  -0.281   1.509  1.00  0.00     0.052 A 
HETATM   14  C11 UNK     1      -2.829  -0.881   2.033  1.00  0.00     0.102 A 
HETATM   15  C12 UNK     1      -3.521  -1.836   1.287  1.00  0.00     0.101 A 
HETATM   16  C13 UNK     1      -3.067  -2.190   0.016  1.00  0.00     0.040 A 
HETATM   17  C9  UNK     1      -1.922  -1.589  -0.509  1.00  0.00     0.015 A 
BRANCH  14  18
HETATM   18  O3  UNK     1      -3.262  -0.529   3.275  1.00  0.00    -0.353 OA
HETATM   19  C17 UNK     1      -2.499   0.454   3.973  1.00  0.00     0.210 C 
ENDBRANCH  14  18
BRANCH  15  20
HETATM   20  O4  UNK     1      -4.641  -2.428   1.787  1.00  0.00    -0.353 OA
HETATM   21  C18 UNK     1      -5.288  -3.393   0.960  1.00  0.00     0.210 C 
ENDBRANCH  15  20
ENDBRANCH   3  12
BRANCH   8  22
HETATM   22  O2  UNK     1       4.603   1.767  -1.220  1.00  0.00    -0.353 OA
HETATM   23  C16 UNK     1       5.727   2.424  -1.806  1.00  0.00     0.210 C 
ENDBRANCH   8  22
TORSDOF 4
