REMARK  2 active torsions:
REMARK  status: ('A' for Active; 'I' for Inactive)
REMARK    1  A    between atoms: C1_4  and  C4_7 
REMARK    2  A    between atoms: C2_5  and  C3_6 
ROOT
HETATM    1  N1  UNK     1      -1.843  -0.697   3.875  1.00  0.00    -0.191 NA
HETATM    2  C3  UNK     1      -0.837  -0.135   1.544  1.00  0.00     0.055 C 
HETATM    3  C4  UNK     1       0.340   0.544   1.511  1.00  0.00     0.036 C 
HETATM    4  C15 UNK     1      -1.386  -0.442   2.839  1.00  0.00     0.100 C 
ENDROOT
BRANCH   2   5
HETATM    5  C2  UNK     1      -1.563  -0.555   0.355  1.00  0.00    -0.015 A 
HETATM    6  C7  UNK     1      -2.509   0.293  -0.221  1.00  0.00     0.013 A 
HETATM    7  C12 UNK     1      -3.205  -0.109  -1.361  1.00  0.00     0.001 A 
HETATM    8  C14 UNK     1      -2.954  -1.360  -1.926  1.00  0.00     0.000 A 
HETATM    9  C13 UNK     1      -2.007  -2.208  -1.351  1.00  0.00     0.001 A 
HETATM   10  C8  UNK     1      -1.312  -1.805  -0.210  1.00  0.00     0.013 A 
ENDBRANCH   2   5
BRANCH   3  11
HETATM   11  C1  UNK     1       1.073   0.932   0.297  1.00  0.00    -0.013 A 
HETATM   12  C5  UNK     1       2.034   0.107  -0.272  1.00  0.00     0.045 A 
HETATM   13 Cl1  UNK     1       2.445  -1.433   0.400  1.00  0.00    -0.083 Cl
HETATM   14  C9  UNK     1       2.701   0.520  -1.425  1.00  0.00     0.048 A 
HETATM   15  C11 UNK     1       2.400   1.755  -2.000  1.00  0.00     0.035 A 
HETATM   16  C10 UNK     1       1.433   2.576  -1.421  1.00  0.00     0.024 A 
HETATM   17 Cl2  UNK     1       3.222   2.265  -3.424  1.00  0.00    -0.084 Cl
HETATM   18  C6  UNK     1       0.766   2.164  -0.268  1.00  0.00     0.015 A 
ENDBRANCH   3  11
TORSDOF 2
