REMARK  0 active torsions:
REMARK  status: ('A' for Active; 'I' for Inactive)
ROOT
HETATM    1  F1  UNK     1      -3.195  -1.406   0.516  1.00  0.00    -0.206 F 
HETATM    2  O1  UNK     1       1.796   0.899   0.735  1.00  0.00    -0.322 OA
HETATM    3  O2  UNK     1       0.041   0.501  -2.927  1.00  0.00    -0.287 OA
HETATM    4  C1  UNK     1      -0.107   0.163  -0.589  1.00  0.00     0.051 A 
HETATM    5  C2  UNK     1       0.550   0.329   0.633  1.00  0.00     0.089 A 
HETATM    6  C3  UNK     1      -1.374  -0.423  -0.635  1.00  0.00     0.060 A 
HETATM    7  C4  UNK     1       0.558   0.616  -1.825  1.00  0.00     0.186 A 
HETATM    8  C5  UNK     1      -0.059  -0.091   1.815  1.00  0.00     0.041 A 
HETATM    9  C6  UNK     1      -1.980  -0.842   0.550  1.00  0.00     0.117 A 
HETATM   10  C7  UNK     1      -1.325  -0.677   1.772  1.00  0.00     0.045 A 
HETATM   11  C8  UNK     1       1.894   1.221  -1.659  1.00  0.00     0.080 A 
HETATM   12  C9  UNK     1       2.400   1.315  -0.426  1.00  0.00     0.146 A 
ENDROOT
TORSDOF 0
