REMARK  2 active torsions:
REMARK  status: ('A' for Active; 'I' for Inactive)
REMARK    1  A    between atoms: C8_14  and  O2_5 
REMARK    2  A    between atoms: C10_16  and  C4_10 
ROOT
HETATM    1  O1  UNK     1       0.801   0.485   0.295  1.00  0.00    -0.309 OA
HETATM    2  O3  UNK     1      -1.059   0.028  -3.302  1.00  0.00    -0.287 OA
HETATM    3  C1  UNK     1      -1.136  -0.276  -0.959  1.00  0.00     0.048 A 
HETATM    4  C2  UNK     1      -0.444  -0.090   0.237  1.00  0.00     0.092 A 
HETATM    5  C3  UNK     1      -0.510   0.160  -2.217  1.00  0.00     0.187 A 
HETATM    6  C4  UNK     1       1.392   0.897  -0.888  1.00  0.00     0.111 A 
HETATM    7  C5  UNK     1      -1.016  -0.494   1.444  1.00  0.00     0.075 A 
HETATM    8  C6  UNK     1      -2.402  -0.867  -0.958  1.00  0.00     0.021 A 
HETATM    9  C7  UNK     1       0.828   0.772  -2.098  1.00  0.00     0.093 A 
HETATM   10  C8  UNK     1      -2.280  -1.085   1.449  1.00  0.00     0.070 A 
HETATM   11  C9  UNK     1      -2.971  -1.271   0.250  1.00  0.00     0.038 A 
ENDROOT
BRANCH   6  12
HETATM   12  C10 UNK     1       2.745   1.508  -0.699  1.00  0.00     0.237 C 
HETATM   13 Cl1  UNK     1       2.709   3.180  -1.306  1.00  0.00    -0.076 Cl
HETATM   14 Cl2  UNK     1       3.168   1.507   1.031  1.00  0.00    -0.076 Cl
HETATM   15 Cl3  UNK     1       3.959   0.568  -1.602  1.00  0.00    -0.076 Cl
ENDBRANCH   6  12
BRANCH  10  16
HETATM   16  O2  UNK     1      -2.840  -1.482   2.624  1.00  0.00    -0.356 OA
HETATM   17  C11 UNK     1      -2.081  -1.263   3.812  1.00  0.00     0.210 C 
ENDBRANCH  10  16
TORSDOF 2
