REMARK  9 active torsions:
REMARK  status: ('A' for Active; 'I' for Inactive)
REMARK    1  A    between atoms: C5_11  and  N1_5 
REMARK       I    between atoms: C7_13  and  N1_5 
REMARK    2  A    between atoms: C6_12  and  N2_6 
REMARK       I    between atoms: C9_15  and  N2_6 
REMARK    3  A    between atoms: C1_7  and  C2_8 
REMARK    4  A    between atoms: C1_7  and  C3_9 
REMARK    5  A    between atoms: C2_8  and  C4_10 
REMARK    6  A    between atoms: C3_9  and  C5_11 
REMARK    7  A    between atoms: C4_10  and  C6_12 
REMARK    8  A    between atoms: C7_13  and  C8_14 
REMARK    9  A    between atoms: C12_18  and  C9_15 
ROOT
HETATM    1  C5  UNK     1      -0.725  -2.147   2.967  1.00  0.00     0.123 C 
ENDROOT
BRANCH   1   2
HETATM    2  C3  UNK     1      -1.558  -1.281   3.907  1.00  0.00     0.020 C 
BRANCH   2   3
HETATM    3  C1  UNK     1      -2.643  -0.443   3.221  1.00  0.00     0.002 C 
BRANCH   3   4
HETATM    4  C2  UNK     1      -3.640  -1.279   2.415  1.00  0.00     0.002 C 
BRANCH   4   5
HETATM    5  C4  UNK     1      -4.703  -0.391   1.758  1.00  0.00     0.020 C 
BRANCH   5   6
HETATM    6  C6  UNK     1      -4.101   0.622   0.790  1.00  0.00     0.123 C 
BRANCH   6   7
HETATM    7  N2  UNK     1      -3.399  -0.002  -0.297  1.00  0.00    -0.357 N 
HETATM    8  C9  UNK     1      -2.312   0.592  -0.929  1.00  0.00     0.251 C 
HETATM    9  O3  UNK     1      -1.845   1.688  -0.631  1.00  0.00    -0.268 OA
HETATM   10  H14 UNK     1      -3.807  -0.848  -0.681  1.00  0.00     0.162 HD
BRANCH   8  11
HETATM   11  C12 UNK     1      -1.712  -0.171  -2.054  1.00  0.00     0.032 A 
HETATM   12  C17 UNK     1      -1.046   0.504  -3.077  1.00  0.00     0.017 A 
HETATM   13  C21 UNK     1      -0.483  -0.211  -4.134  1.00  0.00     0.001 A 
HETATM   14  C23 UNK     1      -0.586  -1.602  -4.167  1.00  0.00     0.000 A 
HETATM   15  C22 UNK     1      -1.253  -2.277  -3.144  1.00  0.00     0.001 A 
HETATM   16  C18 UNK     1      -1.816  -1.561  -2.088  1.00  0.00     0.017 A 
ENDBRANCH   8  11
ENDBRANCH   6   7
ENDBRANCH   5   6
ENDBRANCH   4   5
ENDBRANCH   3   4
ENDBRANCH   2   3
ENDBRANCH   1   2
BRANCH   1  17
HETATM   17  N1  UNK     1      -0.055  -1.378   1.955  1.00  0.00    -0.357 N 
HETATM   18  C7  UNK     1       1.215  -0.851   2.123  1.00  0.00     0.257 C 
HETATM   19  O2  UNK     1       1.923  -0.960   3.119  1.00  0.00    -0.267 OA
HETATM   20  H13 UNK     1      -0.552  -1.214   1.084  1.00  0.00     0.162 HD
BRANCH  18  21
HETATM   21  C8  UNK     1       1.688  -0.105   0.943  1.00  0.00     0.108 A 
HETATM   22  C10 UNK     1       1.981   1.187   1.139  1.00  0.00     0.037 A 
HETATM   23  C11 UNK     1       2.455   2.006   0.034  1.00  0.00    -0.001 A 
HETATM   24  C13 UNK     1       2.596   1.426  -1.222  1.00  0.00     0.089 A 
HETATM   25  C15 UNK     1       2.772   3.358   0.193  1.00  0.00     0.014 A 
HETATM   26  O1  UNK     1       2.287   0.067  -1.421  1.00  0.00    -0.274 OA
HETATM   27  C16 UNK     1       3.045   2.156  -2.321  1.00  0.00     0.038 A 
HETATM   28  C14 UNK     1       1.832  -0.743  -0.385  1.00  0.00     0.304 A 
HETATM   29  O4  UNK     1       1.563  -1.925  -0.568  1.00  0.00    -0.259 OA
HETATM   30  C20 UNK     1       3.359   3.503  -2.154  1.00  0.00     0.003 A 
HETATM   31  C19 UNK     1       3.223   4.103  -0.900  1.00  0.00     0.001 A 
ENDBRANCH  18  21
ENDBRANCH   1  17
TORSDOF 9
