REMARK  4 active torsions:
REMARK  status: ('A' for Active; 'I' for Inactive)
REMARK    1  A    between atoms: C16_21  and  O2_3 
REMARK    2  A    between atoms: C9_14  and  O2_3 
REMARK    3  A    between atoms: C3_8  and  C6_11 
REMARK    4  A    between atoms: C16_21  and  C17_22 
ROOT
HETATM    1  O1  UNK     1       1.471   1.992  -0.750  1.00  0.00    -0.309 OA
HETATM    2  O3  UNK     1      -0.169  -1.109  -2.821  1.00  0.00    -0.287 OA
HETATM    3  C1  UNK     1      -0.264   0.301  -0.928  1.00  0.00     0.051 A 
HETATM    4  C2  UNK     1       0.347   1.369  -0.271  1.00  0.00     0.090 A 
HETATM    5  C3  UNK     1       2.025   1.536  -1.936  1.00  0.00     0.090 A 
HETATM    6  C4  UNK     1       0.317  -0.181  -2.191  1.00  0.00     0.187 A 
HETATM    7  C5  UNK     1      -1.408  -0.296  -0.394  1.00  0.00     0.055 A 
HETATM    8  C7  UNK     1       1.526   0.523  -2.663  1.00  0.00     0.093 A 
HETATM    9  C8  UNK     1      -0.185   1.846   0.927  1.00  0.00     0.041 A 
HETATM   10  C9  UNK     1      -1.938   0.184   0.805  1.00  0.00     0.080 A 
HETATM   11  C10 UNK     1      -1.328   1.252   1.464  1.00  0.00     0.040 A 
ENDROOT
BRANCH  10  12
HETATM   12  O2  UNK     1      -3.054  -0.391   1.333  1.00  0.00    -0.275 OA
BRANCH  12  13
HETATM   13  C16 UNK     1      -2.796  -1.451   2.206  1.00  0.00     0.305 C 
HETATM   14  O4  UNK     1      -1.689  -1.866   2.514  1.00  0.00    -0.258 OA
BRANCH  13  15
HETATM   15  C17 UNK     1      -4.058  -2.025   2.740  1.00  0.00     0.080 A 
HETATM   16  S1  UNK     1      -3.927  -3.310   3.821  1.00  0.00    -0.096 SA
HETATM   17  C20 UNK     1      -5.634  -3.380   3.947  1.00  0.00     0.050 A 
HETATM   18  C19 UNK     1      -6.249  -2.428   3.165  1.00  0.00     0.009 A 
HETATM   19  C18 UNK     1      -5.308  -1.630   2.453  1.00  0.00     0.025 A 
ENDBRANCH  13  15
ENDBRANCH  12  13
ENDBRANCH  10  12
BRANCH   5  20
HETATM   20  C6  UNK     1       3.226   2.281  -2.363  1.00  0.00    -0.002 A 
HETATM   21  C11 UNK     1       3.517   2.424  -3.722  1.00  0.00     0.014 A 
HETATM   22  C13 UNK     1       4.651   3.129  -4.126  1.00  0.00     0.001 A 
HETATM   23  C15 UNK     1       5.497   3.693  -3.173  1.00  0.00     0.000 A 
HETATM   24  C14 UNK     1       5.210   3.553  -1.815  1.00  0.00     0.001 A 
HETATM   25  C12 UNK     1       4.076   2.848  -1.411  1.00  0.00     0.014 A 
ENDBRANCH   5  20
TORSDOF 4
