REMARK  4 active torsions:
REMARK  status: ('A' for Active; 'I' for Inactive)
REMARK    1  A    between atoms: C9_18  and  O2_5 
REMARK       I    between atoms: C11_20  and  N1_9 
REMARK    2  A    between atoms: C4_13  and  N1_9 
REMARK    3  A    between atoms: C2_11  and  C9_18 
REMARK    4  A    between atoms: C10_19  and  C11_20 
ROOT
HETATM    1 Cl1  UNK     1      -4.514   0.621   2.081  1.00  0.00    -0.083 Cl
HETATM    2 Cl2  UNK     1      -6.965  -4.140   2.540  1.00  0.00    -0.084 Cl
HETATM    3  S1  UNK     1       0.240   0.174   2.369  1.00  0.00    -0.075 SA
HETATM    4  C1  UNK     1      -1.941  -1.046   1.772  1.00  0.00     0.008 A 
HETATM    5  C2  UNK     1      -1.360  -0.646   0.534  1.00  0.00     0.085 A 
HETATM    6  C3  UNK     1      -1.174  -0.663   2.851  1.00  0.00    -0.007 A 
HETATM    7  C4  UNK     1      -0.190   0.014   0.733  1.00  0.00     0.094 A 
HETATM    8  C5  UNK     1      -3.177  -1.764   1.960  1.00  0.00    -0.002 A 
HETATM    9  C6  UNK     1      -1.412  -0.876   4.298  1.00  0.00     0.057 C 
HETATM   10  C7  UNK     1      -4.395  -1.104   2.110  1.00  0.00     0.046 A 
HETATM   11  C8  UNK     1      -3.127  -3.157   1.989  1.00  0.00     0.016 A 
HETATM   12  C15 UNK     1      -5.567  -1.839   2.290  1.00  0.00     0.048 A 
HETATM   13  C16 UNK     1      -4.299  -3.892   2.168  1.00  0.00     0.025 A 
HETATM   14  C18 UNK     1      -5.519  -3.233   2.319  1.00  0.00     0.035 A 
ENDROOT
BRANCH   7  15
HETATM   15  N1  UNK     1       0.703   0.575  -0.186  1.00  0.00    -0.316 N 
HETATM   16  C11 UNK     1       1.884   1.236   0.120  1.00  0.00     0.262 C 
HETATM   17  O4  UNK     1       2.374   1.459   1.225  1.00  0.00    -0.267 OA
HETATM   18  H1  UNK     1       0.440   0.451  -1.159  1.00  0.00     0.169 HD
BRANCH  16  19
HETATM   19  C10 UNK     1       2.579   1.699  -1.087  1.00  0.00     0.108 A 
HETATM   20  C13 UNK     1       3.914   1.768  -1.010  1.00  0.00     0.037 A 
HETATM   21  C12 UNK     1       4.691   2.216  -2.155  1.00  0.00    -0.001 A 
HETATM   22  C14 UNK     1       4.026   2.571  -3.324  1.00  0.00     0.089 A 
HETATM   23  C19 UNK     1       6.085   2.303  -2.121  1.00  0.00     0.014 A 
HETATM   24  O1  UNK     1       2.621   2.496  -3.398  1.00  0.00    -0.274 OA
HETATM   25  C20 UNK     1       4.711   3.009  -4.455  1.00  0.00     0.038 A 
HETATM   26  C17 UNK     1       1.850   2.071  -2.320  1.00  0.00     0.304 A 
HETATM   27  O5  UNK     1       0.627   2.010  -2.393  1.00  0.00    -0.259 OA
HETATM   28  C22 UNK     1       6.101   3.092  -4.412  1.00  0.00     0.003 A 
HETATM   29  C21 UNK     1       6.787   2.740  -3.248  1.00  0.00     0.001 A 
ENDBRANCH  16  19
ENDBRANCH   7  15
BRANCH   5  30
HETATM   30  C9  UNK     1      -1.915  -0.896  -0.774  1.00  0.00     0.296 C 
HETATM   31  O3  UNK     1      -2.981  -1.497  -0.968  1.00  0.00    -0.259 OA
BRANCH  30  32
HETATM   32  O2  UNK     1      -1.151  -0.403  -1.808  1.00  0.00    -0.322 OA
HETATM   33  C23 UNK     1      -1.644  -0.616  -3.135  1.00  0.00     0.213 C 
ENDBRANCH  30  32
ENDBRANCH   5  30
TORSDOF 4
