REMARK  4 active torsions:
REMARK  status: ('A' for Active; 'I' for Inactive)
REMARK    1  A    between atoms: C5_9  and  N1_3 
REMARK    2  A    between atoms: C6_10  and  N2_4 
REMARK    3  A    between atoms: C5_9  and  C7_11 
REMARK    4  A    between atoms: C18_22  and  C23_27 
ROOT
HETATM    1  N1  UNK     1       0.084  -0.731  -0.426  1.00  0.00     0.095 N 
HETATM    2  N2  UNK     1       2.011   1.154  -1.371  1.00  0.00    -0.377 N 
HETATM    3  C1  UNK     1      -0.041  -0.150  -1.768  1.00  0.00     0.292 C 
HETATM    4  C2  UNK     1       1.502  -0.881  -0.076  1.00  0.00     0.292 C 
HETATM    5  C3  UNK     1       0.622   1.228  -1.835  1.00  0.00     0.153 C 
HETATM    6  C4  UNK     1       2.216   0.473  -0.086  1.00  0.00     0.153 C 
ENDROOT
BRANCH   1   7
HETATM    7  C5  UNK     1      -0.600  -2.022  -0.360  1.00  0.00     0.312 C 
BRANCH   7   8
HETATM    8  C7  UNK     1      -2.056  -1.704  -0.188  1.00  0.00    -0.011 A 
HETATM    9  C12 UNK     1      -2.861  -1.546  -1.248  1.00  0.00     0.092 A 
HETATM   10  C19 UNK     1      -4.295  -1.234  -1.129  1.00  0.00     0.288 A 
HETATM   11  O1  UNK     1      -4.800  -1.106   0.156  1.00  0.00    -0.275 OA
HETATM   12  O2  UNK     1      -5.000  -1.095  -2.122  1.00  0.00    -0.260 OA
HETATM   13  C13 UNK     1      -3.979  -1.267   1.290  1.00  0.00     0.090 A 
HETATM   14  C9  UNK     1      -2.621  -1.562   1.161  1.00  0.00     0.007 A 
HETATM   15  C20 UNK     1      -4.595  -1.115   2.534  1.00  0.00     0.039 A 
HETATM   16  C15 UNK     1      -1.873  -1.706   2.338  1.00  0.00     0.022 A 
HETATM   17  C18 UNK     1      -2.476  -1.557   3.592  1.00  0.00    -0.058 A 
HETATM   18  C22 UNK     1      -3.835  -1.262   3.689  1.00  0.00     0.010 A 
BRANCH  17  19
HETATM   19  C23 UNK     1      -1.660  -1.714   4.831  1.00  0.00     0.034 C 
HETATM   20  C24 UNK     1      -1.045  -0.396   5.291  1.00  0.00     0.010 C 
ENDBRANCH  17  19
ENDBRANCH   7   8
ENDBRANCH   1   7
BRANCH   2  21
HETATM   21  C6  UNK     1       2.920   2.152  -1.738  1.00  0.00     0.036 A 
HETATM   22  C10 UNK     1       2.664   3.473  -1.368  1.00  0.00     0.030 A 
HETATM   23  C16 UNK     1       3.558   4.483  -1.725  1.00  0.00     0.003 A 
HETATM   24  C17 UNK     1       4.707   4.172  -2.451  1.00  0.00     0.007 A 
HETATM   25  C11 UNK     1       4.963   2.852  -2.821  1.00  0.00    -0.054 A 
HETATM   26  C8  UNK     1       4.069   1.842  -2.464  1.00  0.00    -0.029 A 
HETATM   27  C21 UNK     1       6.201   2.547  -3.598  1.00  0.00     0.049 C 
HETATM   28  C14 UNK     1       4.347   0.426  -2.862  1.00  0.00     0.051 C 
ENDBRANCH   2  21
TORSDOF 4
