REMARK  7 active torsions:
REMARK  status: ('A' for Active; 'I' for Inactive)
REMARK    1  A    between atoms: C1_9  and  S1_1 
REMARK    2  A    between atoms: N2_6  and  S1_1 
REMARK    3  A    between atoms: C2_10  and  N1_5 
REMARK       I    between atoms: C9_17  and  N1_5 
REMARK    4  A    between atoms: C18_26  and  N2_6 
REMARK    5  A    between atoms: C3_11  and  C8_16 
REMARK    6  A    between atoms: C3_11  and  C9_17 
REMARK    7  A    between atoms: C10_18  and  C11_19 
ROOT
HETATM    1  O3  UNK     1      -0.655  -2.099   0.388  1.00  0.00    -0.267 OA
HETATM    2  N1  UNK     1      -1.586  -0.027  -0.177  1.00  0.00    -0.323 N 
HETATM    3  C9  UNK     1      -1.519  -1.234   0.508  1.00  0.00     0.257 C 
HETATM    4  H5  UNK     1      -2.370   0.587   0.031  1.00  0.00     0.169 HD
ENDROOT
BRANCH   2   5
HETATM    5  C2  UNK     1      -0.677   0.465  -1.146  1.00  0.00     0.035 A 
HETATM    6  C6  UNK     1       0.424  -0.301  -1.492  1.00  0.00     0.031 A 
HETATM    7  C4  UNK     1       1.318   0.184  -2.446  1.00  0.00     0.027 A 
HETATM    8  C1  UNK     1       1.099   1.426  -3.040  1.00  0.00     0.080 A 
HETATM    9  C5  UNK     1      -0.015   2.185  -2.680  1.00  0.00     0.027 A 
HETATM   10  C7  UNK     1      -0.910   1.700  -1.726  1.00  0.00     0.031 A 
BRANCH   8  11
HETATM   11  S1  UNK     1       2.218   2.033  -4.235  1.00  0.00     0.276 S 
HETATM   12  O1  UNK     1       1.502   2.989  -5.070  1.00  0.00    -0.200 OA
HETATM   13  O2  UNK     1       2.880   0.901  -4.872  1.00  0.00    -0.200 OA
BRANCH  11  14
HETATM   14  N2  UNK     1       3.359   2.904  -3.282  1.00  0.00    -0.109 N 
HETATM   15  H7  UNK     1       3.094   3.874  -3.067  1.00  0.00     0.198 HD
BRANCH  14  16
HETATM   16  C18 UNK     1       3.963   2.230  -2.165  1.00  0.00     0.735 A 
HETATM   17  N3  UNK     1       3.631   2.689  -0.949  1.00  0.00    -0.074 NA
HETATM   18  C23 UNK     1       4.215   2.033   0.076  1.00  0.00     0.138 A 
HETATM   19  C25 UNK     1       5.086   0.975  -0.088  1.00  0.00     0.040 A 
HETATM   20  C24 UNK     1       5.340   0.607  -1.394  1.00  0.00     0.138 A 
HETATM   21  N4  UNK     1       4.791   1.218  -2.464  1.00  0.00    -0.074 NA
ENDBRANCH  14  16
ENDBRANCH  11  14
ENDBRANCH   8  11
ENDBRANCH   2   5
BRANCH   3  22
HETATM   22  C3  UNK     1      -2.667  -1.430   1.472  1.00  0.00     0.043 C 
HETATM   23  C10 UNK     1      -2.488  -0.945   2.729  1.00  0.00     0.029 C 
BRANCH  23  24
HETATM   24  C11 UNK     1      -1.298  -0.287   3.244  1.00  0.00    -0.035 A 
HETATM   25  C14 UNK     1      -0.295  -1.038   3.857  1.00  0.00     0.011 A 
HETATM   26  C20 UNK     1       0.847  -0.407   4.351  1.00  0.00     0.001 A 
HETATM   27  C22 UNK     1       0.985   0.976   4.232  1.00  0.00     0.000 A 
HETATM   28  C21 UNK     1      -0.017   1.727   3.619  1.00  0.00     0.001 A 
HETATM   29  C15 UNK     1      -1.159   1.096   3.125  1.00  0.00     0.011 A 
ENDBRANCH  23  24
BRANCH  22  30
HETATM   30  C8  UNK     1      -3.924  -2.083   1.056  1.00  0.00    -0.021 A 
HETATM   31  C12 UNK     1      -4.938  -1.313   0.516  1.00  0.00     0.012 A 
HETATM   32  C16 UNK     1      -6.126  -1.930   0.124  1.00  0.00     0.001 A 
HETATM   33  C19 UNK     1      -6.281  -3.307   0.279  1.00  0.00     0.000 A 
HETATM   34  C17 UNK     1      -5.248  -4.068   0.826  1.00  0.00     0.001 A 
HETATM   35  C13 UNK     1      -4.060  -3.451   1.218  1.00  0.00     0.012 A 
ENDBRANCH  22  30
ENDBRANCH   3  22
TORSDOF 7
