REMARK  3 active torsions:
REMARK  status: ('A' for Active; 'I' for Inactive)
REMARK    1  A    between atoms: C12_15  and  O2_2 
REMARK    2  A    between atoms: C5_8  and  O2_2 
REMARK    3  A    between atoms: C12_15  and  C13_16 
ROOT
HETATM    1  O1  UNK     1       0.545   0.751  -2.249  1.00  0.00    -0.274 OA
HETATM    2  O3  UNK     1       1.977   1.262  -3.957  1.00  0.00    -0.260 OA
HETATM    3  C1  UNK     1       1.366   0.791   0.051  1.00  0.00     0.005 A 
HETATM    4  C2  UNK     1       0.333   0.588  -0.866  1.00  0.00     0.099 A 
HETATM    5  C3  UNK     1      -0.953   0.217  -0.470  1.00  0.00     0.006 A 
HETATM    6  C4  UNK     1       2.689   1.181  -0.455  1.00  0.00    -0.043 A 
HETATM    7  C5  UNK     1      -1.222   0.041   0.883  1.00  0.00     0.077 A 
HETATM    8  C6  UNK     1       1.074   0.609   1.409  1.00  0.00     0.017 A 
HETATM    9  C7  UNK     1      -0.210   0.237   1.822  1.00  0.00     0.038 A 
HETATM   10  C8  UNK     1      -2.032   0.010  -1.482  1.00  0.00     0.054 C 
HETATM   11  C9  UNK     1       2.861   1.329  -1.776  1.00  0.00     0.090 A 
HETATM   12  C10 UNK     1       3.820   1.406   0.505  1.00  0.00     0.049 C 
HETATM   13  C11 UNK     1       1.782   1.118  -2.755  1.00  0.00     0.288 A 
ENDROOT
BRANCH   7  14
HETATM   14  O2  UNK     1      -2.465  -0.319   1.309  1.00  0.00    -0.347 OA
BRANCH  14  15
HETATM   15  C12 UNK     1      -2.573  -1.544   2.032  1.00  0.00     0.202 C 
BRANCH  15  16
HETATM   16  C13 UNK     1      -3.942  -2.103   1.829  1.00  0.00    -0.011 C 
HETATM   17  C14 UNK     1      -4.186  -3.299   1.282  1.00  0.00     0.009 C 
ENDBRANCH  15  16
ENDBRANCH  14  15
ENDBRANCH   7  14
TORSDOF 3
