REMARK  2 active torsions:
REMARK  status: ('A' for Active; 'I' for Inactive)
REMARK    1  A    between atoms: C5_10  and  O2_3 
REMARK    2  A    between atoms: C3_8  and  C6_11 
ROOT
HETATM    1 Cl1  UNK     1      -4.866  -2.341   1.992  1.00  0.00    -0.084 Cl
HETATM    2  O1  UNK     1      -0.448   0.046  -1.066  1.00  0.00    -0.306 OA
HETATM    3  O3  UNK     1      -0.048  -0.206   2.981  1.00  0.00    -0.284 OA
HETATM    4  C1  UNK     1      -1.374  -0.621   1.076  1.00  0.00     0.052 A 
HETATM    5  C2  UNK     1      -1.451  -0.503  -0.310  1.00  0.00     0.090 A 
HETATM    6  C3  UNK     1       0.695   0.495  -0.423  1.00  0.00     0.125 A 
HETATM    7  C4  UNK     1      -0.169  -0.134   1.766  1.00  0.00     0.220 A 
HETATM    8  C5  UNK     1       0.890   0.449   0.908  1.00  0.00     0.152 A 
HETATM    9  C7  UNK     1      -2.428  -1.189   1.795  1.00  0.00     0.042 A 
HETATM   10  C8  UNK     1      -2.584  -0.954  -0.987  1.00  0.00     0.040 A 
HETATM   11  C9  UNK     1      -3.561  -1.640   1.116  1.00  0.00     0.035 A 
HETATM   12  C10 UNK     1      -3.639  -1.523  -0.272  1.00  0.00     0.026 A 
ENDROOT
BRANCH   6  13
HETATM   13  C6  UNK     1       1.691   1.062  -1.350  1.00  0.00     0.018 A 
HETATM   14  C11 UNK     1       2.681   0.265  -1.912  1.00  0.00     0.017 A 
HETATM   15  C13 UNK     1       3.606   0.829  -2.783  1.00  0.00     0.020 A 
HETATM   16  C14 UNK     1       3.497   2.182  -3.058  1.00  0.00     0.116 A 
HETATM   17  N1  UNK     1       2.548   2.988  -2.531  1.00  0.00    -0.272 NA
HETATM   18  C12 UNK     1       1.666   2.405  -1.688  1.00  0.00     0.130 A 
ENDBRANCH   6  13
BRANCH   8  19
HETATM   19  O2  UNK     1       2.025   0.935   1.519  1.00  0.00    -0.355 OA
HETATM   20  H7  UNK     1       2.634   1.289   0.851  1.00  0.00     0.218 HD
ENDBRANCH   8  19
TORSDOF 2
