REMARK  5 active torsions:
REMARK  status: ('A' for Active; 'I' for Inactive)
REMARK    1  A    between atoms: C14_17  and  O1_1 
REMARK    2  A    between atoms: C9_12  and  N1_3 
REMARK    3  A    between atoms: C1_4  and  C4_7 
REMARK    4  A    between atoms: C14_17  and  C2_5 
REMARK    5  A    between atoms: C2_5  and  C3_6 
ROOT
HETATM    1  C2  UNK     1      -1.598  -0.549  -0.462  1.00  0.00     0.048 C 
HETATM    2  C4  UNK     1      -0.957  -0.136  -1.585  1.00  0.00     0.030 C 
ENDROOT
BRANCH   1   3
HETATM    3  C14 UNK     1      -2.948  -1.156  -0.645  1.00  0.00     0.177 C 
HETATM    4  O2  UNK     1      -3.522  -1.306  -1.713  1.00  0.00    -0.646 OA
BRANCH   3   5
HETATM    5  O1  UNK     1      -3.468  -1.536   0.546  1.00  0.00    -0.773 OA
HETATM    6  H13 UNK     1      -4.356  -1.941   0.446  1.00  0.00     0.167 HD
ENDBRANCH   3   5
ENDBRANCH   1   3
BRANCH   1   7
HETATM    7  C3  UNK     1      -0.990  -0.414   0.875  1.00  0.00    -0.019 A 
HETATM    8  C7  UNK     1      -1.211   0.742   1.606  1.00  0.00     0.012 A 
HETATM    9  C12 UNK     1      -0.637   0.870   2.870  1.00  0.00     0.001 A 
HETATM   10  C15 UNK     1       0.150  -0.159   3.386  1.00  0.00     0.000 A 
HETATM   11  C13 UNK     1       0.363  -1.317   2.638  1.00  0.00     0.001 A 
HETATM   12  C8  UNK     1      -0.211  -1.445   1.373  1.00  0.00     0.012 A 
ENDBRANCH   1   7
BRANCH   2  13
HETATM   13  C1  UNK     1       0.355   0.488  -1.640  1.00  0.00    -0.035 A 
HETATM   14  C5  UNK     1       0.470   1.877  -1.574  1.00  0.00     0.013 A 
HETATM   15  C10 UNK     1       1.729   2.476  -1.627  1.00  0.00     0.030 A 
HETATM   16  C9  UNK     1       2.872   1.686  -1.744  1.00  0.00     0.025 A 
HETATM   17  C11 UNK     1       2.758   0.298  -1.809  1.00  0.00     0.030 A 
HETATM   18  C6  UNK     1       1.499  -0.301  -1.757  1.00  0.00     0.013 A 
BRANCH  16  19
HETATM   19  N1  UNK     1       4.145   2.292  -1.796  1.00  0.00    -0.399 N 
HETATM   20  H11 UNK     1       4.975   1.720  -1.882  1.00  0.00     0.156 HD
HETATM   21  H12 UNK     1       4.229   3.298  -1.750  1.00  0.00     0.156 HD
ENDBRANCH  16  19
ENDBRANCH   2  13
TORSDOF 5
