REMARK  3 active torsions:
REMARK  status: ('A' for Active; 'I' for Inactive)
REMARK    1  A    between atoms: C2_6  and  C6_10 
REMARK    2  A    between atoms: C10_14  and  C6_10 
REMARK    3  A    between atoms: C10_14  and  C11_15 
ROOT
HETATM    1  O1  UNK     1      -0.637   1.649   3.807  1.00  0.00    -0.267 OA
HETATM    2  N1  UNK     1      -1.238   2.218   1.595  1.00  0.00    -0.322 N 
HETATM    3  C1  UNK     1       0.081   0.743   0.423  1.00  0.00     0.006 A 
HETATM    4  C2  UNK     1       0.308   0.550   1.851  1.00  0.00     0.048 A 
HETATM    5  C3  UNK     1      -0.865   1.767   0.323  1.00  0.00     0.046 A 
HETATM    6  C4  UNK     1      -0.560   1.520   2.599  1.00  0.00     0.257 A 
HETATM    7  C5  UNK     1       0.594   0.143  -0.712  1.00  0.00     0.015 A 
HETATM    8  C7  UNK     1      -1.332   2.227  -0.892  1.00  0.00     0.030 A 
HETATM    9  C8  UNK     1       0.135   0.594  -1.954  1.00  0.00     0.001 A 
HETATM   10  C9  UNK     1      -0.818   1.626  -2.043  1.00  0.00     0.002 A 
HETATM   11  H1  UNK     1      -1.913   2.958   1.751  1.00  0.00     0.169 HD
ENDROOT
BRANCH   4  12
HETATM   12  C6  UNK     1       1.125  -0.316   2.454  1.00  0.00     0.073 C 
BRANCH  12  13
HETATM   13  C10 UNK     1       1.956  -1.248   1.644  1.00  0.00     0.183 C 
HETATM   14  O2  UNK     1       3.086  -0.961   1.267  1.00  0.00    -0.288 OA
BRANCH  13  15
HETATM   15  C11 UNK     1       1.387  -2.579   1.320  1.00  0.00     0.014 A 
HETATM   16  C12 UNK     1       0.123  -2.896   1.777  1.00  0.00     0.017 A 
HETATM   17  C14 UNK     1      -0.411  -4.148   1.472  1.00  0.00     0.025 A 
HETATM   18  C16 UNK     1       0.330  -5.057   0.716  1.00  0.00     0.034 A 
HETATM   19  C15 UNK     1       1.604  -4.714   0.265  1.00  0.00     0.025 A 
HETATM   20 Cl1  UNK     1      -0.329  -6.601   0.339  1.00  0.00    -0.084 Cl
HETATM   21  C13 UNK     1       2.138  -3.462   0.570  1.00  0.00     0.017 A 
ENDBRANCH  13  15
ENDBRANCH  12  13
ENDBRANCH   4  12
TORSDOF 3
