REMARK  4 active torsions:
REMARK  status: ('A' for Active; 'I' for Inactive)
REMARK    1  A    between atoms: C10_15  and  O2_2 
REMARK    2  A    between atoms: C11_16  and  O2_2 
REMARK    3  A    between atoms: C8_13  and  O3_3 
REMARK    4  A    between atoms: C10_15  and  C4_9 
ROOT
HETATM    1  O1  UNK     1      -0.189  -0.007  -1.825  1.00  0.00    -0.274 OA
HETATM    2  O4  UNK     1      -2.054  -1.189  -1.236  1.00  0.00    -0.259 OA
HETATM    3  C1  UNK     1       1.308   0.814  -0.095  1.00  0.00    -0.001 A 
HETATM    4  C2  UNK     1       0.975   0.687  -1.439  1.00  0.00     0.092 A 
HETATM    5  C3  UNK     1       0.436   0.219   0.906  1.00  0.00     0.038 A 
HETATM    6  C4  UNK     1      -0.668  -0.439   0.533  1.00  0.00     0.115 A 
HETATM    7  C5  UNK     1       2.470   1.510   0.249  1.00  0.00     0.017 A 
HETATM    8  C6  UNK     1       1.767   1.233  -2.447  1.00  0.00     0.074 A 
HETATM    9  C7  UNK     1      -1.042  -0.587  -0.891  1.00  0.00     0.304 A 
HETATM   10  C8  UNK     1       2.924   1.925  -2.096  1.00  0.00     0.068 A 
HETATM   11  C9  UNK     1       3.275   2.064  -0.751  1.00  0.00     0.037 A 
ENDROOT
BRANCH   6  12
HETATM   12  C10 UNK     1      -1.483  -1.003   1.616  1.00  0.00     0.299 C 
HETATM   13  O5  UNK     1      -0.991  -1.371   2.674  1.00  0.00    -0.259 OA
BRANCH  12  14
HETATM   14  O2  UNK     1      -2.774  -1.019   1.223  1.00  0.00    -0.318 OA
BRANCH  14  15
HETATM   15  C11 UNK     1      -3.706  -1.540   2.174  1.00  0.00     0.174 C 
HETATM   16  C12 UNK     1      -5.098  -1.487   1.581  1.00  0.00     0.034 C 
ENDBRANCH  14  15
ENDBRANCH  12  14
ENDBRANCH   6  12
BRANCH  10  17
HETATM   17  O3  UNK     1       3.713   2.467  -3.064  1.00  0.00    -0.361 OA
HETATM   18  H10 UNK     1       3.321   2.276  -3.933  1.00  0.00     0.217 HD
ENDBRANCH  10  17
TORSDOF 4
