REMARK  12 active torsions:
REMARK  status: ('A' for Active; 'I' for Inactive)
REMARK    1  A    between atoms: C10_17  and  O1_1 
REMARK    2  A    between atoms: C11_18  and  O1_1 
REMARK    3  A    between atoms: C12_19  and  O2_2 
REMARK    4  A    between atoms: C13_20  and  O2_2 
REMARK    5  A    between atoms: C14_21  and  O3_3 
REMARK    6  A    between atoms: C22_29  and  O3_3 
REMARK    7  A    between atoms: C25_32  and  N1_6 
REMARK    8  A    between atoms: C1_8  and  C2_9 
REMARK    9  A    between atoms: C1_8  and  C3_10 
REMARK   10  A    between atoms: C11_18  and  C12_19 
REMARK   11  A    between atoms: C15_22  and  C19_26 
REMARK   12  A    between atoms: C20_27  and  C21_28 
ROOT
HETATM    1  N2  UNK     1      -2.685   1.049   2.227  1.00  0.00    -0.191 NA
HETATM    2  C19 UNK     1      -3.175  -1.925   0.521  1.00  0.00     0.035 C 
HETATM    3  C20 UNK     1      -3.584  -1.313   1.661  1.00  0.00     0.055 C 
HETATM    4  C29 UNK     1      -3.087  -0.010   1.972  1.00  0.00     0.100 C 
ENDROOT
BRANCH   3   5
HETATM    5  C21 UNK     1      -4.535  -1.939   2.601  1.00  0.00    -0.015 A 
HETATM    6  C23 UNK     1      -5.892  -1.730   2.427  1.00  0.00     0.015 A 
HETATM    7  C26 UNK     1      -6.791  -2.322   3.315  1.00  0.00     0.037 A 
HETATM    8  C25 UNK     1      -6.318  -3.115   4.361  1.00  0.00     0.102 A 
HETATM    9  C27 UNK     1      -4.947  -3.314   4.521  1.00  0.00     0.037 A 
HETATM   10  C24 UNK     1      -4.048  -2.722   3.633  1.00  0.00     0.015 A 
BRANCH   8  11
HETATM   11  N1  UNK     1      -7.234  -3.718   5.264  1.00  0.00    -0.116 N 
HETATM   12  O4  UNK     1      -8.463  -3.525   5.103  1.00  0.00    -0.532 OA
HETATM   13  O5  UNK     1      -6.788  -4.427   6.198  1.00  0.00    -0.532 OA
ENDBRANCH   8  11
ENDBRANCH   3   5
BRANCH   2  14
HETATM   14  C15 UNK     1      -2.251  -1.397  -0.471  1.00  0.00    -0.032 A 
HETATM   15  C16 UNK     1      -0.882  -1.630  -0.344  1.00  0.00     0.051 A 
HETATM   16  C14 UNK     1       0.003  -1.123  -1.295  1.00  0.00     0.102 A 
HETATM   17  C13 UNK     1      -0.486  -0.386  -2.368  1.00  0.00     0.102 A 
HETATM   18  C17 UNK     1      -1.850  -0.150  -2.501  1.00  0.00     0.040 A 
HETATM   19  C18 UNK     1      -2.735  -0.657  -1.550  1.00  0.00     0.014 A 
BRANCH  16  20
HETATM   20  O3  UNK     1       1.339  -1.358  -1.160  1.00  0.00    -0.349 OA
BRANCH  20  21
HETATM   21  C22 UNK     1       1.965  -0.872   0.026  1.00  0.00     0.171 C 
HETATM   22  C28 UNK     1       3.433  -1.243  -0.006  1.00  0.00     0.034 C 
ENDBRANCH  20  21
ENDBRANCH  16  20
BRANCH  17  23
HETATM   23  O2  UNK     1       0.374   0.116  -3.310  1.00  0.00    -0.346 OA
BRANCH  23  24
HETATM   24  C12 UNK     1       0.387   1.529  -3.477  1.00  0.00     0.202 C 
BRANCH  24  25
HETATM   25  C11 UNK     1       1.778   1.964  -3.896  1.00  0.00     0.202 C 
BRANCH  25  26
HETATM   26  O1  UNK     1       2.706   1.604  -2.875  1.00  0.00    -0.349 OA
BRANCH  26  27
HETATM   27  C10 UNK     1       3.815   2.383  -2.743  1.00  0.00     0.068 A 
HETATM   28  C8  UNK     1       4.349   3.031  -3.857  1.00  0.00     0.037 A 
HETATM   29  C6  UNK     1       5.485   3.829  -3.721  1.00  0.00     0.010 A 
HETATM   30  C3  UNK     1       6.065   3.962  -2.475  1.00  0.00    -0.054 A 
HETATM   31  C7  UNK     1       5.554   3.329  -1.358  1.00  0.00     0.010 A 
HETATM   32  C9  UNK     1       4.418   2.532  -1.494  1.00  0.00     0.037 A 
BRANCH  30  33
HETATM   33  C1  UNK     1       7.303   4.830  -2.327  1.00  0.00     0.014 C 
HETATM   34  C4  UNK     1       6.981   6.290  -2.670  1.00  0.00     0.015 C 
BRANCH  33  35
HETATM   35  C2  UNK     1       8.495   4.342  -3.175  1.00  0.00     0.004 C 
HETATM   36  C5  UNK     1       8.897   2.904  -2.869  1.00  0.00     0.006 C 
ENDBRANCH  33  35
ENDBRANCH  30  33
ENDBRANCH  26  27
ENDBRANCH  25  26
ENDBRANCH  24  25
ENDBRANCH  23  24
ENDBRANCH  17  23
ENDBRANCH   2  14
TORSDOF 12
