REMARK  5 active torsions:
REMARK  status: ('A' for Active; 'I' for Inactive)
REMARK    1  A    between atoms: C16_23  and  N1_6 
REMARK    2  A    between atoms: C3_10  and  N1_6 
REMARK    3  A    between atoms: C16_23  and  N2_7 
REMARK    4  A    between atoms: C8_15  and  N2_7 
REMARK    5  A    between atoms: C1_8  and  C3_10 
ROOT
HETATM    1  N2  UNK     1      -0.560  -0.033  -0.099  1.00  0.00    -0.333 N 
HETATM    2  H10 UNK     1      -0.635   0.412  -1.009  1.00  0.00     0.168 HD
ENDROOT
BRANCH   1   3
HETATM    3  C16 UNK     1       0.762  -0.159   0.362  1.00  0.00     0.172 C 
HETATM    4  S1  UNK     1       1.336  -1.167   1.578  1.00  0.00    -0.041 SA
BRANCH   3   5
HETATM    5  N1  UNK     1       1.700   0.622  -0.301  1.00  0.00    -0.363 N 
HETATM    6  H9  UNK     1       2.659   0.531   0.024  1.00  0.00     0.162 HD
BRANCH   5   7
HETATM    7  C3  UNK     1       1.456   1.538  -1.400  1.00  0.00     0.160 C 
BRANCH   7   8
HETATM    8  C1  UNK     1       2.724   2.174  -1.893  1.00  0.00    -0.038 A 
HETATM    9  C6  UNK     1       3.450   1.555  -2.907  1.00  0.00     0.048 A 
HETATM   10  C4  UNK     1       4.608   2.178  -3.326  1.00  0.00     0.105 A 
HETATM   11  O1  UNK     1       5.448   1.729  -4.299  1.00  0.00    -0.323 OA
HETATM   12  C7  UNK     1       5.036   3.362  -2.771  1.00  0.00     0.105 A 
HETATM   13  C15 UNK     1       6.453   2.764  -4.293  1.00  0.00     0.352 A 
HETATM   14  O2  UNK     1       6.197   3.803  -3.326  1.00  0.00    -0.323 OA
HETATM   15  C13 UNK     1       4.329   3.989  -1.766  1.00  0.00     0.040 A 
HETATM   16  C10 UNK     1       3.153   3.380  -1.322  1.00  0.00     0.012 A 
ENDBRANCH   7   8
ENDBRANCH   5   7
ENDBRANCH   3   5
ENDBRANCH   1   3
BRANCH   1  17
HETATM   17  C8  UNK     1      -1.758  -0.632   0.293  1.00  0.00     0.036 A 
HETATM   18  C11 UNK     1      -1.983  -0.932   1.632  1.00  0.00     0.067 A 
HETATM   19  C5  UNK     1      -3.189  -1.530   2.003  1.00  0.00     0.092 A 
HETATM   20  C2  UNK     1      -4.184  -1.840   1.074  1.00  0.00     0.004 A 
HETATM   21  O3  UNK     1      -3.359  -1.809   3.374  1.00  0.00    -0.275 OA
HETATM   22  C12 UNK     1      -3.938  -1.529  -0.270  1.00  0.00     0.017 A 
HETATM   23  C9  UNK     1      -5.422  -2.468   1.554  1.00  0.00    -0.043 A 
HETATM   24  C14 UNK     1      -2.734  -0.930  -0.657  1.00  0.00     0.030 A 
HETATM   25  C17 UNK     1      -5.557  -2.722   2.863  1.00  0.00     0.090 A 
HETATM   26  C18 UNK     1      -6.511  -2.814   0.580  1.00  0.00     0.049 C 
HETATM   27  C19 UNK     1      -4.517  -2.401   3.855  1.00  0.00     0.288 A 
HETATM   28  O4  UNK     1      -4.675  -2.649   5.045  1.00  0.00    -0.260 OA
ENDBRANCH   1  17
TORSDOF 5
