REMARK  5 active torsions:
REMARK  status: ('A' for Active; 'I' for Inactive)
REMARK    1  A    between atoms: C5_11  and  O2_2 
REMARK    2  A    between atoms: C11_17  and  O4_4 
REMARK    3  A    between atoms: C13_19  and  O5_5 
REMARK    4  A    between atoms: C15_21  and  O6_6 
REMARK    5  A    between atoms: C2_8  and  C4_10 
ROOT
HETATM    1  O1  UNK     1      -0.708  -0.436  -0.580  1.00  0.00    -0.306 OA
HETATM    2  O3  UNK     1      -1.374   0.998   3.176  1.00  0.00    -0.284 OA
HETATM    3  C1  UNK     1      -2.028  -0.479   1.457  1.00  0.00     0.053 A 
HETATM    4  C2  UNK     1       0.106   0.537  -0.022  1.00  0.00     0.123 A 
HETATM    5  C3  UNK     1      -1.749  -0.925   0.167  1.00  0.00     0.090 A 
HETATM    6  C5  UNK     1      -0.060   1.059   1.206  1.00  0.00     0.152 A 
HETATM    7  C6  UNK     1      -1.175   0.563   2.049  1.00  0.00     0.220 A 
HETATM    8  C7  UNK     1      -3.103  -1.013   2.171  1.00  0.00     0.055 A 
HETATM    9  C8  UNK     1      -2.545  -1.910  -0.418  1.00  0.00     0.041 A 
HETATM   10  C11 UNK     1      -3.898  -1.999   1.584  1.00  0.00     0.066 A 
HETATM   11  C12 UNK     1      -3.619  -2.446   0.292  1.00  0.00     0.039 A 
ENDROOT
BRANCH   4  12
HETATM   12  C4  UNK     1       1.183   0.973  -0.929  1.00  0.00     0.004 A 
HETATM   13  C10 UNK     1       2.423   0.334  -0.900  1.00  0.00     0.017 A 
HETATM   14  C14 UNK     1       3.441   0.746  -1.759  1.00  0.00     0.040 A 
HETATM   15  C15 UNK     1       3.221   1.799  -2.647  1.00  0.00     0.098 A 
HETATM   16  C13 UNK     1       1.982   2.438  -2.677  1.00  0.00     0.099 A 
HETATM   17  C9  UNK     1       0.963   2.026  -1.819  1.00  0.00     0.053 A 
BRANCH  15  18
HETATM   18  O6  UNK     1       4.224   2.193  -3.480  1.00  0.00    -0.358 OA
HETATM   19  H10 UNK     1       3.850   2.658  -4.246  1.00  0.00     0.217 HD
ENDBRANCH  15  18
BRANCH  16  20
HETATM   20  O5  UNK     1       1.755   3.468  -3.540  1.00  0.00    -0.358 OA
HETATM   21  H9  UNK     1       2.600   3.866  -3.805  1.00  0.00     0.217 HD
ENDBRANCH  16  20
ENDBRANCH   4  12
BRANCH   6  22
HETATM   22  O2  UNK     1       0.748   2.050   1.719  1.00  0.00    -0.355 OA
HETATM   23  H7  UNK     1       1.432   2.286   1.071  1.00  0.00     0.218 HD
ENDBRANCH   6  22
BRANCH  10  24
HETATM   24  O4  UNK     1      -4.948  -2.525   2.273  1.00  0.00    -0.361 OA
HETATM   25  H8  UNK     1      -4.995  -2.102   3.147  1.00  0.00     0.217 HD
ENDBRANCH  10  24
TORSDOF 5
