REMARK  5 active torsions:
REMARK  status: ('A' for Active; 'I' for Inactive)
REMARK    1  A    between atoms: C7_15  and  O3_3 
REMARK    2  A    between atoms: C12_20  and  O4_4 
REMARK    3  A    between atoms: C15_23  and  O6_6 
REMARK    4  A    between atoms: C8_16  and  N1_7 
REMARK    5  A    between atoms: C1_9  and  C3_11 
ROOT
HETATM    1  O1  UNK     1       0.678   1.464  -2.719  1.00  0.00    -0.291 OA
HETATM    2  O2  UNK     1       3.202   0.438   0.456  1.00  0.00    -0.274 OA
HETATM    3  O5  UNK     1       1.779  -1.241   1.049  1.00  0.00    -0.259 OA
HETATM    4  N2  UNK     1      -2.892  -1.755  -3.027  1.00  0.00    -0.191 NA
HETATM    5  C1  UNK     1      -0.180  -0.651  -0.977  1.00  0.00     0.111 C 
HETATM    6  C2  UNK     1       1.127   0.101  -0.803  1.00  0.00     0.066 A 
HETATM    7  C4  UNK     1       1.465   1.088  -1.646  1.00  0.00     0.104 A 
HETATM    8  C5  UNK     1      -0.868  -0.311  -2.296  1.00  0.00     0.086 C 
HETATM    9  C6  UNK     1       2.705   1.839  -1.471  1.00  0.00     0.033 A 
HETATM   10  C8  UNK     1      -0.432   0.702  -3.079  1.00  0.00     0.159 C 
HETATM   11  C9  UNK     1       2.035  -0.302   0.302  1.00  0.00     0.298 A 
HETATM   12  C11 UNK     1       3.541   1.493  -0.413  1.00  0.00     0.092 A 
HETATM   13  C14 UNK     1       3.099   2.892  -2.306  1.00  0.00     0.017 A 
HETATM   14  C16 UNK     1       4.742   2.159  -0.168  1.00  0.00     0.038 A 
HETATM   15  C17 UNK     1      -1.986  -1.109  -2.699  1.00  0.00     0.100 C 
HETATM   16  C18 UNK     1       4.301   3.569  -2.074  1.00  0.00     0.001 A 
HETATM   17  C19 UNK     1       5.120   3.203  -1.006  1.00  0.00     0.003 A 
ENDROOT
BRANCH   5  18
HETATM   18  C3  UNK     1      -1.103  -0.374   0.173  1.00  0.00    -0.008 A 
HETATM   19  C10 UNK     1      -1.534   0.931   0.391  1.00  0.00     0.014 A 
HETATM   20  C13 UNK     1      -2.393   1.206   1.455  1.00  0.00     0.040 A 
HETATM   21  C15 UNK     1      -2.817   0.176   2.294  1.00  0.00     0.104 A 
HETATM   22  C12 UNK     1      -2.381  -1.130   2.070  1.00  0.00     0.135 A 
HETATM   23  C7  UNK     1      -1.522  -1.406   1.006  1.00  0.00     0.111 A 
BRANCH  21  24
HETATM   24  O6  UNK     1      -3.654   0.459   3.331  1.00  0.00    -0.353 OA
HETATM   25  C22 UNK     1      -5.055   0.388   3.071  1.00  0.00     0.210 C 
ENDBRANCH  21  24
BRANCH  22  26
HETATM   26  O4  UNK     1      -2.795  -2.137   2.892  1.00  0.00    -0.351 OA
HETATM   27  C21 UNK     1      -1.990  -2.409   4.036  1.00  0.00     0.210 C 
ENDBRANCH  22  26
BRANCH  23  28
HETATM   28  O3  UNK     1      -1.096  -2.684   0.791  1.00  0.00    -0.352 OA
HETATM   29  C20 UNK     1      -2.098  -3.664   0.534  1.00  0.00     0.210 C 
ENDBRANCH  23  28
ENDBRANCH   5  18
BRANCH  10  30
HETATM   30  N1  UNK     1      -0.999   1.082  -4.264  1.00  0.00    -0.379 N 
HETATM   31  H6  UNK     1      -0.592   1.856  -4.774  1.00  0.00     0.158 HD
HETATM   32  H7  UNK     1      -1.812   0.604  -4.630  1.00  0.00     0.158 HD
ENDBRANCH  10  30
TORSDOF 5
