REMARK  6 active torsions:
REMARK  status: ('A' for Active; 'I' for Inactive)
REMARK    1  A    between atoms: C1_8  and  S1_1 
REMARK    2  A    between atoms: C2_9  and  S1_1 
REMARK    3  A    between atoms: C3_10  and  N1_6 
REMARK    4  A    between atoms: C7_14  and  N1_6 
REMARK    5  A    between atoms: C9_16  and  N2_7 
REMARK    6  A    between atoms: C2_9  and  C3_10 
ROOT
HETATM    1  O1  UNK     1      -2.407  -1.714   1.932  1.00  0.00    -0.273 OA
HETATM    2  O2  UNK     1      -1.091  -1.315   3.752  1.00  0.00    -0.257 OA
HETATM    3  C7  UNK     1      -0.770   0.111   0.445  1.00  0.00     0.081 A 
HETATM    4  C8  UNK     1      -1.929  -0.571  -0.185  1.00  0.00     0.027 A 
HETATM    5  C9  UNK     1      -0.554  -0.181   1.739  1.00  0.00     0.205 A 
HETATM    6  C10 UNK     1      -2.700  -1.456   0.578  1.00  0.00     0.092 A 
HETATM    7  C11 UNK     1      -2.320  -0.389  -1.523  1.00  0.00     0.017 A 
HETATM    8  C12 UNK     1      -1.344  -1.099   2.573  1.00  0.00     0.324 A 
HETATM    9  C13 UNK     1      -3.805  -2.137   0.058  1.00  0.00     0.038 A 
HETATM   10  C14 UNK     1      -3.425  -1.064  -2.057  1.00  0.00     0.001 A 
HETATM   11  C15 UNK     1      -4.167  -1.937  -1.268  1.00  0.00     0.003 A 
ENDROOT
BRANCH   3  12
HETATM   12  N1  UNK     1      -0.027   0.967  -0.327  1.00  0.00    -0.386 N 
HETATM   13  H14 UNK     1       0.672   1.546   0.120  1.00  0.00     0.159 HD
BRANCH  12  14
HETATM   14  C3  UNK     1      -0.030   0.933  -1.763  1.00  0.00     0.130 C 
BRANCH  14  15
HETATM   15  C2  UNK     1       1.208   1.611  -2.337  1.00  0.00     0.094 C 
BRANCH  15  16
HETATM   16  S1  UNK     1       2.750   0.844  -1.752  1.00  0.00    -0.159 SA
BRANCH  16  17
HETATM   17  C1  UNK     1       3.917   1.905  -2.634  1.00  0.00    -0.003 C 
HETATM   18  C4  UNK     1       3.702   3.352  -2.183  1.00  0.00     0.026 C 
HETATM   19  C5  UNK     1       5.338   1.447  -2.292  1.00  0.00     0.026 C 
HETATM   20  C6  UNK     1       3.663   1.770  -4.138  1.00  0.00     0.026 C 
ENDBRANCH  16  17
ENDBRANCH  15  16
ENDBRANCH  14  15
ENDBRANCH  12  14
ENDBRANCH   3  12
BRANCH   5  21
HETATM   21  N2  UNK     1       0.551   0.456   2.380  1.00  0.00    -0.107 N 
HETATM   22  O3  UNK     1       1.227   1.231   1.694  1.00  0.00    -0.531 OA
HETATM   23  O4  UNK     1       0.744   0.182   3.570  1.00  0.00    -0.531 OA
ENDBRANCH   5  21
TORSDOF 6
