REMARK  4 active torsions:
REMARK  status: ('A' for Active; 'I' for Inactive)
REMARK    1  A    between atoms: C1_5  and  N1_3 
REMARK    2  A    between atoms: C11_15  and  N2_4 
REMARK    3  A    between atoms: C11_15  and  C12_16 
REMARK    4  A    between atoms: C18_22  and  C21_25 
ROOT
HETATM    1  O1  UNK     1       3.634   2.846  -0.206  1.00  0.00    -0.275 OA
HETATM    2  O2  UNK     1       4.110   2.514   2.006  1.00  0.00    -0.260 OA
HETATM    3  C12 UNK     1       2.323   0.339  -0.199  1.00  0.00    -0.011 A 
HETATM    4  C13 UNK     1       2.382   1.141  -1.428  1.00  0.00     0.007 A 
HETATM    5  C14 UNK     1       2.899   0.814   0.915  1.00  0.00     0.092 A 
HETATM    6  C15 UNK     1       3.038   2.372  -1.392  1.00  0.00     0.090 A 
HETATM    7  C16 UNK     1       1.814   0.742  -2.646  1.00  0.00     0.022 A 
HETATM    8  C17 UNK     1       3.594   2.111   0.969  1.00  0.00     0.288 A 
HETATM    9  C18 UNK     1       1.908   1.557  -3.780  1.00  0.00    -0.058 A 
HETATM   10  C19 UNK     1       3.140   3.196  -2.515  1.00  0.00     0.039 A 
HETATM   11  C20 UNK     1       2.570   2.782  -3.714  1.00  0.00     0.010 A 
ENDROOT
BRANCH   3  12
HETATM   12  C11 UNK     1       1.630  -0.980  -0.204  1.00  0.00     0.312 C 
BRANCH  12  13
HETATM   13  N2  UNK     1       0.213  -0.860   0.135  1.00  0.00     0.092 N 
HETATM   14  C4  UNK     1      -0.543  -2.000  -0.401  1.00  0.00     0.275 C 
HETATM   15  C2  UNK     1      -2.037  -1.864  -0.100  1.00  0.00     0.066 C 
HETATM   16  C1  UNK     1      -2.282  -1.713   1.404  1.00  0.00     0.226 C 
HETATM   17  C3  UNK     1      -1.435  -0.565   1.959  1.00  0.00     0.066 C 
HETATM   18  C5  UNK     1       0.040  -0.744   1.590  1.00  0.00     0.275 C 
BRANCH  16  19
HETATM   19  N1  UNK     1      -3.699  -1.478   1.683  1.00  0.00     0.093 N 
HETATM   20  C6  UNK     1      -4.524  -2.535   1.082  1.00  0.00     0.273 C 
HETATM   21  C8  UNK     1      -6.012  -2.278   1.322  1.00  0.00     0.030 C 
HETATM   22  C10 UNK     1      -6.316  -2.129   2.809  1.00  0.00     0.003 C 
HETATM   23  C9  UNK     1      -5.398  -1.088   3.439  1.00  0.00     0.030 C 
HETATM   24  C7  UNK     1      -3.929  -1.383   3.132  1.00  0.00     0.273 C 
ENDBRANCH  16  19
ENDBRANCH  12  13
ENDBRANCH   3  12
BRANCH   9  25
HETATM   25  C21 UNK     1       1.296   1.112  -5.066  1.00  0.00     0.034 C 
HETATM   26  C22 UNK     1      -0.151   1.573  -5.210  1.00  0.00     0.010 C 
ENDBRANCH   9  25
TORSDOF 4
