REMARK  6 active torsions:
REMARK  status: ('A' for Active; 'I' for Inactive)
REMARK    1  A    between atoms: C13_17  and  O2_2 
REMARK    2  A    between atoms: C15_19  and  O2_2 
REMARK    3  A    between atoms: C1_5  and  C2_6 
REMARK    4  A    between atoms: C2_6  and  C3_7 
REMARK    5  A    between atoms: C15_19  and  C16_20 
REMARK    6  A    between atoms: C16_20  and  C17_21 
ROOT
HETATM    1  O1  UNK     1      -1.604  -1.822  -0.308  1.00  0.00    -0.274 OA
HETATM    2  O3  UNK     1      -3.511  -2.968  -0.757  1.00  0.00    -0.259 OA
HETATM    3  C3  UNK     1      -3.325  -2.047   1.432  1.00  0.00     0.025 A 
HETATM    4  C4  UNK     1      -2.564  -1.366   2.316  1.00  0.00    -0.037 A 
HETATM    5  C5  UNK     1      -1.254  -0.834   1.888  1.00  0.00     0.005 A 
HETATM    6  C8  UNK     1      -0.819  -1.083   0.590  1.00  0.00     0.092 A 
HETATM    7  C9  UNK     1      -2.846  -2.321   0.046  1.00  0.00     0.295 A 
HETATM    8  C10 UNK     1      -2.965  -1.120   3.750  1.00  0.00     0.050 C 
HETATM    9  C11 UNK     1      -0.409  -0.074   2.712  1.00  0.00     0.017 A 
HETATM   10  C12 UNK     1       0.406  -0.617   0.105  1.00  0.00     0.075 A 
HETATM   11  C13 UNK     1       1.230   0.129   0.940  1.00  0.00     0.072 A 
HETATM   12  C14 UNK     1       0.822   0.401   2.242  1.00  0.00     0.038 A 
ENDROOT
BRANCH  11  13
HETATM   13  O2  UNK     1       2.426   0.592   0.487  1.00  0.00    -0.344 OA
BRANCH  13  14
HETATM   14  C15 UNK     1       2.526   0.879  -0.908  1.00  0.00     0.259 C 
BRANCH  14  15
HETATM   15  C16 UNK     1       3.533   1.989  -1.138  1.00  0.00     0.183 C 
HETATM   16  O4  UNK     1       4.113   2.539  -0.205  1.00  0.00    -0.290 OA
BRANCH  15  17
HETATM   17  C17 UNK     1       3.819   2.419  -2.538  1.00  0.00     0.012 A 
HETATM   18  C18 UNK     1       3.157   1.792  -3.570  1.00  0.00     0.015 A 
HETATM   19  C20 UNK     1       3.424   2.195  -4.878  1.00  0.00     0.001 A 
HETATM   20  C22 UNK     1       4.345   3.215  -5.120  1.00  0.00     0.000 A 
HETATM   21  C21 UNK     1       4.999   3.831  -4.053  1.00  0.00     0.001 A 
HETATM   22  C19 UNK     1       4.732   3.428  -2.744  1.00  0.00     0.015 A 
ENDBRANCH  15  17
ENDBRANCH  14  15
ENDBRANCH  13  14
ENDBRANCH  11  13
BRANCH   3  23
HETATM   23  C2  UNK     1      -4.703  -2.586   1.718  1.00  0.00     0.049 C 
BRANCH  23  24
HETATM   24  C1  UNK     1      -5.811  -1.583   1.383  1.00  0.00    -0.018 C 
HETATM   25  C6  UNK     1      -5.784  -1.155  -0.087  1.00  0.00     0.010 C 
HETATM   26  C7  UNK     1      -5.671  -0.352   2.282  1.00  0.00     0.010 C 
ENDBRANCH  23  24
ENDBRANCH   3  23
TORSDOF 6
