REMARK  6 active torsions:
REMARK  status: ('A' for Active; 'I' for Inactive)
REMARK    1  A    between atoms: C13_19  and  O2_2 
REMARK    2  A    between atoms: C9_15  and  O2_2 
REMARK       I    between atoms: C21_27  and  N1_5 
REMARK    3  A    between atoms: N1_5  and  N2_6 
REMARK    4  A    between atoms: C17_23  and  C7_13 
REMARK    5  A    between atoms: C10_16  and  C9_15 
REMARK    6  A    between atoms: C14_20  and  C21_27 
ROOT
HETATM    1  O4  UNK     1      -0.167   0.441  -2.824  1.00  0.00    -0.266 OA
HETATM    2  N1  UNK     1       0.535   0.602  -0.624  1.00  0.00    -0.243 N 
HETATM    3  C21 UNK     1       0.661   0.792  -1.987  1.00  0.00     0.271 C 
HETATM    4  H20 UNK     1       1.252   0.846   0.052  1.00  0.00     0.192 HD
ENDROOT
BRANCH   2   5
HETATM    5  N2  UNK     1      -0.577  -0.013  -0.156  1.00  0.00    -0.183 NA
HETATM    6  C17 UNK     1      -0.589  -0.175   1.127  1.00  0.00     0.156 C 
BRANCH   6   7
HETATM    7  C7  UNK     1      -1.701  -0.819   1.827  1.00  0.00     0.056 A 
HETATM    8  C11 UNK     1      -1.619  -0.938   3.157  1.00  0.00     0.159 A 
HETATM    9  O1  UNK     1      -2.561  -1.511   3.979  1.00  0.00    -0.321 OA
HETATM   10  C2  UNK     1      -3.697  -2.012   3.392  1.00  0.00     0.089 A 
HETATM   11  C1  UNK     1      -3.923  -1.960   2.015  1.00  0.00     0.049 A 
HETATM   12  C6  UNK     1      -4.647  -2.592   4.234  1.00  0.00     0.039 A 
HETATM   13  C4  UNK     1      -5.098  -2.486   1.474  1.00  0.00     0.025 A 
HETATM   14  C5  UNK     1      -2.905  -1.342   1.145  1.00  0.00     0.198 A 
HETATM   15  C3  UNK     1      -6.046  -3.065   2.319  1.00  0.00    -0.061 A 
HETATM   16  C12 UNK     1      -7.304  -3.630   1.749  1.00  0.00     0.048 C 
HETATM   17  C8  UNK     1      -5.821  -3.118   3.695  1.00  0.00     0.009 A 
HETATM   18  O3  UNK     1      -3.050  -1.269  -0.068  1.00  0.00    -0.286 OA
ENDBRANCH   6   7
ENDBRANCH   2   5
BRANCH   3  19
HETATM   19  C14 UNK     1       1.914   1.453  -2.435  1.00  0.00     0.033 A 
HETATM   20  C18 UNK     1       2.564   2.307  -1.568  1.00  0.00     0.020 A 
HETATM   21  C15 UNK     1       3.739   2.929  -1.990  1.00  0.00     0.038 A 
HETATM   22  C13 UNK     1       4.239   2.682  -3.268  1.00  0.00     0.068 A 
HETATM   23  C16 UNK     1       3.563   1.813  -4.125  1.00  0.00     0.038 A 
HETATM   24  C19 UNK     1       2.388   1.192  -3.704  1.00  0.00     0.020 A 
BRANCH  22  25
HETATM   25  O2  UNK     1       5.385   3.289  -3.680  1.00  0.00    -0.351 OA
BRANCH  25  26
HETATM   26  C9  UNK     1       6.352   3.599  -2.677  1.00  0.00     0.175 C 
BRANCH  26  27
HETATM   27  C10 UNK     1       7.737   3.570  -3.304  1.00  0.00     0.022 C 
HETATM   28  C20 UNK     1       8.823   3.877  -2.289  1.00  0.00     0.007 C 
ENDBRANCH  26  27
ENDBRANCH  25  26
ENDBRANCH  22  25
ENDBRANCH   3  19
TORSDOF 6
