REMARK  4 active torsions:
REMARK  status: ('A' for Active; 'I' for Inactive)
REMARK    1  A    between atoms: N1_4  and  N2_5 
REMARK    2  A    between atoms: C12_18  and  N2_5 
REMARK    3  A    between atoms: C12_18  and  N3_6 
REMARK    4  A    between atoms: C2_8  and  C5_11 
ROOT
HETATM    1  O1  UNK     1       0.969   0.252  -2.481  1.00  0.00    -0.274 OA
HETATM    2  O2  UNK     1      -1.153  -0.595  -2.488  1.00  0.00    -0.259 OA
HETATM    3  C1  UNK     1       1.820   1.340  -0.480  1.00  0.00    -0.001 A 
HETATM    4  C2  UNK     1      -0.430   0.442  -0.484  1.00  0.00     0.066 A 
HETATM    5  C3  UNK     1       2.001   0.920  -1.794  1.00  0.00     0.089 A 
HETATM    6  C4  UNK     1       0.547   1.077   0.173  1.00  0.00     0.034 A 
HETATM    7  C6  UNK     1       2.868   1.999   0.168  1.00  0.00     0.014 A 
HETATM    8  C7  UNK     1      -0.259  -0.014  -1.882  1.00  0.00     0.300 A 
HETATM    9  C8  UNK     1       3.196   1.141  -2.477  1.00  0.00     0.038 A 
HETATM   10  C9  UNK     1       4.072   2.228  -0.504  1.00  0.00     0.001 A 
HETATM   11  C10 UNK     1       4.235   1.800  -1.824  1.00  0.00     0.003 A 
ENDROOT
BRANCH   4  12
HETATM   12  C5  UNK     1      -1.677   0.224   0.259  1.00  0.00     0.067 C 
HETATM   13  C11 UNK     1      -2.734   1.307   0.163  1.00  0.00     0.073 C 
HETATM   14  N1  UNK     1      -1.810  -0.875   0.953  1.00  0.00    -0.177 NA
BRANCH  14  15
HETATM   15  N2  UNK     1      -2.964  -1.065   1.634  1.00  0.00    -0.253 N 
HETATM   16  H9  UNK     1      -3.683  -0.353   1.584  1.00  0.00     0.191 HD
BRANCH  15  17
HETATM   17  C12 UNK     1      -3.161  -2.201   2.380  1.00  0.00     0.185 C 
HETATM   18  S1  UNK     1      -4.580  -2.453   3.227  1.00  0.00    -0.040 SA
BRANCH  17  19
HETATM   19  N3  UNK     1      -2.144  -3.116   2.399  1.00  0.00    -0.375 N 
HETATM   20  H10 UNK     1      -1.283  -2.961   1.884  1.00  0.00     0.158 HD
HETATM   21  H11 UNK     1      -2.217  -3.978   2.928  1.00  0.00     0.158 HD
ENDBRANCH  17  19
ENDBRANCH  15  17
ENDBRANCH  14  15
ENDBRANCH   4  12
TORSDOF 4
