REMARK  7 active torsions:
REMARK  status: ('A' for Active; 'I' for Inactive)
REMARK    1  A    between atoms: C16_26  and  S1_1 
REMARK    2  A    between atoms: C7_17  and  S1_1 
REMARK    3  A    between atoms: C17_27  and  N1_7 
REMARK    4  A    between atoms: C4_14  and  N1_7 
REMARK       I    between atoms: C12_22  and  N2_8 
REMARK    5  A    between atoms: N2_8  and  N4_10 
REMARK    6  A    between atoms: C17_27  and  N4_10 
REMARK    7  A    between atoms: C12_22  and  C7_17 
ROOT
HETATM    1  N4  UNK     1       3.202   1.668   0.715  1.00  0.00    -0.274 N 
HETATM    2  H16 UNK     1       4.212   1.653   0.813  1.00  0.00     0.189 HD
ENDROOT
BRANCH   1   3
HETATM    3  C17 UNK     1       2.375   0.978   1.594  1.00  0.00     0.191 C 
HETATM    4  S3  UNK     1       3.122   0.116   2.823  1.00  0.00    -0.039 SA
BRANCH   3   5
HETATM    5  N1  UNK     1       1.001   1.124   1.332  1.00  0.00    -0.332 N 
HETATM    6  H9  UNK     1       0.772   1.958   0.801  1.00  0.00     0.168 HD
BRANCH   5   7
HETATM    7  C4  UNK     1      -0.119   0.324   1.558  1.00  0.00     0.037 A 
HETATM    8  C8  UNK     1       0.028  -0.937   2.133  1.00  0.00     0.030 A 
HETATM    9  C5  UNK     1      -1.092  -1.744   2.362  1.00  0.00     0.017 A 
HETATM   10  C1  UNK     1      -2.377  -1.302   2.018  1.00  0.00     0.004 A 
HETATM   11  C2  UNK     1      -2.493  -0.036   1.443  1.00  0.00     0.092 A 
HETATM   12  C3  UNK     1      -3.596  -2.094   2.227  1.00  0.00    -0.043 A 
HETATM   13  O1  UNK     1      -3.749   0.482   1.068  1.00  0.00    -0.275 OA
HETATM   14  C6  UNK     1      -1.385   0.781   1.209  1.00  0.00     0.067 A 
HETATM   15  C11 UNK     1      -4.916  -0.243   1.253  1.00  0.00     0.288 A 
HETATM   16  O2  UNK     1      -6.014   0.198   0.931  1.00  0.00    -0.260 OA
HETATM   17  C9  UNK     1      -4.777  -1.577   1.861  1.00  0.00     0.090 A 
HETATM   18  C10 UNK     1      -3.505  -3.460   2.843  1.00  0.00     0.049 C 
ENDBRANCH   5   7
ENDBRANCH   3   5
ENDBRANCH   1   3
BRANCH   1  19
HETATM   19  N2  UNK     1       2.694   2.426  -0.314  1.00  0.00    -0.267 N 
HETATM   20  C12 UNK     1       3.436   2.569  -1.474  1.00  0.00     0.249 C 
HETATM   21  O3  UNK     1       4.541   2.066  -1.670  1.00  0.00    -0.271 OA
HETATM   22  H13 UNK     1       1.876   2.992  -0.125  1.00  0.00     0.190 HD
BRANCH  20  23
HETATM   23  C7  UNK     1       2.716   3.409  -2.517  1.00  0.00     0.144 C 
HETATM   24  C15 UNK     1       3.545   4.616  -2.936  1.00  0.00     0.032 C 
BRANCH  23  25
HETATM   25  S1  UNK     1       2.408   2.342  -3.964  1.00  0.00    -0.089 SA
BRANCH  25  26
HETATM   26  C16 UNK     1       1.429   1.038  -3.230  1.00  0.00     0.136 A 
HETATM   27  S2  UNK     1      -0.258   1.140  -3.160  1.00  0.00    -0.061 SA
HETATM   28  C13 UNK     1      -0.275  -0.397  -2.377  1.00  0.00     0.036 A 
HETATM   29  C14 UNK     1       1.039  -0.855  -2.240  1.00  0.00     0.075 A 
HETATM   30  C18 UNK     1      -1.372  -1.144  -1.919  1.00  0.00     0.021 A 
HETATM   31  N3  UNK     1       2.015  -0.006  -2.742  1.00  0.00    -0.233 NA
HETATM   32  C19 UNK     1       1.260  -2.104  -1.621  1.00  0.00     0.033 A 
HETATM   33  C21 UNK     1       0.172  -2.853  -1.162  1.00  0.00     0.002 A 
HETATM   34  C20 UNK     1      -1.126  -2.377  -1.310  1.00  0.00     0.002 A 
ENDBRANCH  25  26
ENDBRANCH  23  25
ENDBRANCH  20  23
ENDBRANCH   1  19
TORSDOF 7
