REMARK  2 active torsions:
REMARK  status: ('A' for Active; 'I' for Inactive)
REMARK    1  A    between atoms: C11_15  and  O3_3 
REMARK    2  A    between atoms: C11_15  and  C9_13 
ROOT
HETATM    1  O1  UNK     1      -0.341  -0.152   1.206  1.00  0.00    -0.303 OA
HETATM    2  O2  UNK     1      -1.162  -0.075  -2.788  1.00  0.00    -0.287 OA
HETATM    3  C1  UNK     1       0.358   0.432  -1.047  1.00  0.00     0.048 A 
HETATM    4  C2  UNK     1       0.575   0.375   0.330  1.00  0.00     0.090 A 
HETATM    5  C3  UNK     1       2.512   1.474  -1.349  1.00  0.00    -0.061 A 
HETATM    6  C4  UNK     1       1.325   0.981  -1.892  1.00  0.00     0.025 A 
HETATM    7  C5  UNK     1       1.763   0.869   0.870  1.00  0.00     0.039 A 
HETATM    8  C6  UNK     1      -0.905  -0.095  -1.592  1.00  0.00     0.187 A 
HETATM    9  C7  UNK     1       2.731   1.418   0.028  1.00  0.00     0.009 A 
HETATM   10  C8  UNK     1      -1.857  -0.652  -0.610  1.00  0.00     0.100 A 
HETATM   11  C9  UNK     1      -1.520  -0.643   0.686  1.00  0.00     0.153 A 
HETATM   12  C10 UNK     1       3.551   2.063  -2.244  1.00  0.00     0.048 C 
ENDROOT
BRANCH  11  13
HETATM   13  C11 UNK     1      -2.483  -1.201   1.637  1.00  0.00     0.201 C 
HETATM   14  O4  UNK     1      -3.564  -1.670   1.330  1.00  0.00    -0.645 OA
BRANCH  13  15
HETATM   15  O3  UNK     1      -1.987  -1.113   2.889  1.00  0.00    -0.771 OA
HETATM   16  H8  UNK     1      -2.605  -1.478   3.557  1.00  0.00     0.167 HD
ENDBRANCH  13  15
ENDBRANCH  11  13
TORSDOF 2
