REMARK  1 active torsions:
REMARK  status: ('A' for Active; 'I' for Inactive)
REMARK    1  A    between atoms: C1_3  and  C3_5 
ROOT
HETATM    1  O1  UNK     1      -0.357   0.170  -1.038  1.00  0.00    -0.340 OA
HETATM    2  O2  UNK     1       2.543   1.534   1.523  1.00  0.00    -0.292 OA
HETATM    3  C1  UNK     1      -0.226  -0.381   0.282  1.00  0.00     0.169 C 
HETATM    4  C2  UNK     1       0.325   0.658   1.257  1.00  0.00     0.121 C 
HETATM    5  C4  UNK     1       1.669   1.130   0.765  1.00  0.00     0.165 C 
HETATM    6  C5  UNK     1       1.852   1.145  -0.701  1.00  0.00     0.043 A 
HETATM    7  C6  UNK     1       0.818   0.685  -1.521  1.00  0.00     0.083 A 
HETATM    8  C9  UNK     1       3.025   1.654  -1.263  1.00  0.00     0.018 A 
HETATM    9  C10 UNK     1       0.945   0.764  -2.908  1.00  0.00     0.038 A 
HETATM   10  C11 UNK     1       3.155   1.712  -2.651  1.00  0.00     0.001 A 
HETATM   11  C12 UNK     1       2.115   1.273  -3.472  1.00  0.00     0.003 A 
ENDROOT
BRANCH   3  12
HETATM   12  C3  UNK     1      -1.583  -0.882   0.729  1.00  0.00    -0.029 A 
HETATM   13  C7  UNK     1      -1.674  -1.992   1.569  1.00  0.00     0.010 A 
HETATM   14  C13 UNK     1      -2.924  -2.454   1.980  1.00  0.00     0.001 A 
HETATM   15  C15 UNK     1      -4.083  -1.807   1.551  1.00  0.00     0.000 A 
HETATM   16  C14 UNK     1      -3.992  -0.697   0.711  1.00  0.00     0.001 A 
HETATM   17  C8  UNK     1      -2.742  -0.235   0.300  1.00  0.00     0.010 A 
ENDBRANCH   3  12
TORSDOF 1
