REMARK  2 active torsions:
REMARK  status: ('A' for Active; 'I' for Inactive)
REMARK    1  A    between atoms: C14_18  and  O3_3 
REMARK    2  A    between atoms: C10_14  and  C14_18 
ROOT
HETATM    1  O1  UNK     1      -2.020  -0.590  -1.277  1.00  0.00    -0.274 OA
HETATM    2  O2  UNK     1      -3.627  -1.482   0.078  1.00  0.00    -0.259 OA
HETATM    3  C1  UNK     1       0.084   0.231  -0.330  1.00  0.00     0.010 A 
HETATM    4  C2  UNK     1       1.360   0.828  -0.542  1.00  0.00    -0.013 A 
HETATM    5  C3  UNK     1       1.739   1.168  -1.871  1.00  0.00    -0.025 A 
HETATM    6  C4  UNK     1      -0.747  -0.001  -1.429  1.00  0.00     0.090 A 
HETATM    7  C5  UNK     1      -0.432  -0.168   0.983  1.00  0.00     0.039 A 
HETATM    8  C6  UNK     1       0.867   0.915  -2.941  1.00  0.00     0.015 A 
HETATM    9  C7  UNK     1      -0.375   0.332  -2.725  1.00  0.00     0.039 A 
HETATM   10  C8  UNK     1       2.293   1.113   0.485  1.00  0.00     0.013 A 
HETATM   11  C9  UNK     1       2.989   1.759  -2.123  1.00  0.00     0.012 A 
HETATM   12  C10 UNK     1      -1.641  -0.726   1.121  1.00  0.00     0.114 A 
HETATM   13  C11 UNK     1       3.532   1.700   0.217  1.00  0.00     0.001 A 
HETATM   14  C12 UNK     1       3.880   2.023  -1.086  1.00  0.00     0.001 A 
HETATM   15  C13 UNK     1      -2.519  -0.972  -0.039  1.00  0.00     0.305 A 
ENDROOT
BRANCH  12  16
HETATM   16  C14 UNK     1      -2.043  -1.081   2.488  1.00  0.00     0.182 C 
HETATM   17  O4  UNK     1      -1.677  -0.492   3.486  1.00  0.00    -0.646 OA
BRANCH  16  18
HETATM   18  O3  UNK     1      -2.868  -2.147   2.451  1.00  0.00    -0.772 OA
HETATM   19  H8  UNK     1      -3.161  -2.419   3.347  1.00  0.00     0.167 HD
ENDBRANCH  16  18
ENDBRANCH  12  16
TORSDOF 2
