REMARK  3 active torsions:
REMARK  status: ('A' for Active; 'I' for Inactive)
REMARK    1  A    between atoms: C13_17  and  O3_4 
REMARK    2  A    between atoms: C1_5  and  C4_8 
REMARK    3  A    between atoms: C3_7  and  C6_10 
ROOT
HETATM    1  O1  UNK     1       0.683  -0.144  -2.902  1.00  0.00    -0.274 OA
HETATM    2  O2  UNK     1      -0.946  -1.715  -2.687  1.00  0.00    -0.259 OA
HETATM    3  C1  UNK     1       0.206   0.621  -0.203  1.00  0.00     0.004 A 
HETATM    4  C2  UNK     1       1.234   1.296  -1.024  1.00  0.00     0.010 A 
HETATM    5  C3  UNK     1      -0.514  -0.381  -0.766  1.00  0.00     0.062 A 
HETATM    6  C5  UNK     1       1.438   0.895  -2.339  1.00  0.00     0.093 A 
HETATM    7  C7  UNK     1      -0.293  -0.809  -2.179  1.00  0.00     0.300 A 
HETATM    8  C8  UNK     1       2.030   2.343  -0.534  1.00  0.00     0.018 A 
HETATM    9  C9  UNK     1       2.393   1.493  -3.163  1.00  0.00     0.074 A 
HETATM   10  C12 UNK     1       2.992   2.954  -1.347  1.00  0.00     0.037 A 
HETATM   11  C13 UNK     1       3.173   2.529  -2.661  1.00  0.00     0.068 A 
ENDROOT
BRANCH   5  12
HETATM   12  C6  UNK     1      -1.545  -1.086  -0.002  1.00  0.00    -0.017 A 
HETATM   13  C14 UNK     1      -2.854  -0.617  -0.016  1.00  0.00     0.036 A 
HETATM   14  C18 UNK     1      -3.836  -1.289   0.711  1.00  0.00     0.034 A 
HETATM   15  C21 UNK     1      -3.502  -2.427   1.447  1.00  0.00     0.024 A 
HETATM   16 Cl1  UNK     1      -5.460  -0.719   0.699  1.00  0.00    -0.084 Cl
HETATM   17  C19 UNK     1      -2.187  -2.891   1.456  1.00  0.00     0.003 A 
HETATM   18  C15 UNK     1      -1.205  -2.218   0.729  1.00  0.00     0.012 A 
ENDBRANCH   5  12
BRANCH   3  19
HETATM   19  C4  UNK     1      -0.077   0.979   1.192  1.00  0.00    -0.024 A 
HETATM   20  C10 UNK     1      -1.032   1.947   1.469  1.00  0.00     0.012 A 
HETATM   21  C16 UNK     1      -1.301   2.288   2.795  1.00  0.00     0.001 A 
HETATM   22  C20 UNK     1      -0.611   1.658   3.830  1.00  0.00     0.000 A 
HETATM   23  C17 UNK     1       0.347   0.687   3.540  1.00  0.00     0.001 A 
HETATM   24  C11 UNK     1       0.616   0.346   2.215  1.00  0.00     0.012 A 
ENDBRANCH   3  19
BRANCH  11  25
HETATM   25  O3  UNK     1       4.109   3.125  -3.448  1.00  0.00    -0.361 OA
HETATM   26  H13 UNK     1       4.554   3.821  -2.936  1.00  0.00     0.217 HD
ENDBRANCH  11  25
TORSDOF 3
