REMARK  4 active torsions:
REMARK  status: ('A' for Active; 'I' for Inactive)
REMARK    1  A    between atoms: C10_17  and  O2_3 
REMARK       I    between atoms: C15_22  and  N1_6 
REMARK    2  A    between atoms: C6_13  and  N1_6 
REMARK    3  A    between atoms: C3_10  and  C9_16 
REMARK    4  A    between atoms: C12_19  and  C15_22 
ROOT
HETATM    1  N2  UNK     1      -0.618  -0.549  -2.501  1.00  0.00    -0.191 NA
HETATM    2  C9  UNK     1       1.224   0.370   0.318  1.00  0.00     0.045 C 
HETATM    3  C12 UNK     1       0.042  -0.182  -0.025  1.00  0.00     0.113 C 
HETATM    4  C19 UNK     1      -0.318  -0.383  -1.392  1.00  0.00     0.105 C 
ENDROOT
BRANCH   3   5
HETATM    5  C15 UNK     1      -0.886  -0.571   1.106  1.00  0.00     0.266 C 
HETATM    6  O4  UNK     1      -0.553  -0.389   2.274  1.00  0.00    -0.267 OA
HETATM    7  N1  UNK     1      -2.086  -1.126   0.675  1.00  0.00    -0.320 N 
HETATM    8  H6  UNK     1      -2.245  -1.234  -0.324  1.00  0.00     0.169 HD
BRANCH   7   9
HETATM    9  C6  UNK     1      -3.160  -1.590   1.477  1.00  0.00     0.070 A 
HETATM   10  C10 UNK     1      -4.288  -2.124   0.878  1.00  0.00     0.095 A 
HETATM   11  C16 UNK     1      -5.336  -2.575   1.680  1.00  0.00     0.041 A 
HETATM   12  C18 UNK     1      -5.239  -2.487   3.069  1.00  0.00     0.026 A 
HETATM   13  C17 UNK     1      -4.095  -1.946   3.656  1.00  0.00     0.036 A 
HETATM   14  C14 UNK     1      -3.047  -1.494   2.854  1.00  0.00     0.056 A 
HETATM   15 Cl1  UNK     1      -3.978  -1.836   5.369  1.00  0.00    -0.084 Cl
BRANCH  10  16
HETATM   16  O2  UNK     1      -4.401  -2.220  -0.477  1.00  0.00    -0.354 OA
HETATM   17  C20 UNK     1      -4.981  -1.110  -1.158  1.00  0.00     0.210 C 
ENDBRANCH  10  16
ENDBRANCH   7   9
ENDBRANCH   3   5
BRANCH   2  18
HETATM   18  C3  UNK     1       2.255   0.817  -0.580  1.00  0.00     0.039 A 
HETATM   19  C4  UNK     1       2.264   2.218  -1.081  1.00  0.00     0.197 A 
HETATM   20  C1  UNK     1       3.365   2.580  -1.994  1.00  0.00     0.049 A 
HETATM   21  O3  UNK     1       1.413   3.037  -0.760  1.00  0.00    -0.286 OA
HETATM   22  C2  UNK     1       4.313   1.614  -2.331  1.00  0.00     0.089 A 
HETATM   23  C5  UNK     1       3.462   3.872  -2.517  1.00  0.00     0.018 A 
HETATM   24  O1  UNK     1       4.267   0.331  -1.848  1.00  0.00    -0.321 OA
HETATM   25  C8  UNK     1       5.364   1.935  -3.191  1.00  0.00     0.038 A 
HETATM   26  C7  UNK     1       3.238   0.008  -0.998  1.00  0.00     0.158 A 
HETATM   27  C13 UNK     1       5.463   3.225  -3.714  1.00  0.00     0.003 A 
HETATM   28  C11 UNK     1       4.514   4.191  -3.377  1.00  0.00     0.001 A 
ENDBRANCH   2  18
TORSDOF 4
