REMARK  6 active torsions:
REMARK  status: ('A' for Active; 'I' for Inactive)
REMARK    1  A    between atoms: C21_28  and  O5_5 
REMARK    2  A    between atoms: C23_30  and  O6_6 
REMARK    3  A    between atoms: C13_20  and  N1_7 
REMARK    4  A    between atoms: C10_17  and  C4_11 
REMARK    5  A    between atoms: C13_20  and  C14_21 
REMARK    6  A    between atoms: C14_21  and  C16_23 
ROOT
HETATM    1  O1  UNK     1      -3.257  -0.873  -1.852  1.00  0.00    -0.332 OA
HETATM    2  O2  UNK     1      -1.694  -0.857   2.791  1.00  0.00    -0.274 OA
HETATM    3  O3  UNK     1      -1.780   2.322  -1.348  1.00  0.00    -0.289 OA
HETATM    4  O4  UNK     1      -1.060  -0.889   4.993  1.00  0.00    -0.260 OA
HETATM    5  C1  UNK     1      -2.387   0.168  -2.282  1.00  0.00     0.125 C 
HETATM    6  C2  UNK     1      -2.344  -0.798   0.436  1.00  0.00     0.048 A 
HETATM    7  C3  UNK     1      -1.934   1.116  -1.174  1.00  0.00     0.196 C 
HETATM    8  C4  UNK     1      -1.628   0.455   0.129  1.00  0.00     0.044 C 
HETATM    9  C5  UNK     1      -3.108  -1.382  -0.589  1.00  0.00     0.084 A 
HETATM   10  C6  UNK     1      -3.174   0.957  -3.336  1.00  0.00     0.055 C 
HETATM   11  C7  UNK     1      -1.153  -0.461  -2.941  1.00  0.00     0.055 C 
HETATM   12  C8  UNK     1      -2.376  -1.438   1.693  1.00  0.00     0.103 A 
HETATM   13  C9  UNK     1      -3.091  -2.621   1.918  1.00  0.00    -0.001 A 
HETATM   14  C11 UNK     1      -3.834  -2.562  -0.370  1.00  0.00     0.039 A 
HETATM   15  C12 UNK     1      -3.818  -3.186   0.874  1.00  0.00     0.017 A 
HETATM   16  C15 UNK     1      -3.075  -3.235   3.237  1.00  0.00     0.020 A 
HETATM   17  C17 UNK     1      -2.407  -2.671   4.244  1.00  0.00     0.083 A 
HETATM   18  C18 UNK     1      -1.666  -1.413   4.065  1.00  0.00     0.288 A 
ENDROOT
BRANCH   8  19
HETATM   19  C10 UNK     1      -0.637   1.028   0.830  1.00  0.00     0.099 C 
HETATM   20  N1  UNK     1       0.019   2.176   0.547  1.00  0.00    -0.398 N 
HETATM   21  H12 UNK     1      -0.232   2.687  -0.292  1.00  0.00     0.158 HD
BRANCH  20  22
HETATM   22  C13 UNK     1       1.102   2.702   1.348  1.00  0.00     0.123 C 
BRANCH  22  23
HETATM   23  C14 UNK     1       2.294   1.745   1.352  1.00  0.00     0.058 C 
BRANCH  23  24
HETATM   24  C16 UNK     1       2.825   1.456  -0.031  1.00  0.00    -0.054 A 
HETATM   25  C19 UNK     1       3.818   2.265  -0.560  1.00  0.00     0.046 A 
HETATM   26  C21 UNK     1       4.309   1.998  -1.839  1.00  0.00     0.102 A 
HETATM   27  C23 UNK     1       3.800   0.925  -2.571  1.00  0.00     0.101 A 
HETATM   28  C22 UNK     1       2.800   0.120  -2.025  1.00  0.00     0.040 A 
HETATM   29  C20 UNK     1       2.310   0.387  -0.747  1.00  0.00     0.010 A 
BRANCH  26  30
HETATM   30  O5  UNK     1       5.285   2.791  -2.361  1.00  0.00    -0.353 OA
HETATM   31  C24 UNK     1       5.751   3.867  -1.547  1.00  0.00     0.210 C 
ENDBRANCH  26  30
BRANCH  27  32
HETATM   32  O6  UNK     1       4.272   0.654  -3.819  1.00  0.00    -0.353 OA
HETATM   33  C25 UNK     1       3.699  -0.460  -4.501  1.00  0.00     0.210 C 
ENDBRANCH  27  32
ENDBRANCH  23  24
ENDBRANCH  22  23
ENDBRANCH  20  22
ENDBRANCH   8  19
TORSDOF 6
