REMARK  3 active torsions:
REMARK  status: ('A' for Active; 'I' for Inactive)
REMARK    1  A    between atoms: C14_18  and  O3_3 
REMARK    2  A    between atoms: C2_6  and  C3_7 
REMARK    3  A    between atoms: C10_14  and  C5_9 
ROOT
HETATM    1  O2  UNK     1       1.988   1.019  -3.450  1.00  0.00    -0.275 OA
HETATM    2  O4  UNK     1       0.543   0.186  -5.013  1.00  0.00    -0.260 OA
HETATM    3  C1  UNK     1       1.315   1.045  -1.105  1.00  0.00     0.012 A 
HETATM    4  C2  UNK     1       0.027   0.442  -1.480  1.00  0.00     0.017 A 
HETATM    5  C4  UNK     1       2.254   1.316  -2.099  1.00  0.00     0.090 A 
HETATM    6  C5  UNK     1       2.887   1.938   0.520  1.00  0.00    -0.058 A 
HETATM    7  C6  UNK     1       1.648   1.364   0.217  1.00  0.00     0.022 A 
HETATM    8  C11 UNK     1      -0.196   0.172  -2.777  1.00  0.00     0.097 A 
HETATM    9  C12 UNK     1       3.494   1.887  -1.812  1.00  0.00     0.039 A 
HETATM   10  C13 UNK     1       3.809   2.199  -0.493  1.00  0.00     0.010 A 
HETATM   11  C16 UNK     1       0.786   0.450  -3.840  1.00  0.00     0.289 A 
ENDROOT
BRANCH   4  12
HETATM   12  C3  UNK     1      -1.017   0.113  -0.589  1.00  0.00     0.088 A 
HETATM   13  O1  UNK     1      -1.101  -1.105   0.010  1.00  0.00    -0.306 OA
HETATM   14  C8  UNK     1      -2.213  -1.085   0.798  1.00  0.00     0.119 A 
HETATM   15  C14 UNK     1      -2.666  -2.139   1.589  1.00  0.00     0.102 A 
HETATM   16  C7  UNK     1      -2.846   0.150   0.705  1.00  0.00     0.003 A 
HETATM   17  C17 UNK     1      -3.834  -1.908   2.323  1.00  0.00     0.040 A 
HETATM   18  C19 UNK     1      -4.500  -0.681   2.257  1.00  0.00     0.004 A 
HETATM   19  C15 UNK     1      -4.019   0.360   1.452  1.00  0.00     0.014 A 
HETATM   20  C9  UNK     1      -2.063   0.918  -0.196  1.00  0.00     0.052 A 
BRANCH  15  21
HETATM   21  O3  UNK     1      -2.019  -3.338   1.655  1.00  0.00    -0.353 OA
HETATM   22  C20 UNK     1      -1.015  -3.477   2.658  1.00  0.00     0.210 C 
ENDBRANCH  15  21
ENDBRANCH   4  12
BRANCH   6  23
HETATM   23  C10 UNK     1       3.225   2.272   1.935  1.00  0.00     0.034 C 
HETATM   24  C18 UNK     1       3.910   1.114   2.657  1.00  0.00     0.010 C 
ENDBRANCH   6  23
TORSDOF 3
