REMARK  6 active torsions:
REMARK  status: ('A' for Active; 'I' for Inactive)
REMARK    1  A    between atoms: C2_15  and  S1_1 
REMARK    2  A    between atoms: C4_17  and  S2_2 
REMARK       I    between atoms: C15_28  and  N1_12 
REMARK    3  A    between atoms: C7_20  and  N1_12 
REMARK    4  A    between atoms: C13_26  and  N2_13 
REMARK    5  A    between atoms: C1_14  and  C5_18 
REMARK    6  A    between atoms: C3_16  and  C8_21 
ROOT
HETATM    1  C1  UNK     1       1.411   0.539  -0.770  1.00  0.00    -0.012 A 
HETATM    2  C2  UNK     1       2.453   1.142  -0.065  1.00  0.00     0.093 A 
HETATM    3  C6  UNK     1       3.441   1.848  -0.750  1.00  0.00     0.056 A 
HETATM    4  C7  UNK     1       3.388   1.952  -2.140  1.00  0.00     0.036 A 
HETATM    5  C9  UNK     1       1.358   0.642  -2.160  1.00  0.00     0.015 A 
HETATM    6  C10 UNK     1       2.346   1.349  -2.845  1.00  0.00     0.030 A 
ENDROOT
BRANCH   1   7
HETATM    7  C5  UNK     1       0.357  -0.209  -0.095  1.00  0.00     0.014 C 
HETATM    8  C8  UNK     1      -0.819   0.310   0.323  1.00  0.00     0.014 C 
BRANCH   8   9
HETATM    9  C3  UNK     1      -1.892  -0.450   0.988  1.00  0.00    -0.012 A 
HETATM   10  C11 UNK     1      -1.881  -0.497   2.375  1.00  0.00     0.015 A 
HETATM   11  C14 UNK     1      -2.878  -1.206   3.044  1.00  0.00     0.037 A 
HETATM   12  C13 UNK     1      -3.875  -1.861   2.320  1.00  0.00     0.104 A 
HETATM   13  C12 UNK     1      -3.873  -1.806   0.926  1.00  0.00     0.063 A 
HETATM   14  C4  UNK     1      -2.876  -1.097   0.256  1.00  0.00     0.093 A 
BRANCH  12  15
HETATM   15  N2  UNK     1      -4.889  -2.583   3.002  1.00  0.00    -0.116 N 
HETATM   16  O7  UNK     1      -4.871  -2.619   4.256  1.00  0.00    -0.532 OA
HETATM   17  O8  UNK     1      -5.776  -3.165   2.332  1.00  0.00    -0.532 OA
ENDBRANCH  12  15
BRANCH  14  18
HETATM   18  S2  UNK     1      -2.919  -1.058  -1.495  1.00  0.00     0.138 S 
HETATM   19  O4  UNK     1      -1.767  -1.881  -1.886  1.00  0.00    -0.591 OA
HETATM   20  O5  UNK     1      -4.218  -1.636  -1.872  1.00  0.00    -0.591 OA
HETATM   21  O6  UNK     1      -2.792   0.371  -1.813  1.00  0.00    -0.591 OA
ENDBRANCH  14  18
ENDBRANCH   8   9
ENDBRANCH   1   7
BRANCH   2  22
HETATM   22  S1  UNK     1       2.565   1.041   1.682  1.00  0.00     0.138 S 
HETATM   23  O1  UNK     1       1.451   1.879   2.146  1.00  0.00    -0.591 OA
HETATM   24  O2  UNK     1       2.412  -0.385   2.006  1.00  0.00    -0.591 OA
HETATM   25  O3  UNK     1       3.902   1.575   1.974  1.00  0.00    -0.591 OA
ENDBRANCH   2  22
BRANCH   4  26
HETATM   26  N1  UNK     1       4.376   2.658  -2.826  1.00  0.00    -0.327 N 
HETATM   27  C15 UNK     1       4.489   2.868  -4.206  1.00  0.00     0.218 C 
HETATM   28  O9  UNK     1       3.732   2.470  -5.086  1.00  0.00    -0.274 OA
HETATM   29  C16 UNK     1       5.707   3.690  -4.549  1.00  0.00     0.117 C 
HETATM   30  H9  UNK     1       5.102   3.069  -2.241  1.00  0.00     0.169 HD
ENDBRANCH   4  26
TORSDOF 6
