REMARK  3 active torsions:
REMARK  status: ('A' for Active; 'I' for Inactive)
REMARK       I    between atoms: C11_19  and  N1_7 
REMARK    1  A    between atoms: C9_17  and  N1_7 
REMARK       I    between atoms: C10_18  and  N2_8 
REMARK    2  A    between atoms: C10_18  and  C8_16 
REMARK    3  A    between atoms: C11_19  and  C12_20 
ROOT
HETATM    1  O3  UNK     1      -0.470  -0.334  -2.178  1.00  0.00    -0.267 OA
HETATM    2  N1  UNK     1      -0.361  -0.059   0.169  1.00  0.00    -0.316 N 
HETATM    3  C11 UNK     1       0.096   0.023  -1.153  1.00  0.00     0.262 C 
HETATM    4  H11 UNK     1       0.229   0.302   0.914  1.00  0.00     0.169 HD
ENDROOT
BRANCH   2   5
HETATM    5  C9  UNK     1      -1.561  -0.566   0.589  1.00  0.00     0.093 A 
HETATM    6  C8  UNK     1      -2.105  -0.693   1.849  1.00  0.00     0.073 A 
HETATM    7  C5  UNK     1      -3.404  -1.285   1.818  1.00  0.00    -0.026 A 
HETATM    8  C4  UNK     1      -4.269  -1.590   3.001  1.00  0.00     0.041 C 
HETATM    9  C6  UNK     1      -3.788  -1.588   0.526  1.00  0.00    -0.008 A 
HETATM   10  C2  UNK     1      -5.718  -1.888   2.586  1.00  0.00     0.009 C 
HETATM   11  C1  UNK     1      -5.822  -2.813   1.352  1.00  0.00    -0.014 C 
HETATM   12  C3  UNK     1      -5.101  -2.193   0.133  1.00  0.00     0.051 C 
HETATM   13  C7  UNK     1      -5.302  -4.222   1.654  1.00  0.00     0.010 C 
HETATM   14  S1  UNK     1      -2.611  -1.160  -0.627  1.00  0.00    -0.075 SA
BRANCH   6  15
HETATM   15  C10 UNK     1      -1.412  -0.261   3.037  1.00  0.00     0.252 C 
HETATM   16  O1  UNK     1      -1.529   0.882   3.515  1.00  0.00    -0.268 OA
HETATM   17  N2  UNK     1      -0.595  -1.191   3.676  1.00  0.00    -0.366 N 
HETATM   18  H12 UNK     1      -0.478  -2.137   3.327  1.00  0.00     0.159 HD
HETATM   19  H13 UNK     1      -0.088  -0.946   4.520  1.00  0.00     0.159 HD
ENDBRANCH   6  15
ENDBRANCH   2   5
BRANCH   3  20
HETATM   20  C12 UNK     1       1.442   0.627  -1.248  1.00  0.00     0.108 A 
HETATM   21  C13 UNK     1       1.709   1.303  -2.371  1.00  0.00     0.037 A 
HETATM   22  C14 UNK     1       3.006   1.934  -2.557  1.00  0.00     0.001 A 
HETATM   23  C16 UNK     1       3.959   1.822  -1.550  1.00  0.00     0.089 A 
HETATM   24  C17 UNK     1       3.328   2.649  -3.713  1.00  0.00     0.038 A 
HETATM   25  O2  UNK     1       3.673   1.109  -0.370  1.00  0.00    -0.274 OA
HETATM   26  C18 UNK     1       5.221   2.402  -1.666  1.00  0.00     0.040 A 
HETATM   27  C15 UNK     1       2.441   0.495  -0.163  1.00  0.00     0.304 A 
HETATM   28  O4  UNK     1       2.200  -0.124   0.868  1.00  0.00    -0.259 OA
HETATM   29  C20 UNK     1       5.534   3.114  -2.822  1.00  0.00     0.026 A 
HETATM   30  C19 UNK     1       4.589   3.237  -3.844  1.00  0.00     0.035 A 
HETATM   31 Cl1  UNK     1       4.981   4.118  -5.271  1.00  0.00    -0.084 Cl
ENDBRANCH   3  20
TORSDOF 3
