REMARK  7 active torsions:
REMARK  status: ('A' for Active; 'I' for Inactive)
REMARK    1  A    between atoms: C7_15  and  O2_2 
REMARK    2  A    between atoms: C6_14  and  O3_3 
REMARK    3  A    between atoms: C8_16  and  O4_4 
REMARK    4  A    between atoms: C9_17  and  O6_6 
REMARK    5  A    between atoms: C13_21  and  O7_7 
REMARK    6  A    between atoms: C15_23  and  O8_8 
REMARK    7  A    between atoms: C3_11  and  C4_12 
ROOT
HETATM    1  O1  UNK     1      -0.636   0.657   0.385  1.00  0.00    -0.303 OA
HETATM    2  O5  UNK     1      -2.251  -2.614  -1.430  1.00  0.00    -0.284 OA
HETATM    3  C1  UNK     1      -2.174  -1.219   0.469  1.00  0.00     0.087 A 
HETATM    4  C2  UNK     1      -1.583  -0.092   1.035  1.00  0.00     0.129 A 
HETATM    5  C3  UNK     1      -0.261   0.282  -0.895  1.00  0.00     0.123 A 
HETATM    6  C5  UNK     1      -1.771  -1.630  -0.884  1.00  0.00     0.223 A 
HETATM    7  C6  UNK     1      -0.748  -0.788  -1.550  1.00  0.00     0.152 A 
HETATM    8  C7  UNK     1      -1.947   0.318   2.318  1.00  0.00     0.136 A 
HETATM    9  C8  UNK     1      -3.134  -1.944   1.180  1.00  0.00     0.085 A 
HETATM   10  C9  UNK     1      -2.905  -0.404   3.031  1.00  0.00     0.104 A 
HETATM   11  C10 UNK     1      -3.497  -1.533   2.463  1.00  0.00     0.077 A 
ENDROOT
BRANCH   5  12
HETATM   12  C4  UNK     1       0.762   1.168  -1.478  1.00  0.00     0.004 A 
HETATM   13  C11 UNK     1       2.116   0.900  -1.274  1.00  0.00     0.054 A 
HETATM   14  C13 UNK     1       3.084   1.740  -1.825  1.00  0.00     0.102 A 
HETATM   15  C15 UNK     1       2.698   2.849  -2.579  1.00  0.00     0.099 A 
HETATM   16  C14 UNK     1       1.344   3.117  -2.783  1.00  0.00     0.040 A 
HETATM   17  C12 UNK     1       0.377   2.277  -2.232  1.00  0.00     0.017 A 
BRANCH  14  18
HETATM   18  O7  UNK     1       4.403   1.468  -1.620  1.00  0.00    -0.353 OA
HETATM   19  C17 UNK     1       5.014   2.049  -0.470  1.00  0.00     0.210 C 
ENDBRANCH  14  18
BRANCH  15  20
HETATM   20  O8  UNK     1       3.634   3.676  -3.124  1.00  0.00    -0.358 OA
HETATM   21  H11 UNK     1       4.516   3.321  -2.919  1.00  0.00     0.217 HD
ENDBRANCH  15  20
ENDBRANCH   5  12
BRANCH   7  22
HETATM   22  O3  UNK     1      -0.329  -1.153  -2.811  1.00  0.00    -0.355 OA
HETATM   23  H5  UNK     1       0.340  -0.527  -3.131  1.00  0.00     0.218 HD
ENDBRANCH   7  22
BRANCH   8  24
HETATM   24  O2  UNK     1      -1.371   1.419   2.879  1.00  0.00    -0.351 OA
HETATM   25  C16 UNK     1       0.044   1.394   3.048  1.00  0.00     0.210 C 
ENDBRANCH   8  24
BRANCH   9  26
HETATM   26  O4  UNK     1      -3.743  -3.052   0.672  1.00  0.00    -0.360 OA
HETATM   27  H6  UNK     1      -3.419  -3.239  -0.222  1.00  0.00     0.217 HD
ENDBRANCH   9  26
BRANCH  10  28
HETATM   28  O6  UNK     1      -3.271  -0.017   4.285  1.00  0.00    -0.358 OA
HETATM   29  H7  UNK     1      -3.943  -0.633   4.624  1.00  0.00     0.217 HD
ENDBRANCH  10  28
TORSDOF 7
