REMARK  3 active torsions:
REMARK  status: ('A' for Active; 'I' for Inactive)
REMARK    1  A    between atoms: C17_22  and  O4_4 
REMARK    2  A    between atoms: C4_9  and  C5_10 
REMARK    3  A    between atoms: C17_22  and  C9_14 
ROOT
HETATM    1  O1  UNK     1       1.565   1.480  -2.827  1.00  0.00    -0.237 OA
HETATM    2  O2  UNK     1      -0.584   1.538  -3.471  1.00  0.00    -0.259 OA
HETATM    3  O3  UNK     1       3.728   1.395  -2.225  1.00  0.00    -0.259 OA
HETATM    4  C1  UNK     1       0.839   0.877  -0.149  1.00  0.00    -0.004 A 
HETATM    5  C2  UNK     1      -0.149   0.881  -1.227  1.00  0.00     0.052 C 
HETATM    6  C3  UNK     1       2.169   1.100  -0.499  1.00  0.00     0.051 A 
HETATM    7  C4  UNK     1      -1.422   0.474  -1.082  1.00  0.00     0.031 C 
HETATM    8  C6  UNK     1       0.528   0.682   1.207  1.00  0.00     0.013 A 
HETATM    9  C7  UNK     1       0.239   1.327  -2.584  1.00  0.00     0.301 C 
HETATM   10  C8  UNK     1       3.174   1.112   0.480  1.00  0.00     0.018 A 
HETATM   11  C10 UNK     1       2.546   1.324  -1.905  1.00  0.00     0.301 C 
HETATM   12  C11 UNK     1       1.527   0.695   2.183  1.00  0.00     0.001 A 
HETATM   13  C13 UNK     1       2.851   0.908   1.819  1.00  0.00     0.001 A 
ENDROOT
BRANCH   7  14
HETATM   14  C5  UNK     1      -1.977  -0.016   0.140  1.00  0.00    -0.018 A 
HETATM   15  C12 UNK     1      -2.609   0.880   1.024  1.00  0.00     0.012 A 
HETATM   16  C15 UNK     1      -3.163   0.435   2.225  1.00  0.00     0.001 A 
HETATM   17  C16 UNK     1      -3.095  -0.915   2.566  1.00  0.00     0.001 A 
HETATM   18  C14 UNK     1      -2.474  -1.822   1.707  1.00  0.00     0.019 A 
HETATM   19  C9  UNK     1      -1.920  -1.377   0.506  1.00  0.00     0.048 A 
BRANCH  19  20
HETATM   20  C17 UNK     1      -1.281  -2.357  -0.365  1.00  0.00     0.176 C 
HETATM   21  O5  UNK     1      -1.221  -2.285  -1.594  1.00  0.00    -0.646 OA
BRANCH  20  22
HETATM   22  O4  UNK     1      -0.739  -3.391   0.332  1.00  0.00    -0.773 OA
HETATM   23  H10 UNK     1      -0.310  -4.045  -0.260  1.00  0.00     0.167 HD
ENDBRANCH  20  22
ENDBRANCH  19  20
ENDBRANCH   7  14
TORSDOF 3
