REMARK  7 active torsions:
REMARK  status: ('A' for Active; 'I' for Inactive)
REMARK    1  A    between atoms: C19_27  and  S1_1 
REMARK    2  A    between atoms: N1_8  and  S1_1 
REMARK    3  A    between atoms: C14_22  and  O2_3 
REMARK    4  A    between atoms: C15_23  and  O2_3 
REMARK    5  A    between atoms: C8_16  and  N1_8 
REMARK    6  A    between atoms: C15_23  and  C8_16 
REMARK    7  A    between atoms: C8_16  and  C9_17 
ROOT
HETATM    1  O4  UNK     1       1.080  -0.521  -1.758  1.00  0.00    -0.262 OA
HETATM    2  C15 UNK     1       0.739   0.600  -2.114  1.00  0.00     0.288 C 
ENDROOT
BRANCH   2   3
HETATM    3  O2  UNK     1      -0.501   1.197  -1.811  1.00  0.00    -0.277 OA
BRANCH   3   4
HETATM    4  C14 UNK     1      -1.335   0.415  -1.074  1.00  0.00     0.082 A 
HETATM    5  C13 UNK     1      -1.295   0.464   0.314  1.00  0.00     0.075 A 
HETATM    6  C10 UNK     1      -2.159  -0.349   1.051  1.00  0.00     0.093 A 
HETATM    7  O1  UNK     1      -2.061  -0.262   2.451  1.00  0.00    -0.274 OA
HETATM    8  C7  UNK     1      -3.072  -1.211   0.448  1.00  0.00     0.005 A 
HETATM    9  C11 UNK     1      -2.842  -1.041   3.290  1.00  0.00     0.295 A 
HETATM   10  O3  UNK     1      -2.732  -0.961   4.509  1.00  0.00    -0.259 OA
HETATM   11  C6  UNK     1      -3.815  -1.960   2.645  1.00  0.00     0.025 A 
HETATM   12  C3  UNK     1      -3.945  -2.028   1.306  1.00  0.00    -0.033 A 
HETATM   13  C5  UNK     1      -4.632  -2.808   3.591  1.00  0.00     0.045 C 
HETATM   14  C1  UNK     1      -4.971  -2.928   0.652  1.00  0.00     0.040 C 
HETATM   15  C2  UNK     1      -6.008  -3.504   1.619  1.00  0.00     0.005 C 
HETATM   16  C4  UNK     1      -5.350  -3.970   2.907  1.00  0.00     0.005 C 
HETATM   17  C12 UNK     1      -3.090  -1.250  -0.954  1.00  0.00     0.017 A 
HETATM   18  C18 UNK     1      -2.230  -0.443  -1.708  1.00  0.00     0.038 A 
ENDBRANCH   3   4
ENDBRANCH   2   3
BRANCH   2  19
HETATM   19  C8  UNK     1       1.584   1.554  -2.934  1.00  0.00     0.196 C 
BRANCH  19  20
HETATM   20  N1  UNK     1       2.915   0.927  -3.096  1.00  0.00    -0.301 N 
HETATM   21  H12 UNK     1       2.944  -0.055  -3.396  1.00  0.00     0.173 HD
BRANCH  20  22
HETATM   22  S1  UNK     1       4.285   1.653  -2.399  1.00  0.00     0.259 S 
HETATM   23  O5  UNK     1       4.375   3.032  -2.837  1.00  0.00    -0.201 OA
HETATM   24  O6  UNK     1       5.418   0.762  -2.555  1.00  0.00    -0.201 OA
BRANCH  22  25
HETATM   25  C19 UNK     1       3.862   1.653  -0.682  1.00  0.00     0.079 A 
HETATM   26  C20 UNK     1       4.212   0.566   0.100  1.00  0.00     0.026 A 
HETATM   27  C22 UNK     1       3.878   0.566   1.454  1.00  0.00     0.008 A 
HETATM   28  C24 UNK     1       3.200   1.653   2.006  1.00  0.00    -0.062 A 
HETATM   29  C23 UNK     1       2.855   2.740   1.202  1.00  0.00     0.008 A 
HETATM   30  C25 UNK     1       2.843   1.653   3.453  1.00  0.00     0.048 C 
HETATM   31  C21 UNK     1       3.188   2.740  -0.152  1.00  0.00     0.026 A 
ENDBRANCH  22  25
ENDBRANCH  20  22
ENDBRANCH  19  20
BRANCH  19  32
HETATM   32  C9  UNK     1       0.942   1.894  -4.293  1.00  0.00     0.010 C 
HETATM   33  C16 UNK     1       0.677   0.666  -5.171  1.00  0.00     0.012 C 
HETATM   34  C17 UNK     1       1.780   2.917  -5.066  1.00  0.00     0.012 C 
ENDBRANCH  19  32
ENDBRANCH   2  19
TORSDOF 7
