REMARK  5 active torsions:
REMARK  status: ('A' for Active; 'I' for Inactive)
REMARK    1  A    between atoms: C6_15  and  O1_4 
REMARK    2  A    between atoms: C7_16  and  O1_4 
REMARK       I    between atoms: C10_19  and  N1_9 
REMARK    3  A    between atoms: C3_12  and  N1_9 
REMARK    4  A    between atoms: C1_10  and  C7_16 
REMARK    5  A    between atoms: C10_19  and  C8_17 
ROOT
HETATM    1  S1  UNK     1       0.190   0.631   2.662  1.00  0.00    -0.082 SA
HETATM    2  F1  UNK     1      -6.379  -3.851   3.623  1.00  0.00    -0.206 F 
HETATM    3  C1  UNK     1      -1.346  -0.602   1.013  1.00  0.00     0.085 A 
HETATM    4  C2  UNK     1      -1.882  -0.847   2.310  1.00  0.00    -0.000 A 
HETATM    5  C3  UNK     1      -0.237   0.178   1.081  1.00  0.00     0.094 A 
HETATM    6  C4  UNK     1      -3.045  -1.624   2.650  1.00  0.00    -0.024 A 
HETATM    7  C5  UNK     1      -1.143  -0.235   3.299  1.00  0.00     0.065 A 
HETATM    8  C12 UNK     1      -4.294  -1.011   2.716  1.00  0.00     0.015 A 
HETATM    9  C13 UNK     1      -2.917  -2.986   2.911  1.00  0.00     0.015 A 
HETATM   10  C19 UNK     1      -5.421  -1.764   3.045  1.00  0.00     0.043 A 
HETATM   11  C20 UNK     1      -4.044  -3.739   3.240  1.00  0.00     0.043 A 
HETATM   12  C22 UNK     1      -5.296  -3.128   3.307  1.00  0.00     0.116 A 
ENDROOT
BRANCH   5  13
HETATM   13  N1  UNK     1       0.597   0.660   0.067  1.00  0.00    -0.316 N 
HETATM   14  C10 UNK     1       1.719   1.458   0.240  1.00  0.00     0.262 C 
HETATM   15  O4  UNK     1       2.197   1.894   1.286  1.00  0.00    -0.267 OA
HETATM   16  H3  UNK     1       0.334   0.359  -0.868  1.00  0.00     0.169 HD
BRANCH  14  17
HETATM   17  C8  UNK     1       2.362   1.782  -1.039  1.00  0.00     0.108 A 
HETATM   18  C11 UNK     1       3.686   1.974  -1.003  1.00  0.00     0.037 A 
HETATM   19  C9  UNK     1       4.413   2.299  -2.221  1.00  0.00     0.001 A 
HETATM   20  C14 UNK     1       3.710   2.405  -3.417  1.00  0.00     0.089 A 
HETATM   21  C18 UNK     1       5.795   2.508  -2.230  1.00  0.00     0.038 A 
HETATM   22  O2  UNK     1       2.317   2.201  -3.448  1.00  0.00    -0.274 OA
HETATM   23  C21 UNK     1       4.347   2.714  -4.617  1.00  0.00     0.040 A 
HETATM   24  C17 UNK     1       1.594   1.890  -2.300  1.00  0.00     0.304 A 
HETATM   25  O5  UNK     1       0.381   1.714  -2.337  1.00  0.00    -0.259 OA
HETATM   26  C24 UNK     1       5.724   2.921  -4.617  1.00  0.00     0.026 A 
HETATM   27  C23 UNK     1       6.447   2.818  -3.427  1.00  0.00     0.035 A 
HETATM   28 Cl1  UNK     1       8.150   3.075  -3.434  1.00  0.00    -0.084 Cl
ENDBRANCH  14  17
ENDBRANCH   5  13
BRANCH   3  29
HETATM   29  C7  UNK     1      -1.889  -1.101  -0.227  1.00  0.00     0.297 C 
HETATM   30  O3  UNK     1      -1.396  -0.868  -1.340  1.00  0.00    -0.259 OA
BRANCH  29  31
HETATM   31  O1  UNK     1      -3.019  -1.873  -0.071  1.00  0.00    -0.313 OA
BRANCH  31  32
HETATM   32  C6  UNK     1      -3.966  -1.857  -1.145  1.00  0.00     0.124 C 
HETATM   33  C15 UNK     1      -5.122  -2.787  -0.808  1.00  0.00     0.040 C 
HETATM   34  C16 UNK     1      -4.437  -0.429  -1.376  1.00  0.00     0.040 C 
ENDBRANCH  31  32
ENDBRANCH  29  31
ENDBRANCH   3  29
TORSDOF 5
