REMARK  5 active torsions:
REMARK  status: ('A' for Active; 'I' for Inactive)
REMARK    1  A    between atoms: C1_12  and  N1_8 
REMARK       I    between atoms: C11_22  and  N3_10 
REMARK    2  A    between atoms: C4_15  and  N3_10 
REMARK    3  A    between atoms: C15_26  and  N4_11 
REMARK    4  A    between atoms: C1_12  and  C2_13 
REMARK    5  A    between atoms: C11_22  and  C5_16 
ROOT
HETATM    1  O2  UNK     1      -0.786   1.021  -2.259  1.00  0.00    -0.267 OA
HETATM    2  N3  UNK     1      -0.432  -0.344  -0.372  1.00  0.00    -0.306 N 
HETATM    3  C11 UNK     1      -0.096   0.604  -1.329  1.00  0.00     0.263 C 
HETATM    4  H7  UNK     1       0.248  -0.609   0.335  1.00  0.00     0.170 HD
ENDROOT
BRANCH   2   5
HETATM    5  C4  UNK     1      -1.652  -1.052  -0.248  1.00  0.00     0.151 A 
HETATM    6  C9  UNK     1      -2.722  -0.876  -1.115  1.00  0.00     0.071 A 
HETATM    7  C7  UNK     1      -3.669  -1.744  -0.627  1.00  0.00     0.116 A 
HETATM    8  N1  UNK     1      -3.100  -2.346   0.457  1.00  0.00    -0.275 N 
HETATM    9  N2  UNK     1      -1.847  -1.932   0.712  1.00  0.00    -0.154 NA
BRANCH   8  10
HETATM   10  C1  UNK     1      -3.712  -3.342   1.303  1.00  0.00     0.194 C 
BRANCH  10  11
HETATM   11  C2  UNK     1      -4.449  -2.708   2.452  1.00  0.00     0.022 A 
HETATM   12  C12 UNK     1      -3.813  -2.452   3.660  1.00  0.00     0.045 A 
HETATM   13  C18 UNK     1      -4.526  -1.863   4.704  1.00  0.00     0.024 A 
HETATM   14 Cl1  UNK     1      -2.150  -2.843   3.911  1.00  0.00    -0.084 Cl
HETATM   15  C20 UNK     1      -5.871  -1.535   4.532  1.00  0.00     0.005 A 
HETATM   16  C19 UNK     1      -6.502  -1.796   3.316  1.00  0.00     0.043 A 
HETATM   17  C13 UNK     1      -5.789  -2.384   2.272  1.00  0.00     0.126 A 
HETATM   18  F1  UNK     1      -6.405  -2.629   1.107  1.00  0.00    -0.205 F 
ENDBRANCH  10  11
ENDBRANCH   8  10
ENDBRANCH   2   5
BRANCH   3  19
HETATM   19  C5  UNK     1       1.262   1.126  -1.139  1.00  0.00     0.108 A 
HETATM   20  C16 UNK     1       1.889   1.216   0.199  1.00  0.00     0.304 A 
HETATM   21  O1  UNK     1       3.182   1.729   0.251  1.00  0.00    -0.274 OA
HETATM   22  O3  UNK     1       1.303   0.858   1.215  1.00  0.00    -0.259 OA
HETATM   23  C6  UNK     1       3.864   2.143  -0.910  1.00  0.00     0.089 A 
HETATM   24  C14 UNK     1       5.156   2.643  -0.758  1.00  0.00     0.041 A 
HETATM   25  C3  UNK     1       3.256   2.051  -2.158  1.00  0.00     0.001 A 
HETATM   26  C17 UNK     1       5.855   3.061  -1.888  1.00  0.00     0.039 A 
HETATM   27  C15 UNK     1       5.261   2.977  -3.149  1.00  0.00     0.103 A 
HETATM   28  C10 UNK     1       3.965   2.473  -3.286  1.00  0.00     0.050 A 
HETATM   29  C8  UNK     1       1.905   1.519  -2.245  1.00  0.00     0.037 A 
BRANCH  27  30
HETATM   30  N4  UNK     1       5.979   3.404  -4.298  1.00  0.00    -0.116 N 
HETATM   31  O4  UNK     1       7.142   3.853  -4.156  1.00  0.00    -0.532 OA
HETATM   32  O5  UNK     1       5.430   3.320  -5.423  1.00  0.00    -0.532 OA
ENDBRANCH  27  30
ENDBRANCH   3  19
TORSDOF 5
