REMARK  6 active torsions:
REMARK  status: ('A' for Active; 'I' for Inactive)
REMARK       I    between atoms: C12_18  and  N2_6 
REMARK    1  A    between atoms: C6_12  and  N2_6 
REMARK    2  A    between atoms: C1_7  and  C2_8 
REMARK    3  A    between atoms: C2_8  and  C6_12 
REMARK    4  A    between atoms: C12_18  and  C13_19 
REMARK    5  A    between atoms: C16_22  and  C18_24 
REMARK    6  A    between atoms: C18_24  and  C23_29 
ROOT
HETATM    1  O2  UNK     1      -1.748   0.489  -3.406  1.00  0.00    -0.267 OA
HETATM    2  N2  UNK     1       0.328  -0.279  -2.674  1.00  0.00    -0.356 N 
HETATM    3  C12 UNK     1      -1.034  -0.061  -2.570  1.00  0.00     0.257 C 
HETATM    4  H10 UNK     1       0.835  -0.719  -1.912  1.00  0.00     0.162 HD
ENDROOT
BRANCH   2   5
HETATM    5  C6  UNK     1       1.106   0.131  -3.822  1.00  0.00     0.127 C 
BRANCH   5   6
HETATM    6  C2  UNK     1       1.649   1.548  -3.638  1.00  0.00     0.061 C 
BRANCH   6   7
HETATM    7  C1  UNK     1       2.549   1.692  -2.444  1.00  0.00    -0.022 A 
HETATM    8  C3  UNK     1       2.131   2.034  -1.143  1.00  0.00     0.001 A 
HETATM    9  C5  UNK     1       3.284   2.056  -0.355  1.00  0.00     0.065 A 
HETATM   10  C7  UNK     1       0.892   2.331  -0.541  1.00  0.00     0.014 A 
HETATM   11  C9  UNK     1       3.259   2.360   1.011  1.00  0.00     0.061 A 
HETATM   12  N1  UNK     1       4.342   1.735  -1.175  1.00  0.00    -0.357 N 
HETATM   13  C11 UNK     1       2.019   2.651   1.586  1.00  0.00     0.026 A 
HETATM   14 Cl1  UNK     1       4.690   2.380   1.961  1.00  0.00    -0.082 Cl
HETATM   15  C10 UNK     1       0.852   2.637   0.824  1.00  0.00     0.003 A 
HETATM   16  C4  UNK     1       3.899   1.512  -2.452  1.00  0.00     0.013 A 
HETATM   17  H5  UNK     1       5.305   1.675  -0.874  1.00  0.00     0.166 HD
HETATM   18  C8  UNK     1       4.839   1.151  -3.530  1.00  0.00     0.068 C 
ENDBRANCH   6   7
ENDBRANCH   5   6
ENDBRANCH   2   5
BRANCH   3  19
HETATM   19  C13 UNK     1      -1.598  -0.569  -1.314  1.00  0.00     0.108 A 
HETATM   20  C17 UNK     1      -2.664   0.085  -0.837  1.00  0.00     0.037 A 
HETATM   21  C14 UNK     1      -3.293  -0.344   0.402  1.00  0.00    -0.000 A 
HETATM   22  C15 UNK     1      -2.770  -1.442   1.079  1.00  0.00     0.096 A 
HETATM   23  C20 UNK     1      -4.407   0.308   0.937  1.00  0.00     0.014 A 
HETATM   24  C16 UNK     1      -3.326  -1.903   2.270  1.00  0.00    -0.020 A 
HETATM   25  O1  UNK     1      -1.648  -2.126   0.571  1.00  0.00    -0.273 OA
HETATM   26  C21 UNK     1      -4.436  -1.246   2.796  1.00  0.00     0.010 A 
HETATM   27  C22 UNK     1      -4.976  -0.143   2.132  1.00  0.00     0.002 A 
HETATM   28  C19 UNK     1      -1.024  -1.739  -0.612  1.00  0.00     0.304 A 
HETATM   29  O3  UNK     1      -0.048  -2.341  -1.045  1.00  0.00    -0.259 OA
BRANCH  24  30
HETATM   30  C18 UNK     1      -2.757  -3.081   2.988  1.00  0.00     0.067 C 
BRANCH  30  31
HETATM   31  C23 UNK     1      -1.695  -2.705   3.988  1.00  0.00    -0.032 C 
HETATM   32  C24 UNK     1      -0.420  -3.103   3.916  1.00  0.00     0.007 C 
ENDBRANCH  30  31
ENDBRANCH  24  30
ENDBRANCH   3  19
TORSDOF 6
