REMARK  3 active torsions:
REMARK  status: ('A' for Active; 'I' for Inactive)
REMARK    1  A    between atoms: C1_9  and  N1_6 
REMARK       I    between atoms: C11_19  and  N2_7 
REMARK    2  A    between atoms: C19_27  and  N3_8 
REMARK    3  A    between atoms: C11_19  and  C12_20 
ROOT
HETATM    1  O2  UNK     1      -2.317   1.022   2.089  1.00  0.00    -0.274 OA
HETATM    2  O3  UNK     1      -0.274   2.042   2.177  1.00  0.00    -0.259 OA
HETATM    3  C12 UNK     1      -0.299  -0.231   1.509  1.00  0.00     0.108 A 
HETATM    4  C13 UNK     1      -1.020  -1.330   1.262  1.00  0.00     0.037 A 
HETATM    5  C14 UNK     1      -0.932   1.033   1.948  1.00  0.00     0.304 A 
HETATM    6  C15 UNK     1      -2.466  -1.310   1.419  1.00  0.00     0.001 A 
HETATM    7  C16 UNK     1      -3.082  -0.132   1.830  1.00  0.00     0.089 A 
HETATM    8  C17 UNK     1      -3.259  -2.433   1.171  1.00  0.00     0.050 A 
HETATM    9  C18 UNK     1      -4.462  -0.045   1.999  1.00  0.00     0.041 A 
HETATM   10  C19 UNK     1      -4.645  -2.362   1.337  1.00  0.00     0.103 A 
HETATM   11  C20 UNK     1      -5.245  -1.171   1.750  1.00  0.00     0.039 A 
ENDROOT
BRANCH   3  12
HETATM   12  C11 UNK     1       1.160  -0.352   1.322  1.00  0.00     0.260 C 
HETATM   13  O1  UNK     1       1.830  -0.708   2.294  1.00  0.00    -0.267 OA
HETATM   14  N2  UNK     1       1.684  -0.061   0.066  1.00  0.00    -0.344 N 
HETATM   15  C10 UNK     1       3.101  -0.317  -0.196  1.00  0.00     0.156 C 
HETATM   16  C9  UNK     1       0.932   0.365  -1.121  1.00  0.00     0.156 C 
HETATM   17  C8  UNK     1       3.754   0.875  -0.895  1.00  0.00     0.292 C 
HETATM   18  N1  UNK     1       3.018   1.235  -2.116  1.00  0.00     0.096 N 
HETATM   19  C7  UNK     1       1.617   1.551  -1.802  1.00  0.00     0.292 C 
BRANCH  18  20
HETATM   20  C1  UNK     1       3.660   2.361  -2.791  1.00  0.00     0.223 C 
HETATM   21  C2  UNK     1       5.118   2.014  -3.111  1.00  0.00     0.036 C 
HETATM   22  C4  UNK     1       5.802   3.139  -3.886  1.00  0.00     0.002 C 
HETATM   23  C6  UNK     1       5.026   3.505  -5.148  1.00  0.00     0.000 C 
HETATM   24  C5  UNK     1       3.571   3.842  -4.838  1.00  0.00     0.002 C 
HETATM   25  C3  UNK     1       2.885   2.717  -4.064  1.00  0.00     0.036 C 
ENDBRANCH  18  20
ENDBRANCH   3  12
BRANCH  10  26
HETATM   26  N3  UNK     1      -5.447  -3.507   1.085  1.00  0.00    -0.116 N 
HETATM   27  O4  UNK     1      -6.689  -3.424   1.240  1.00  0.00    -0.532 OA
HETATM   28  O5  UNK     1      -4.892  -4.569   0.714  1.00  0.00    -0.532 OA
ENDBRANCH  10  26
TORSDOF 3
