REMARK  9 active torsions:
REMARK  status: ('A' for Active; 'I' for Inactive)
REMARK    1  A    between atoms: C19_26  and  O1_1 
REMARK    2  A    between atoms: C6_13  and  O1_1 
REMARK    3  A    between atoms: C20_27  and  O2_2 
REMARK    4  A    between atoms: C7_14  and  O2_2 
REMARK    5  A    between atoms: C17_24  and  O5_5 
REMARK       I    between atoms: C11_18  and  N1_7 
REMARK    6  A    between atoms: C3_10  and  N1_7 
REMARK    7  A    between atoms: C1_8  and  C2_9 
REMARK    8  A    between atoms: C1_8  and  C3_10 
REMARK    9  A    between atoms: C11_18  and  C9_16 
ROOT
HETATM    1  O4  UNK     1      -1.823   1.195  -3.528  1.00  0.00    -0.267 OA
HETATM    2  N1  UNK     1      -1.913  -0.711  -2.189  1.00  0.00    -0.356 N 
HETATM    3  C11 UNK     1      -1.282   0.341  -2.828  1.00  0.00     0.257 C 
HETATM    4  H7  UNK     1      -1.364  -1.355  -1.626  1.00  0.00     0.162 HD
ENDROOT
BRANCH   2   5
HETATM    5  C3  UNK     1      -3.337  -0.942  -2.270  1.00  0.00     0.127 C 
BRANCH   5   6
HETATM    6  C1  UNK     1      -4.110  -0.227  -1.165  1.00  0.00     0.058 C 
BRANCH   6   7
HETATM    7  C2  UNK     1      -3.678  -0.642   0.220  1.00  0.00    -0.054 A 
HETATM    8  C4  UNK     1      -2.653   0.048   0.867  1.00  0.00     0.046 A 
HETATM    9  C6  UNK     1      -2.253  -0.336   2.147  1.00  0.00     0.102 A 
HETATM   10  C7  UNK     1      -2.879  -1.410   2.780  1.00  0.00     0.102 A 
HETATM   11  C8  UNK     1      -3.904  -2.100   2.133  1.00  0.00     0.040 A 
HETATM   12  C5  UNK     1      -4.303  -1.716   0.853  1.00  0.00     0.010 A 
BRANCH   9  13
HETATM   13  O1  UNK     1      -1.251   0.346   2.769  1.00  0.00    -0.349 OA
BRANCH  13  14
HETATM   14  C19 UNK     1      -0.252   0.931   1.936  1.00  0.00     0.171 C 
HETATM   15  C21 UNK     1       1.056   0.982   2.696  1.00  0.00     0.034 C 
ENDBRANCH  13  14
ENDBRANCH   9  13
BRANCH  10  16
HETATM   16  O2  UNK     1      -2.497  -1.795   4.030  1.00  0.00    -0.349 OA
BRANCH  16  17
HETATM   17  C20 UNK     1      -2.013  -3.128   4.179  1.00  0.00     0.171 C 
HETATM   18  C22 UNK     1      -0.994  -3.160   5.298  1.00  0.00     0.034 C 
ENDBRANCH  16  17
ENDBRANCH  10  16
ENDBRANCH   6   7
ENDBRANCH   5   6
ENDBRANCH   2   5
BRANCH   3  19
HETATM   19  C9  UNK     1       0.167   0.366  -2.593  1.00  0.00     0.108 A 
HETATM   20  C12 UNK     1       0.651   1.464  -2.001  1.00  0.00     0.037 A 
HETATM   21  C10 UNK     1       2.075   1.582  -1.726  1.00  0.00     0.002 A 
HETATM   22  C13 UNK     1       2.918   0.536  -2.088  1.00  0.00     0.089 A 
HETATM   23  C14 UNK     1       2.624   2.710  -1.112  1.00  0.00     0.051 A 
HETATM   24  O3  UNK     1       2.402  -0.618  -2.709  1.00  0.00    -0.274 OA
HETATM   25  C16 UNK     1       4.291   0.586  -1.853  1.00  0.00     0.041 A 
HETATM   26  C15 UNK     1       1.045  -0.759  -2.986  1.00  0.00     0.304 A 
HETATM   27  O6  UNK     1       0.605  -1.767  -3.528  1.00  0.00    -0.259 OA
HETATM   28  C18 UNK     1       4.831   1.715  -1.240  1.00  0.00     0.039 A 
HETATM   29  C17 UNK     1       3.999   2.774  -0.869  1.00  0.00     0.069 A 
BRANCH  29  30
HETATM   30  O5  UNK     1       4.531   3.875  -0.269  1.00  0.00    -0.356 OA
HETATM   31  C23 UNK     1       5.941   3.877  -0.050  1.00  0.00     0.210 C 
ENDBRANCH  29  30
ENDBRANCH   3  19
TORSDOF 9
