REMARK  0 active torsions:
REMARK  status: ('A' for Active; 'I' for Inactive)
ROOT
HETATM    1  O1  UNK     1      -2.314  -0.393  -1.137  1.00  0.00    -0.273 OA
HETATM    2  O2  UNK     1       3.461   1.842   0.009  1.00  0.00    -0.262 OA
HETATM    3  O3  UNK     1      -1.364  -0.276  -3.203  1.00  0.00    -0.257 OA
HETATM    4  O4  UNK     1       3.074   1.602  -2.571  1.00  0.00    -0.262 OA
HETATM    5  N1  UNK     1       1.364   0.887   0.498  1.00  0.00    -0.311 N 
HETATM    6  N2  UNK     1       0.964   0.740  -2.213  1.00  0.00    -0.312 N 
HETATM    7  C1  UNK     1       0.213   0.265  -0.014  1.00  0.00     0.083 C 
HETATM    8  C2  UNK     1      -0.836  -0.389   0.811  1.00  0.00     0.027 A 
HETATM    9  C3  UNK     1       0.013   0.271  -1.346  1.00  0.00     0.139 C 
HETATM   10  C4  UNK     1      -2.086  -0.626   0.229  1.00  0.00     0.092 A 
HETATM   11  C5  UNK     1       2.396   1.341  -0.341  1.00  0.00     0.316 C 
HETATM   12  C6  UNK     1      -1.245  -0.178  -1.986  1.00  0.00     0.317 C 
HETATM   13  C7  UNK     1      -0.674  -0.873   2.118  1.00  0.00     0.017 A 
HETATM   14  C8  UNK     1       1.535   1.193   1.912  1.00  0.00     0.160 C 
HETATM   15  C9  UNK     1       2.180   1.231  -1.823  1.00  0.00     0.314 C 
HETATM   16  C10 UNK     1      -3.161  -1.191   0.925  1.00  0.00     0.038 A 
HETATM   17  C11 UNK     1      -1.735  -1.449   2.831  1.00  0.00     0.001 A 
HETATM   18  C12 UNK     1      -2.985  -1.590   2.242  1.00  0.00     0.003 A 
HETATM   19  H1  UNK     1       0.760   0.699  -3.207  1.00  0.00     0.169 HD
ENDROOT
TORSDOF 0
