REMARK  4 active torsions:
REMARK  status: ('A' for Active; 'I' for Inactive)
REMARK       I    between atoms: C5_8  and  N1_2 
REMARK    1  A    between atoms: C8_11  and  N1_2 
REMARK    2  A    between atoms: C1_4  and  C2_5 
REMARK    3  A    between atoms: C1_4  and  C5_8 
REMARK    4  A    between atoms: C3_6  and  C4_7 
ROOT
HETATM    1  C1  UNK     1      -0.351  -0.044   0.666  1.00  0.00     0.043 C 
HETATM    2  C3  UNK     1      -0.761  -0.384   1.916  1.00  0.00     0.029 C 
ENDROOT
BRANCH   1   3
HETATM    3  C2  UNK     1      -1.178  -0.312  -0.529  1.00  0.00    -0.021 A 
HETATM    4  C6  UNK     1      -2.081   0.646  -0.954  1.00  0.00     0.012 A 
HETATM    5  C11 UNK     1      -2.861   0.393  -2.082  1.00  0.00     0.001 A 
HETATM    6  C13 UNK     1      -2.726  -0.814  -2.767  1.00  0.00     0.000 A 
HETATM    7  C12 UNK     1      -1.810  -1.768  -2.324  1.00  0.00     0.001 A 
HETATM    8  C7  UNK     1      -1.029  -1.515  -1.196  1.00  0.00     0.012 A 
ENDBRANCH   1   3
BRANCH   1   9
HETATM    9  C5  UNK     1       1.015   0.594   0.557  1.00  0.00     0.258 C 
HETATM   10  O1  UNK     1       1.679   0.813   1.566  1.00  0.00    -0.267 OA
HETATM   11  N1  UNK     1       1.373   0.882  -0.754  1.00  0.00    -0.307 N 
HETATM   12  H4  UNK     1       0.741   0.657  -1.516  1.00  0.00     0.170 HD
BRANCH  11  13
HETATM   13  C8  UNK     1       2.564   1.480  -1.192  1.00  0.00     0.130 A 
HETATM   14  C14 UNK     1       3.494   1.827  -0.227  1.00  0.00     0.050 A 
HETATM   15  C19 UNK     1       4.678   2.421  -0.650  1.00  0.00     0.006 A 
HETATM   16  C18 UNK     1       4.890   2.645  -2.006  1.00  0.00     0.027 A 
HETATM   17  C15 UNK     1       3.896   2.259  -2.891  1.00  0.00     0.033 A 
HETATM   18  N2  UNK     1       2.733   1.680  -2.517  1.00  0.00    -0.236 NA
HETATM   19  C21 UNK     1       4.089   2.486  -4.353  1.00  0.00     0.070 C 
ENDBRANCH  11  13
ENDBRANCH   1   9
BRANCH   2  20
HETATM   20  C4  UNK     1      -2.008  -1.045   2.270  1.00  0.00    -0.035 A 
HETATM   21  C10 UNK     1      -2.063  -2.437   2.342  1.00  0.00     0.011 A 
HETATM   22  C17 UNK     1      -3.258  -3.071   2.682  1.00  0.00     0.001 A 
HETATM   23  C20 UNK     1      -4.398  -2.313   2.950  1.00  0.00     0.000 A 
HETATM   24  C16 UNK     1      -4.343  -0.922   2.878  1.00  0.00     0.001 A 
HETATM   25  C9  UNK     1      -3.148  -0.288   2.538  1.00  0.00     0.011 A 
ENDBRANCH   2  20
TORSDOF 4
