REMARK  4 active torsions:
REMARK  status: ('A' for Active; 'I' for Inactive)
REMARK    1  A    between atoms: C5_13  and  N1_6 
REMARK    2  A    between atoms: C6_14  and  N2_7 
REMARK    3  A    between atoms: C6_14  and  N3_8 
REMARK    4  A    between atoms: C9_17  and  N3_8 
ROOT
HETATM    1  S1  UNK     1       3.472  -0.097   3.578  1.00  0.00    -0.041 SA
HETATM    2  C6  UNK     1       2.580   0.500   2.288  1.00  0.00     0.174 C 
ENDROOT
BRANCH   2   3
HETATM    3  N2  UNK     1       1.287   0.123   2.126  1.00  0.00    -0.355 N 
HETATM    4  C3  UNK     1       0.303   1.032   1.557  1.00  0.00     0.145 C 
HETATM    5  C1  UNK     1      -1.110   0.727   2.048  1.00  0.00     0.143 C 
HETATM    6  N1  UNK     1      -1.459  -0.674   1.788  1.00  0.00    -0.378 N 
HETATM    7  C2  UNK     1      -0.375  -1.660   1.704  1.00  0.00     0.143 C 
HETATM    8  C4  UNK     1       0.834  -1.204   2.517  1.00  0.00     0.145 C 
BRANCH   6   9
HETATM    9  C5  UNK     1      -2.788  -1.060   1.626  1.00  0.00     0.032 A 
HETATM   10  C7  UNK     1      -3.143  -2.156   0.804  1.00  0.00     0.054 A 
HETATM   11  C10 UNK     1      -4.473  -2.542   0.643  1.00  0.00     0.058 A 
HETATM   12 Cl1  UNK     1      -4.803  -3.893  -0.384  1.00  0.00    -0.082 Cl
HETATM   13  C16 UNK     1      -5.487  -1.845   1.300  1.00  0.00     0.055 A 
HETATM   14  C11 UNK     1      -5.169  -0.761   2.118  1.00  0.00     0.028 A 
HETATM   15 Cl2  UNK     1      -7.153  -2.275   1.141  1.00  0.00    -0.083 Cl
HETATM   16  C8  UNK     1      -3.839  -0.374   2.279  1.00  0.00     0.031 A 
ENDBRANCH   6   9
ENDBRANCH   2   3
BRANCH   2  17
HETATM   17  N3  UNK     1       3.132   1.421   1.414  1.00  0.00    -0.333 N 
HETATM   18  H11 UNK     1       3.861   2.000   1.825  1.00  0.00     0.168 HD
BRANCH  17  19
HETATM   19  C9  UNK     1       2.886   1.688   0.067  1.00  0.00     0.036 A 
HETATM   20  C12 UNK     1       2.438   0.677  -0.776  1.00  0.00     0.067 A 
HETATM   21  C14 UNK     1       2.198   0.967  -2.120  1.00  0.00     0.092 A 
HETATM   22  C13 UNK     1       2.392   2.241  -2.654  1.00  0.00     0.004 A 
HETATM   23  O1  UNK     1       1.745  -0.099  -2.924  1.00  0.00    -0.275 OA
HETATM   24  C17 UNK     1       2.843   3.247  -1.789  1.00  0.00     0.017 A 
HETATM   25  C18 UNK     1       2.113   2.457  -4.080  1.00  0.00    -0.043 A 
HETATM   26  C15 UNK     1       3.089   2.971  -0.438  1.00  0.00     0.030 A 
HETATM   27  C19 UNK     1       1.684   1.425  -4.821  1.00  0.00     0.090 A 
HETATM   28  C20 UNK     1       2.312   3.816  -4.685  1.00  0.00     0.049 C 
HETATM   29  C21 UNK     1       1.474   0.075  -4.272  1.00  0.00     0.288 A 
HETATM   30  O2  UNK     1       1.080  -0.845  -4.981  1.00  0.00    -0.260 OA
ENDBRANCH  17  19
ENDBRANCH   2  17
TORSDOF 4
