REMARK  3 active torsions:
REMARK  status: ('A' for Active; 'I' for Inactive)
REMARK       I    between atoms: C11_17  and  N1_5 
REMARK    1  A    between atoms: C13_19  and  N1_5 
REMARK    2  A    between atoms: C2_8  and  C6_12 
REMARK    3  A    between atoms: C11_17  and  C4_10 
ROOT
HETATM    1  O2  UNK     1      -0.041  -0.234  -1.572  1.00  0.00    -0.267 OA
HETATM    2  N1  UNK     1       0.518   0.523   0.587  1.00  0.00    -0.301 N 
HETATM    3  C11 UNK     1       0.693   0.354  -0.780  1.00  0.00     0.263 C 
HETATM    4  H8  UNK     1       1.203   1.054   1.119  1.00  0.00     0.171 HD
ENDROOT
BRANCH   2   5
HETATM    5  C13 UNK     1      -0.553   0.052   1.385  1.00  0.00     0.173 A 
HETATM    6  S1  UNK     1      -0.430   0.449   3.030  1.00  0.00    -0.061 SA
HETATM    7  C17 UNK     1      -1.915  -0.374   3.270  1.00  0.00     0.085 A 
HETATM    8  C6  UNK     1      -2.365  -0.878   2.068  1.00  0.00     0.076 A 
HETATM    9  N2  UNK     1      -1.565  -0.625   0.971  1.00  0.00    -0.223 NA
BRANCH   8  10
HETATM   10  C2  UNK     1      -3.587  -1.619   1.951  1.00  0.00    -0.007 A 
HETATM   11  C8  UNK     1      -4.045  -2.386   3.023  1.00  0.00     0.014 A 
HETATM   12  C14 UNK     1      -5.233  -3.107   2.909  1.00  0.00     0.007 A 
HETATM   13  C7  UNK     1      -5.965  -3.063   1.723  1.00  0.00    -0.062 A 
HETATM   14  C15 UNK     1      -5.509  -2.297   0.650  1.00  0.00     0.007 A 
HETATM   15  C20 UNK     1      -7.236  -3.833   1.601  1.00  0.00     0.048 C 
HETATM   16  C9  UNK     1      -4.320  -1.575   0.764  1.00  0.00     0.014 A 
ENDBRANCH   8  10
ENDBRANCH   2   5
BRANCH   3  17
HETATM   17  C4  UNK     1       1.927   0.985  -1.262  1.00  0.00     0.108 A 
HETATM   18  C12 UNK     1       3.126   1.123  -0.404  1.00  0.00     0.304 A 
HETATM   19  O1  UNK     1       4.236   1.740  -0.976  1.00  0.00    -0.274 OA
HETATM   20  O3  UNK     1       3.146   0.716   0.752  1.00  0.00    -0.259 OA
HETATM   21  C3  UNK     1       4.223   2.211  -2.303  1.00  0.00     0.089 A 
HETATM   22  C1  UNK     1       3.086   2.072  -3.092  1.00  0.00    -0.001 A 
HETATM   23  C16 UNK     1       5.382   2.814  -2.787  1.00  0.00     0.038 A 
HETATM   24  C5  UNK     1       1.910   1.431  -2.524  1.00  0.00     0.037 A 
HETATM   25  C10 UNK     1       3.112   2.552  -4.403  1.00  0.00     0.014 A 
HETATM   26  C18 UNK     1       4.268   3.160  -4.903  1.00  0.00     0.001 A 
HETATM   27  C19 UNK     1       5.400   3.290  -4.096  1.00  0.00     0.003 A 
ENDBRANCH   3  17
TORSDOF 3
