REMARK  5 active torsions:
REMARK  status: ('A' for Active; 'I' for Inactive)
REMARK    1  A    between atoms: C10_15  and  O2_2 
REMARK    2  A    between atoms: C16_21  and  O2_2 
REMARK    3  A    between atoms: C13_18  and  O3_3 
REMARK    4  A    between atoms: C14_19  and  O4_4 
REMARK    5  A    between atoms: C1_6  and  C3_8 
ROOT
HETATM    1  O1  UNK     1       2.224   0.197   0.190  1.00  0.00    -0.274 OA
HETATM    2  O5  UNK     1       1.185  -0.960   1.859  1.00  0.00    -0.259 OA
HETATM    3  C1  UNK     1      -0.172  -0.318   0.013  1.00  0.00     0.051 A 
HETATM    4  C2  UNK     1       0.953   0.943  -1.739  1.00  0.00    -0.001 A 
HETATM    5  C4  UNK     1       2.155   0.866  -1.046  1.00  0.00     0.092 A 
HETATM    6  C5  UNK     1      -0.228   0.317  -1.168  1.00  0.00     0.032 A 
HETATM    7  C6  UNK     1       0.922   1.617  -2.962  1.00  0.00     0.017 A 
HETATM    8  C7  UNK     1       1.108  -0.401   0.770  1.00  0.00     0.299 A 
HETATM    9  C8  UNK     1       3.325   1.442  -1.538  1.00  0.00     0.075 A 
HETATM   10  C10 UNK     1       3.286   2.112  -2.759  1.00  0.00     0.071 A 
HETATM   11  C12 UNK     1       2.087   2.200  -3.469  1.00  0.00     0.038 A 
ENDROOT
BRANCH   3  12
HETATM   12  C3  UNK     1      -1.393  -0.952   0.543  1.00  0.00    -0.017 A 
HETATM   13  C11 UNK     1      -1.683  -2.279   0.227  1.00  0.00     0.015 A 
HETATM   14  C15 UNK     1      -2.838  -2.879   0.730  1.00  0.00     0.040 A 
HETATM   15  C14 UNK     1      -3.703  -2.151   1.547  1.00  0.00     0.101 A 
HETATM   16  C13 UNK     1      -3.412  -0.824   1.863  1.00  0.00     0.102 A 
HETATM   17  C9  UNK     1      -2.257  -0.224   1.361  1.00  0.00     0.052 A 
BRANCH  15  18
HETATM   18  O4  UNK     1      -4.828  -2.748   2.031  1.00  0.00    -0.353 OA
HETATM   19  C19 UNK     1      -6.007  -2.646   1.235  1.00  0.00     0.210 C 
ENDBRANCH  15  18
BRANCH  16  20
HETATM   20  O3  UNK     1      -4.249  -0.103   2.661  1.00  0.00    -0.353 OA
HETATM   21  C18 UNK     1      -4.003  -0.145   4.065  1.00  0.00     0.210 C 
ENDBRANCH  16  20
ENDBRANCH   3  12
BRANCH  10  22
HETATM   22  O2  UNK     1       4.416   2.682  -3.259  1.00  0.00    -0.351 OA
BRANCH  22  23
HETATM   23  C16 UNK     1       5.379   3.149  -2.316  1.00  0.00     0.171 C 
HETATM   24  C17 UNK     1       6.132   4.317  -2.917  1.00  0.00     0.034 C 
ENDBRANCH  22  23
ENDBRANCH  10  22
TORSDOF 5
