REMARK  4 active torsions:
REMARK  status: ('A' for Active; 'I' for Inactive)
REMARK    1  A    between atoms: C18_25  and  O4_5 
REMARK    2  A    between atoms: C22_29  and  O4_5 
REMARK    3  A    between atoms: C5_12  and  N1_6 
REMARK       I    between atoms: C6_13  and  N2_7 
REMARK    4  A    between atoms: C6_13  and  C9_16 
ROOT
HETATM    1  O1  UNK     1      -1.846   1.892  -2.600  1.00  0.00    -0.267 OA
HETATM    2  N1  UNK     1      -2.771  -1.405   0.840  1.00  0.00    -0.377 N 
HETATM    3  N2  UNK     1      -1.598  -0.040  -1.333  1.00  0.00    -0.345 N 
HETATM    4  C1  UNK     1      -3.595  -0.500   0.021  1.00  0.00     0.143 C 
HETATM    5  C2  UNK     1      -1.325  -1.137   0.849  1.00  0.00     0.143 C 
HETATM    6  C3  UNK     1      -3.018  -0.379  -1.389  1.00  0.00     0.146 C 
HETATM    7  C4  UNK     1      -0.801  -1.013  -0.581  1.00  0.00     0.146 C 
HETATM    8  C6  UNK     1      -1.135   1.101  -1.978  1.00  0.00     0.260 C 
ENDROOT
BRANCH   8   9
HETATM    9  C9  UNK     1       0.311   1.391  -1.910  1.00  0.00     0.108 A 
HETATM   10  C13 UNK     1       1.066   0.870  -2.884  1.00  0.00     0.037 A 
HETATM   11  C15 UNK     1       2.502   1.100  -2.903  1.00  0.00     0.002 A 
HETATM   12  C17 UNK     1       3.073   1.868  -1.893  1.00  0.00     0.123 A 
HETATM   13  C19 UNK     1       3.327   0.577  -3.901  1.00  0.00     0.014 A 
HETATM   14  O2  UNK     1       2.274   2.414  -0.870  1.00  0.00    -0.271 OA
HETATM   15  C18 UNK     1       4.442   2.126  -1.853  1.00  0.00     0.103 A 
HETATM   16  C16 UNK     1       0.897   2.211  -0.826  1.00  0.00     0.304 A 
HETATM   17  O3  UNK     1       0.209   2.691   0.069  1.00  0.00    -0.259 OA
HETATM   18  C20 UNK     1       5.258   1.600  -2.852  1.00  0.00     0.040 A 
HETATM   19  C21 UNK     1       4.702   0.827  -3.874  1.00  0.00     0.004 A 
BRANCH  15  20
HETATM   20  O4  UNK     1       4.988   2.878  -0.860  1.00  0.00    -0.349 OA
BRANCH  20  21
HETATM   21  C22 UNK     1       6.333   2.583  -0.485  1.00  0.00     0.171 C 
HETATM   22  C23 UNK     1       6.524   2.927   0.977  1.00  0.00     0.034 C 
ENDBRANCH  20  21
ENDBRANCH  15  20
ENDBRANCH   8   9
BRANCH   2  23
HETATM   23  C5  UNK     1      -3.370  -1.994   1.960  1.00  0.00     0.037 A 
HETATM   24  C7  UNK     1      -4.048  -3.236   1.889  1.00  0.00    -0.035 A 
HETATM   25  C10 UNK     1      -4.639  -3.808   3.015  1.00  0.00     0.011 A 
HETATM   26  C11 UNK     1      -4.137  -3.956   0.583  1.00  0.00     0.050 C 
HETATM   27  C14 UNK     1      -4.571  -3.155   4.246  1.00  0.00     0.024 A 
HETATM   28  C12 UNK     1      -3.911  -1.931   4.351  1.00  0.00     0.036 A 
HETATM   29 Cl1  UNK     1      -3.827  -1.126   5.870  1.00  0.00    -0.084 Cl
HETATM   30  C8  UNK     1      -3.319  -1.359   3.224  1.00  0.00     0.053 A 
ENDBRANCH   2  23
TORSDOF 4
