REMARK  6 active torsions:
REMARK  status: ('A' for Active; 'I' for Inactive)
REMARK    1  A    between atoms: C2_9  and  O1_5 
REMARK    2  A    between atoms: C5_12  and  O1_5 
REMARK    3  A    between atoms: C3_10  and  O2_6 
REMARK    4  A    between atoms: C1_8  and  C9_16 
REMARK    5  A    between atoms: C5_12  and  C8_15 
REMARK    6  A    between atoms: C10_17  and  C11_18 
ROOT
HETATM    1  N1  UNK     1      -3.340   1.586   1.368  1.00  0.00    -0.191 NA
HETATM    2  C9  UNK     1      -1.554  -1.346   1.038  1.00  0.00     0.036 C 
HETATM    3  C10 UNK     1      -2.782  -0.950   1.463  1.00  0.00     0.057 C 
HETATM    4  C23 UNK     1      -3.083   0.455   1.407  1.00  0.00     0.100 C 
ENDROOT
BRANCH   3   5
HETATM    5  C11 UNK     1      -3.800  -1.868   1.961  1.00  0.00     0.006 A 
HETATM    6  C14 UNK     1      -4.734  -2.470   1.118  1.00  0.00     0.047 A 
HETATM    7 Cl1  UNK     1      -4.755  -2.168  -0.584  1.00  0.00    -0.083 Cl
HETATM    8  C19 UNK     1      -5.688  -3.342   1.644  1.00  0.00     0.048 A 
HETATM    9  C21 UNK     1      -5.707  -3.612   3.012  1.00  0.00     0.035 A 
HETATM   10  C20 UNK     1      -4.772  -3.010   3.855  1.00  0.00     0.025 A 
HETATM   11 Cl2  UNK     1      -6.882  -4.688   3.661  1.00  0.00    -0.084 Cl
HETATM   12  C15 UNK     1      -3.819  -2.138   3.330  1.00  0.00     0.016 A 
ENDBRANCH   3   5
BRANCH   2  13
HETATM   13  C1  UNK     1      -0.498  -0.463   0.522  1.00  0.00    -0.015 A 
HETATM   14  C4  UNK     1      -0.478  -0.232  -0.848  1.00  0.00     0.052 A 
HETATM   15  C3  UNK     1       0.502   0.597  -1.392  1.00  0.00     0.102 A 
HETATM   16  C2  UNK     1       1.455   1.188  -0.562  1.00  0.00     0.103 A 
HETATM   17  C7  UNK     1       1.427   0.950   0.812  1.00  0.00     0.059 A 
HETATM   18  C6  UNK     1       0.447   0.121   1.356  1.00  0.00     0.024 A 
HETATM   19 Br1  UNK     1       0.466  -0.162   3.235  1.00  0.00    -0.050 Br
BRANCH  15  20
HETATM   20  O2  UNK     1       0.519   0.823  -2.736  1.00  0.00    -0.353 OA
HETATM   21  C22 UNK     1      -0.235   1.934  -3.216  1.00  0.00     0.210 C 
ENDBRANCH  15  20
BRANCH  16  22
HETATM   22  O1  UNK     1       2.417   2.001  -1.083  1.00  0.00    -0.344 OA
BRANCH  22  23
HETATM   23  C5  UNK     1       3.773   1.607  -0.886  1.00  0.00     0.214 C 
BRANCH  23  24
HETATM   24  C8  UNK     1       4.604   2.127  -2.022  1.00  0.00    -0.034 A 
HETATM   25  C12 UNK     1       4.779   1.348  -3.160  1.00  0.00     0.012 A 
HETATM   26  C16 UNK     1       5.551   1.832  -4.216  1.00  0.00     0.043 A 
HETATM   27  C18 UNK     1       6.143   3.092  -4.127  1.00  0.00     0.116 A 
HETATM   28  C17 UNK     1       5.963   3.868  -2.982  1.00  0.00     0.043 A 
HETATM   29  F1  UNK     1       6.885   3.556  -5.141  1.00  0.00    -0.206 F 
HETATM   30  C13 UNK     1       5.191   3.384  -1.926  1.00  0.00     0.012 A 
ENDBRANCH  23  24
ENDBRANCH  22  23
ENDBRANCH  16  22
ENDBRANCH   2  13
TORSDOF 6
