REMARK  1 active torsions:
REMARK  status: ('A' for Active; 'I' for Inactive)
REMARK    1  A    between atoms: C10_16  and  C6_12 
ROOT
HETATM    1  O1  UNK     1       0.283  -2.067   2.865  1.00  0.00    -0.293 OA
HETATM    2  N1  UNK     1      -2.699   0.148  -0.204  1.00  0.00    -0.357 N 
HETATM    3  N2  UNK     1      -0.464  -1.661  -1.083  1.00  0.00    -0.375 N 
HETATM    4  C1  UNK     1      -3.267  -1.344   3.185  1.00  0.00    -0.036 C 
HETATM    5  C2  UNK     1      -3.335  -0.278   2.081  1.00  0.00     0.067 C 
HETATM    6  C3  UNK     1      -1.833  -1.402   3.707  1.00  0.00     0.092 C 
HETATM    7  C4  UNK     1      -2.293  -0.431   0.982  1.00  0.00     0.022 C 
HETATM    8  C5  UNK     1      -1.113  -1.043   1.220  1.00  0.00     0.037 C 
HETATM    9  C6  UNK     1      -0.003  -1.192   0.213  1.00  0.00     0.160 C 
HETATM   10  C7  UNK     1      -0.811  -1.563   2.604  1.00  0.00     0.160 C 
HETATM   11  C8  UNK     1      -3.714  -2.722   2.654  1.00  0.00     0.015 C 
HETATM   12  C9  UNK     1      -4.212  -0.947   4.334  1.00  0.00     0.015 C 
HETATM   13  C11 UNK     1      -2.303  -0.073  -1.538  1.00  0.00     0.059 A 
HETATM   14  C12 UNK     1      -1.301  -0.970  -1.944  1.00  0.00     0.055 A 
HETATM   15  C15 UNK     1      -3.023   0.632  -2.531  1.00  0.00     0.032 A 
HETATM   16  C16 UNK     1      -1.091  -1.161  -3.329  1.00  0.00     0.031 A 
HETATM   17  C18 UNK     1      -2.786   0.441  -3.891  1.00  0.00     0.002 A 
HETATM   18  C19 UNK     1      -1.822  -0.467  -4.292  1.00  0.00     0.002 A 
HETATM   19  H12 UNK     1      -3.494   0.774  -0.109  1.00  0.00     0.166 HD
HETATM   20  H13 UNK     1       0.089  -2.403  -1.502  1.00  0.00     0.160 HD
ENDROOT
BRANCH   9  21
HETATM   21  C10 UNK     1       0.825   0.048   0.073  1.00  0.00     0.042 A 
HETATM   22  C13 UNK     1       1.972   0.033  -0.870  1.00  0.00     0.195 A 
HETATM   23  O3  UNK     1       2.257  -0.956  -1.532  1.00  0.00    -0.287 OA
HETATM   24  C17 UNK     1       2.755   1.279  -0.967  1.00  0.00     0.050 A 
HETATM   25  C20 UNK     1       2.384   2.376  -0.188  1.00  0.00     0.089 A 
HETATM   26  C21 UNK     1       3.853   1.365  -1.826  1.00  0.00     0.042 A 
HETATM   27  O2  UNK     1       1.314   2.347   0.671  1.00  0.00    -0.321 OA
HETATM   28  C22 UNK     1       3.110   3.565  -0.265  1.00  0.00     0.040 A 
HETATM   29  C14 UNK     1       0.595   1.180   0.752  1.00  0.00     0.156 A 
HETATM   30  C24 UNK     1       4.207   3.653  -1.121  1.00  0.00     0.026 A 
HETATM   31  C23 UNK     1       4.578   2.556  -1.900  1.00  0.00     0.035 A 
HETATM   32 Cl1  UNK     1       5.933   2.672  -2.955  1.00  0.00    -0.084 Cl
ENDBRANCH   9  21
TORSDOF 1
