REMARK  6 active torsions:
REMARK  status: ('A' for Active; 'I' for Inactive)
REMARK    1  A    between atoms: C17_23  and  O2_3 
REMARK    2  A    between atoms: C22_28  and  O2_3 
REMARK    3  A    between atoms: C5_11  and  N1_5 
REMARK    4  A    between atoms: C6_12  and  N2_6 
REMARK    5  A    between atoms: C5_11  and  C7_13 
REMARK    6  A    between atoms: C6_12  and  C8_14 
ROOT
HETATM    1  C5  UNK     1      -0.106  -1.755   0.483  1.00  0.00     0.312 C 
ENDROOT
BRANCH   1   2
HETATM    2  N1  UNK     1       0.152  -0.552  -0.306  1.00  0.00     0.096 N 
HETATM    3  C1  UNK     1       1.306   0.183   0.224  1.00  0.00     0.303 C 
HETATM    4  C3  UNK     1       1.578   1.444  -0.604  1.00  0.00     0.303 C 
HETATM    5  N2  UNK     1       1.790   1.105  -2.017  1.00  0.00     0.096 N 
HETATM    6  C4  UNK     1       0.636   0.369  -2.547  1.00  0.00     0.303 C 
HETATM    7  C2  UNK     1       0.366  -0.892  -1.719  1.00  0.00     0.303 C 
BRANCH   5   8
HETATM    8  C6  UNK     1       2.045   2.309  -2.806  1.00  0.00     0.312 C 
BRANCH   8   9
HETATM    9  C8  UNK     1       3.471   2.774  -2.674  1.00  0.00    -0.008 A 
HETATM   10  C12 UNK     1       4.470   2.327  -3.539  1.00  0.00     0.042 A 
HETATM   11 Cl1  UNK     1       4.123   1.212  -4.810  1.00  0.00    -0.084 Cl
HETATM   12  C18 UNK     1       5.780   2.781  -3.385  1.00  0.00     0.024 A 
HETATM   13  C21 UNK     1       6.091   3.683  -2.367  1.00  0.00     0.002 A 
HETATM   14  C19 UNK     1       5.092   4.130  -1.503  1.00  0.00     0.001 A 
HETATM   15  C13 UNK     1       3.782   3.676  -1.656  1.00  0.00     0.011 A 
ENDBRANCH   8   9
ENDBRANCH   5   8
ENDBRANCH   1   2
BRANCH   1  16
HETATM   16  C7  UNK     1      -0.845  -1.454   1.741  1.00  0.00    -0.011 A 
HETATM   17  C10 UNK     1      -0.192  -1.167   2.876  1.00  0.00     0.092 A 
HETATM   18  C15 UNK     1      -0.879  -0.864   4.143  1.00  0.00     0.288 A 
HETATM   19  O1  UNK     1      -2.265  -0.886   4.121  1.00  0.00    -0.275 OA
HETATM   20  O3  UNK     1      -0.248  -0.606   5.162  1.00  0.00    -0.260 OA
HETATM   21  C11 UNK     1      -2.979  -1.185   2.943  1.00  0.00     0.090 A 
HETATM   22  C9  UNK     1      -2.314  -1.471   1.750  1.00  0.00     0.009 A 
HETATM   23  C16 UNK     1      -4.372  -1.179   3.038  1.00  0.00     0.041 A 
HETATM   24  C14 UNK     1      -3.096  -1.759   0.623  1.00  0.00     0.051 A 
HETATM   25  C17 UNK     1      -4.493  -1.757   0.703  1.00  0.00     0.069 A 
HETATM   26  C20 UNK     1      -5.130  -1.467   1.908  1.00  0.00     0.039 A 
BRANCH  25  27
HETATM   27  O2  UNK     1      -5.235  -2.040  -0.404  1.00  0.00    -0.351 OA
BRANCH  27  28
HETATM   28  C22 UNK     1      -4.673  -1.691  -1.668  1.00  0.00     0.171 C 
HETATM   29  C23 UNK     1      -5.795  -1.384  -2.637  1.00  0.00     0.034 C 
ENDBRANCH  27  28
ENDBRANCH  25  27
ENDBRANCH   1  16
TORSDOF 6
