REMARK  4 active torsions:
REMARK  status: ('A' for Active; 'I' for Inactive)
REMARK    1  A    between atoms: C14_21  and  O2_4 
REMARK    2  A    between atoms: C17_24  and  O2_4 
REMARK    3  A    between atoms: C5_12  and  N1_7 
REMARK       I    between atoms: C6_13  and  N1_7 
REMARK    4  A    between atoms: C2_9  and  C6_13 
ROOT
HETATM    1  O3  UNK     1       0.794   1.273   1.358  1.00  0.00    -0.267 OA
HETATM    2  N1  UNK     1      -0.503   0.021  -0.175  1.00  0.00    -0.323 N 
HETATM    3  C6  UNK     1       0.538   0.837   0.238  1.00  0.00     0.262 C 
HETATM    4  H3  UNK     1      -0.539  -0.253  -1.154  1.00  0.00     0.169 HD
ENDROOT
BRANCH   3   5
HETATM    5  C2  UNK     1       1.445   1.213  -0.854  1.00  0.00     0.108 A 
HETATM    6  C4  UNK     1       2.721   1.431  -0.515  1.00  0.00     0.037 A 
HETATM    7  C1  UNK     1       3.695   1.809  -1.527  1.00  0.00    -0.001 A 
HETATM    8  C3  UNK     1       3.276   1.939  -2.848  1.00  0.00     0.089 A 
HETATM    9  C7  UNK     1       5.036   2.046  -1.218  1.00  0.00     0.014 A 
HETATM   10  O1  UNK     1       1.932   1.708  -3.199  1.00  0.00    -0.274 OA
HETATM   11  C9  UNK     1       4.159   2.298  -3.865  1.00  0.00     0.038 A 
HETATM   12  C8  UNK     1       0.978   1.345  -2.252  1.00  0.00     0.304 A 
HETATM   13  O4  UNK     1      -0.191   1.147  -2.567  1.00  0.00    -0.259 OA
HETATM   14  C13 UNK     1       5.495   2.533  -3.548  1.00  0.00     0.003 A 
HETATM   15  C10 UNK     1       5.933   2.407  -2.228  1.00  0.00     0.001 A 
ENDBRANCH   3   5
BRANCH   2  16
HETATM   16  C5  UNK     1      -1.546  -0.517   0.614  1.00  0.00     0.035 A 
HETATM   17  C11 UNK     1      -1.588  -0.232   1.969  1.00  0.00     0.032 A 
HETATM   18  C15 UNK     1      -2.617  -0.764   2.747  1.00  0.00     0.039 A 
HETATM   19  C14 UNK     1      -3.589  -1.573   2.159  1.00  0.00     0.075 A 
HETATM   20  C16 UNK     1      -3.533  -1.850   0.793  1.00  0.00     0.039 A 
HETATM   21  C12 UNK     1      -2.504  -1.319   0.016  1.00  0.00     0.032 A 
BRANCH  19  22
HETATM   22  O2  UNK     1      -4.592  -2.091   2.919  1.00  0.00    -0.290 OA
BRANCH  22  23
HETATM   23  C17 UNK     1      -5.137  -3.342   2.518  1.00  0.00     0.505 C 
HETATM   24  F1  UNK     1      -5.569  -3.979   3.637  1.00  0.00    -0.184 F 
HETATM   25  F2  UNK     1      -6.233  -3.125   1.751  1.00  0.00    -0.184 F 
ENDBRANCH  22  23
ENDBRANCH  19  22
ENDBRANCH   2  16
TORSDOF 4
