REMARK  6 active torsions:
REMARK  status: ('A' for Active; 'I' for Inactive)
REMARK    1  A    between atoms: C2_9  and  O2_2 
REMARK    2  A    between atoms: C7_14  and  O4_4 
REMARK    3  A    between atoms: C11_18  and  O5_5 
REMARK    4  A    between atoms: C13_20  and  O6_6 
REMARK    5  A    between atoms: C15_22  and  O7_7 
REMARK    6  A    between atoms: C1_8  and  C3_10 
ROOT
HETATM    1  O1  UNK     1      -0.165   0.465   0.729  1.00  0.00    -0.337 OA
HETATM    2  O3  UNK     1      -2.436  -2.269  -1.322  1.00  0.00    -0.289 OA
HETATM    3  C1  UNK     1      -0.205   0.458  -0.706  1.00  0.00     0.198 C 
HETATM    4  C2  UNK     1      -0.411  -0.958  -1.247  1.00  0.00     0.227 C 
HETATM    5  C4  UNK     1      -2.045  -1.089   0.679  1.00  0.00     0.079 A 
HETATM    6  C5  UNK     1      -1.710  -1.505  -0.697  1.00  0.00     0.196 C 
HETATM    7  C6  UNK     1      -1.244  -0.140   1.318  1.00  0.00     0.089 A 
HETATM    8  C7  UNK     1      -3.134  -1.658   1.345  1.00  0.00     0.087 A 
HETATM    9  C10 UNK     1      -1.513   0.215   2.640  1.00  0.00     0.074 A 
HETATM   10  C11 UNK     1      -2.597  -0.354   3.309  1.00  0.00     0.073 A 
HETATM   11  C12 UNK     1      -3.408  -1.285   2.661  1.00  0.00     0.074 A 
ENDROOT
BRANCH   3  12
HETATM   12  C3  UNK     1       1.097   1.063  -1.195  1.00  0.00    -0.023 A 
HETATM   13  C8  UNK     1       1.081   2.252  -1.920  1.00  0.00     0.049 A 
HETATM   14  C13 UNK     1       2.278   2.809  -2.370  1.00  0.00     0.102 A 
HETATM   15  C15 UNK     1       3.489   2.174  -2.094  1.00  0.00     0.101 A 
HETATM   16  C14 UNK     1       3.503   0.984  -1.368  1.00  0.00     0.040 A 
HETATM   17  C9  UNK     1       2.306   0.427  -0.918  1.00  0.00     0.013 A 
BRANCH  14  18
HETATM   18  O6  UNK     1       2.252   3.972  -3.078  1.00  0.00    -0.353 OA
HETATM   19  C18 UNK     1       2.338   5.186  -2.333  1.00  0.00     0.210 C 
ENDBRANCH  14  18
BRANCH  15  20
HETATM   20  O7  UNK     1       4.665   2.709  -2.527  1.00  0.00    -0.353 OA
HETATM   21  C19 UNK     1       5.859   1.998  -2.202  1.00  0.00     0.210 C 
ENDBRANCH  15  20
ENDBRANCH   3  12
BRANCH   4  22
HETATM   22  O2  UNK     1      -0.505  -0.932  -2.661  1.00  0.00    -0.385 OA
HETATM   23  H6  UNK     1      -0.559  -1.853  -2.968  1.00  0.00     0.210 HD
ENDBRANCH   4  22
BRANCH  10  24
HETATM   24  O5  UNK     1      -2.865   0.001   4.596  1.00  0.00    -0.356 OA
HETATM   25  C17 UNK     1      -3.988  -0.619   5.220  1.00  0.00     0.210 C 
ENDBRANCH  10  24
BRANCH   8  26
HETATM   26  O4  UNK     1      -3.948  -2.585   0.767  1.00  0.00    -0.355 OA
HETATM   27  C16 UNK     1      -5.086  -2.097   0.059  1.00  0.00     0.210 C 
ENDBRANCH   8  26
TORSDOF 6
