REMARK  3 active torsions:
REMARK  status: ('A' for Active; 'I' for Inactive)
REMARK    1  A    between atoms: C17_23  and  O5_5 
REMARK    2  A    between atoms: C16_22  and  N1_6 
REMARK    3  A    between atoms: C11_17  and  C4_10 
ROOT
HETATM    1  O1  UNK     1       2.685   2.062   1.095  1.00  0.00    -0.332 OA
HETATM    2  O2  UNK     1       0.146  -0.030  -2.492  1.00  0.00    -0.274 OA
HETATM    3  O3  UNK     1       0.793  -0.620   2.598  1.00  0.00    -0.289 OA
HETATM    4  O4  UNK     1      -0.963  -1.030  -4.229  1.00  0.00    -0.260 OA
HETATM    5  C1  UNK     1       2.546   0.910   1.929  1.00  0.00     0.125 C 
HETATM    6  C2  UNK     1       1.309   1.032  -0.636  1.00  0.00     0.048 A 
HETATM    7  C3  UNK     1       1.240   0.133   1.736  1.00  0.00     0.196 C 
HETATM    8  C4  UNK     1       0.565   0.322   0.417  1.00  0.00     0.044 C 
HETATM    9  C5  UNK     1       2.333   1.896  -0.220  1.00  0.00     0.084 A 
HETATM   10  C6  UNK     1       2.589   1.444   3.367  1.00  0.00     0.055 C 
HETATM   11  C7  UNK     1       3.734  -0.034   1.706  1.00  0.00     0.055 C 
HETATM   12  C8  UNK     1       1.095   0.909  -2.020  1.00  0.00     0.103 A 
HETATM   13  C9  UNK     1       1.814   1.663  -2.953  1.00  0.00    -0.001 A 
HETATM   14  C10 UNK     1       3.043   2.675  -1.140  1.00  0.00     0.039 A 
HETATM   15  C12 UNK     1       2.783   2.560  -2.504  1.00  0.00     0.017 A 
HETATM   16  C13 UNK     1       1.541   1.495  -4.372  1.00  0.00     0.020 A 
HETATM   17  C14 UNK     1       0.628   0.615  -4.788  1.00  0.00     0.083 A 
HETATM   18  C15 UNK     1      -0.131  -0.217  -3.842  1.00  0.00     0.288 A 
ENDROOT
BRANCH   8  19
HETATM   19  C11 UNK     1      -0.716  -0.068   0.333  1.00  0.00     0.104 C 
HETATM   20  N1  UNK     1      -1.444  -0.721   1.266  1.00  0.00    -0.363 N 
HETATM   21  H11 UNK     1      -0.977  -0.952   2.135  1.00  0.00     0.165 HD
BRANCH  20  22
HETATM   22  C16 UNK     1      -2.786  -1.141   1.202  1.00  0.00     0.065 A 
HETATM   23  C17 UNK     1      -3.378  -1.810   2.277  1.00  0.00     0.092 A 
HETATM   24  C19 UNK     1      -4.709  -2.219   2.200  1.00  0.00     0.039 A 
HETATM   25  C21 UNK     1      -5.453  -1.961   1.049  1.00  0.00     0.003 A 
HETATM   26  C20 UNK     1      -4.866  -1.293  -0.026  1.00  0.00     0.002 A 
HETATM   27  C18 UNK     1      -3.535  -0.883   0.051  1.00  0.00     0.032 A 
BRANCH  23  28
HETATM   28  O5  UNK     1      -2.668  -2.072   3.410  1.00  0.00    -0.358 OA
HETATM   29  H17 UNK     1      -3.240  -2.541   4.042  1.00  0.00     0.217 HD
ENDBRANCH  23  28
ENDBRANCH  20  22
ENDBRANCH   8  19
TORSDOF 3
