REMARK  0 active torsions:
REMARK  status: ('A' for Active; 'I' for Inactive)
ROOT
HETATM    1  O1  UNK     1      -0.495  -0.014  -1.875  1.00  0.00    -0.338 OA
HETATM    2  O2  UNK     1       3.134   1.857  -1.068  1.00  0.00    -0.278 OA
HETATM    3  O3  UNK     1      -3.350  -1.198   0.925  1.00  0.00    -0.274 OA
HETATM    4  O4  UNK     1      -0.705   2.753   1.054  1.00  0.00    -0.272 OA
HETATM    5  O5  UNK     1       2.734   1.860   1.165  1.00  0.00    -0.264 OA
HETATM    6  O6  UNK     1      -2.119  -0.340   2.621  1.00  0.00    -0.259 OA
HETATM    7  N1  UNK     1       0.247   1.714   2.929  1.00  0.00    -0.325 N 
HETATM    8  C1  UNK     1       0.159   0.425   0.923  1.00  0.00     0.121 A 
HETATM    9  C2  UNK     1       1.193   0.580  -0.240  1.00  0.00     0.147 C 
HETATM   10  C3  UNK     1       0.449   0.999  -1.514  1.00  0.00     0.180 C 
HETATM   11  C4  UNK     1      -1.158  -0.181   0.432  1.00  0.00     0.075 A 
HETATM   12  C5  UNK     1       0.777  -0.339   2.082  1.00  0.00    -0.008 A 
HETATM   13  C6  UNK     1      -0.172   1.794   1.594  1.00  0.00     0.241 A 
HETATM   14  C7  UNK     1      -1.375  -0.380  -0.882  1.00  0.00     0.096 A 
HETATM   15  C8  UNK     1       2.376   1.508   0.047  1.00  0.00     0.273 C 
HETATM   16  C9  UNK     1       1.411   1.185  -2.656  1.00  0.00     0.006 A 
HETATM   17  C10 UNK     1       0.802   0.472   3.217  1.00  0.00     0.042 A 
HETATM   18  C11 UNK     1       1.268  -1.632   2.137  1.00  0.00     0.011 A 
HETATM   19  C12 UNK     1      -2.216  -0.564   1.419  1.00  0.00     0.299 A 
HETATM   20  C13 UNK     1       2.714   1.594  -2.384  1.00  0.00     0.088 A 
HETATM   21  C14 UNK     1      -2.590  -1.034  -1.370  1.00  0.00     0.032 A 
HETATM   22  C15 UNK     1       1.311   0.044   4.427  1.00  0.00     0.030 A 
HETATM   23  C16 UNK     1       1.037   1.021  -3.996  1.00  0.00     0.012 A 
HETATM   24  C17 UNK     1      -3.545  -1.432  -0.445  1.00  0.00     0.092 A 
HETATM   25  C18 UNK     1       1.789  -2.089   3.352  1.00  0.00     0.001 A 
HETATM   26  C19 UNK     1       1.810  -1.258   4.487  1.00  0.00     0.002 A 
HETATM   27  C20 UNK     1       3.647   1.811  -3.399  1.00  0.00     0.038 A 
HETATM   28  C21 UNK     1      -2.844  -1.287  -2.725  1.00  0.00     0.017 A 
HETATM   29  C22 UNK     1       1.962   1.230  -5.023  1.00  0.00     0.001 A 
HETATM   30  C23 UNK     1       3.267   1.620  -4.724  1.00  0.00     0.003 A 
HETATM   31  C24 UNK     1      -4.729  -2.067  -0.822  1.00  0.00     0.038 A 
HETATM   32  C25 UNK     1      -4.026  -1.922  -3.122  1.00  0.00     0.001 A 
HETATM   33  C26 UNK     1      -4.967  -2.312  -2.170  1.00  0.00     0.003 A 
HETATM   34  H3  UNK     1       0.159   2.460   3.609  1.00  0.00     0.169 HD
ENDROOT
TORSDOF 0
