REMARK  5 active torsions:
REMARK  status: ('A' for Active; 'I' for Inactive)
REMARK    1  A    between atoms: C12_16  and  O3_3 
REMARK    2  A    between atoms: C10_14  and  N1_4 
REMARK    3  A    between atoms: C14_18  and  N1_4 
REMARK    4  A    between atoms: C10_14  and  C8_12 
REMARK    5  A    between atoms: C14_18  and  C16_20 
ROOT
HETATM    1  O1  UNK     1       1.690   1.631   0.162  1.00  0.00    -0.274 OA
HETATM    2  O2  UNK     1       3.588   2.467   1.146  1.00  0.00    -0.259 OA
HETATM    3  C1  UNK     1       3.082   1.504  -2.254  1.00  0.00    -0.033 A 
HETATM    4  C2  UNK     1       3.989   1.512  -3.436  1.00  0.00     0.040 C 
HETATM    5  C3  UNK     1       5.362   1.736  -2.792  1.00  0.00     0.009 C 
HETATM    6  C4  UNK     1       5.103   2.346  -1.410  1.00  0.00     0.046 C 
HETATM    7  C5  UNK     1       3.690   1.955  -1.155  1.00  0.00     0.025 A 
HETATM    8  C6  UNK     1       1.696   1.083  -2.223  1.00  0.00     0.006 A 
HETATM    9  C7  UNK     1       1.028   1.158  -0.998  1.00  0.00     0.101 A 
HETATM   10  C8  UNK     1      -0.305   0.776  -0.862  1.00  0.00     0.038 A 
HETATM   11  C9  UNK     1       3.021   2.049   0.144  1.00  0.00     0.295 A 
HETATM   12  C11 UNK     1       0.998   0.616  -3.339  1.00  0.00     0.017 A 
HETATM   13  C12 UNK     1      -0.990   0.310  -1.981  1.00  0.00     0.076 A 
HETATM   14  C13 UNK     1      -0.341   0.230  -3.216  1.00  0.00     0.038 A 
ENDROOT
BRANCH  10  15
HETATM   15  C10 UNK     1      -0.994   0.866   0.460  1.00  0.00     0.316 C 
BRANCH  15  16
HETATM   16  N1  UNK     1      -1.777  -0.333   0.761  1.00  0.00     0.092 N 
HETATM   17  C15 UNK     1      -0.913  -1.512   0.794  1.00  0.00     0.310 C 
BRANCH  16  18
HETATM   18  C14 UNK     1      -2.479  -0.178   2.034  1.00  0.00     0.310 C 
BRANCH  18  19
HETATM   19  C16 UNK     1      -3.343  -1.370   2.347  1.00  0.00    -0.030 A 
HETATM   20  C17 UNK     1      -4.662  -1.391   1.915  1.00  0.00     0.009 A 
HETATM   21  C19 UNK     1      -5.463  -2.496   2.206  1.00  0.00     0.001 A 
HETATM   22  C21 UNK     1      -4.936  -3.568   2.925  1.00  0.00     0.000 A 
HETATM   23  C20 UNK     1      -3.610  -3.537   3.354  1.00  0.00     0.001 A 
HETATM   24  C18 UNK     1      -2.809  -2.432   3.064  1.00  0.00     0.009 A 
ENDBRANCH  18  19
ENDBRANCH  16  18
ENDBRANCH  15  16
ENDBRANCH  10  15
BRANCH  13  25
HETATM   25  O3  UNK     1      -2.295  -0.074  -1.891  1.00  0.00    -0.360 OA
HETATM   26  H16 UNK     1      -2.660   0.148  -1.020  1.00  0.00     0.217 HD
ENDBRANCH  13  25
TORSDOF 5
