REMARK  6 active torsions:
REMARK  status: ('A' for Active; 'I' for Inactive)
REMARK    1  A    between atoms: C18_25  and  O3_4 
REMARK    2  A    between atoms: C12_19  and  N1_6 
REMARK    3  A    between atoms: C4_11  and  N1_6 
REMARK    4  A    between atoms: C11_18  and  N2_7 
REMARK    5  A    between atoms: C12_19  and  N2_7 
REMARK    6  A    between atoms: C14_21  and  C18_25 
ROOT
HETATM    1  N1  UNK     1      -0.003   0.095  -0.528  1.00  0.00    -0.333 N 
HETATM    2  H8  UNK     1       0.901   0.307  -0.117  1.00  0.00     0.168 HD
ENDROOT
BRANCH   1   3
HETATM    3  C12 UNK     1       0.037   0.006  -1.923  1.00  0.00     0.176 C 
HETATM    4  S1  UNK     1      -0.919  -0.999  -2.879  1.00  0.00    -0.041 SA
BRANCH   3   5
HETATM    5  N2  UNK     1       1.032   0.721  -2.573  1.00  0.00    -0.333 N 
HETATM    6  H9  UNK     1       1.135   0.481  -3.556  1.00  0.00     0.168 HD
BRANCH   5   7
HETATM    7  C11 UNK     1       2.058   1.561  -2.072  1.00  0.00     0.035 A 
HETATM    8  C13 UNK     1       3.233   1.694  -2.792  1.00  0.00     0.047 A 
HETATM    9  C14 UNK     1       4.244   2.519  -2.298  1.00  0.00     0.039 A 
HETATM   10  C16 UNK     1       4.064   3.198  -1.093  1.00  0.00     0.018 A 
HETATM   11  C17 UNK     1       2.873   3.052  -0.382  1.00  0.00     0.003 A 
HETATM   12  C15 UNK     1       1.862   2.227  -0.875  1.00  0.00     0.029 A 
BRANCH   9  13
HETATM   13  C18 UNK     1       5.485   2.672  -3.040  1.00  0.00     0.176 C 
HETATM   14  O4  UNK     1       5.751   2.121  -4.113  1.00  0.00    -0.646 OA
BRANCH  13  15
HETATM   15  O3  UNK     1       6.361   3.511  -2.421  1.00  0.00    -0.773 OA
HETATM   16  H14 UNK     1       7.194   3.608  -2.930  1.00  0.00     0.167 HD
ENDBRANCH  13  15
ENDBRANCH   9  13
ENDBRANCH   5   7
ENDBRANCH   3   5
ENDBRANCH   1   3
BRANCH   1  17
HETATM   17  C4  UNK     1      -0.853  -0.482   0.415  1.00  0.00     0.036 A 
HETATM   18  C5  UNK     1      -2.206  -0.638   0.134  1.00  0.00     0.067 A 
HETATM   19  C2  UNK     1      -3.038  -1.219   1.092  1.00  0.00     0.092 A 
HETATM   20  C1  UNK     1      -2.561  -1.653   2.330  1.00  0.00     0.004 A 
HETATM   21  O1  UNK     1      -4.399  -1.351   0.750  1.00  0.00    -0.275 OA
HETATM   22  C3  UNK     1      -3.509  -2.254   3.278  1.00  0.00    -0.043 A 
HETATM   23  C6  UNK     1      -1.195  -1.487   2.594  1.00  0.00     0.017 A 
HETATM   24  C8  UNK     1      -4.797  -2.366   2.926  1.00  0.00     0.090 A 
HETATM   25  C9  UNK     1      -3.027  -2.730   4.618  1.00  0.00     0.049 C 
HETATM   26  C10 UNK     1      -5.316  -1.913   1.624  1.00  0.00     0.288 A 
HETATM   27  O2  UNK     1      -6.501  -2.033   1.336  1.00  0.00    -0.260 OA
HETATM   28  C7  UNK     1      -0.348  -0.906   1.644  1.00  0.00     0.030 A 
ENDBRANCH   1  17
TORSDOF 6
