REMARK  4 active torsions:
REMARK  status: ('A' for Active; 'I' for Inactive)
REMARK    1  A    between atoms: C12_16  and  O2_2 
REMARK    2  A    between atoms: C20_24  and  O2_2 
REMARK    3  A    between atoms: C1_5  and  C2_6 
REMARK    4  A    between atoms: C11_15  and  C8_12 
ROOT
HETATM    1  N1  UNK     1      -0.611   1.377   4.287  1.00  0.00    -0.195 NA
HETATM    2  C20 UNK     1       0.954   1.612   2.194  1.00  0.00     0.299 C 
HETATM    3  C21 UNK     1       0.081   1.481   3.361  1.00  0.00     0.085 C 
ENDROOT
BRANCH   2   4
HETATM    4  O2  UNK     1       0.258   2.218   1.121  1.00  0.00    -0.331 OA
BRANCH   4   5
HETATM    5  C12 UNK     1       0.729   1.759  -0.090  1.00  0.00     0.155 A 
HETATM    6  C11 UNK     1       0.224   0.682  -0.718  1.00  0.00     0.123 A 
HETATM    7  O1  UNK     1       0.685   0.177  -1.922  1.00  0.00    -0.306 OA
HETATM    8  C14 UNK     1       1.726   0.821  -2.541  1.00  0.00     0.090 A 
HETATM    9  C13 UNK     1       2.340   1.952  -2.006  1.00  0.00     0.051 A 
HETATM   10  C17 UNK     1       2.166   0.296  -3.756  1.00  0.00     0.038 A 
HETATM   11  C15 UNK     1       1.858   2.485  -0.722  1.00  0.00     0.221 A 
HETATM   12  C16 UNK     1       3.397   2.566  -2.681  1.00  0.00     0.018 A 
HETATM   13  O3  UNK     1       2.359   3.473  -0.203  1.00  0.00    -0.284 OA
HETATM   14  C18 UNK     1       3.836   2.040  -3.897  1.00  0.00     0.001 A 
HETATM   15  C19 UNK     1       3.222   0.907  -4.434  1.00  0.00     0.003 A 
BRANCH   6  16
HETATM   16  C8  UNK     1      -0.861  -0.068  -0.167  1.00  0.00     0.001 A 
HETATM   17  C10 UNK     1      -0.606  -1.142   0.685  1.00  0.00     0.015 A 
HETATM   18  C7  UNK     1      -1.665  -1.874   1.223  1.00  0.00     0.009 A 
HETATM   19  C2  UNK     1      -2.980  -1.532   0.907  1.00  0.00    -0.051 A 
HETATM   20  C6  UNK     1      -3.235  -0.457   0.055  1.00  0.00     0.009 A 
HETATM   21  C9  UNK     1      -2.176   0.274  -0.482  1.00  0.00     0.015 A 
BRANCH  19  22
HETATM   22  C1  UNK     1      -4.112  -2.314   1.481  1.00  0.00    -0.024 C 
HETATM   23  C3  UNK     1      -4.979  -2.962   0.356  1.00  0.00     0.019 C 
HETATM   24  C4  UNK     1      -5.052  -1.407   2.335  1.00  0.00     0.019 C 
HETATM   25  C5  UNK     1      -3.704  -3.494   2.424  1.00  0.00     0.019 C 
ENDBRANCH  19  22
ENDBRANCH   6  16
ENDBRANCH   4   5
ENDBRANCH   2   4
TORSDOF 4
