REMARK  6 active torsions:
REMARK  status: ('A' for Active; 'I' for Inactive)
REMARK    1  A    between atoms: C11_17  and  O2_2 
REMARK       I    between atoms: C13_19  and  N1_6 
REMARK    2  A    between atoms: C15_21  and  N1_6 
REMARK    3  A    between atoms: C1_7  and  C4_10 
REMARK    4  A    between atoms: C4_10  and  C6_12 
REMARK    5  A    between atoms: C13_19  and  C6_12 
REMARK    6  A    between atoms: C15_21  and  C16_22 
ROOT
HETATM    1  O1  UNK     1       1.816  -0.287   1.335  1.00  0.00    -0.274 OA
HETATM    2  O3  UNK     1       1.097  -1.457   3.142  1.00  0.00    -0.259 OA
HETATM    3  C1  UNK     1      -0.483   0.023   2.148  1.00  0.00     0.025 A 
HETATM    4  C2  UNK     1      -0.726   0.951   1.198  1.00  0.00    -0.037 A 
HETATM    5  C3  UNK     1       0.329   1.283   0.219  1.00  0.00     0.005 A 
HETATM    6  C5  UNK     1       1.565   0.652   0.322  1.00  0.00     0.099 A 
HETATM    7  C7  UNK     1       2.616   0.906  -0.563  1.00  0.00     0.006 A 
HETATM    8  C8  UNK     1       0.850  -0.638   2.263  1.00  0.00     0.295 A 
HETATM    9  C9  UNK     1       0.164   2.198  -0.832  1.00  0.00     0.017 A 
HETATM   10  C10 UNK     1      -2.029   1.702   1.078  1.00  0.00     0.050 C 
HETATM   11  C11 UNK     1       2.432   1.821  -1.593  1.00  0.00     0.076 A 
HETATM   12  C12 UNK     1       1.206   2.466  -1.728  1.00  0.00     0.038 A 
HETATM   13  C14 UNK     1       3.927   0.204  -0.410  1.00  0.00     0.054 C 
ENDROOT
BRANCH   3  14
HETATM   14  C4  UNK     1      -1.487  -0.453   3.166  1.00  0.00     0.055 C 
BRANCH  14  15
HETATM   15  C6  UNK     1      -2.290  -1.649   2.674  1.00  0.00     0.107 C 
BRANCH  15  16
HETATM   16  C13 UNK     1      -3.106  -1.370   1.421  1.00  0.00     0.218 C 
HETATM   17  O4  UNK     1      -4.265  -0.965   1.446  1.00  0.00    -0.274 OA
HETATM   18  N1  UNK     1      -2.382  -1.645   0.269  1.00  0.00    -0.355 N 
HETATM   19  H13 UNK     1      -1.450  -2.042   0.354  1.00  0.00     0.162 HD
BRANCH  18  20
HETATM   20  C15 UNK     1      -2.932  -1.478  -1.056  1.00  0.00     0.187 C 
BRANCH  20  21
HETATM   21  C16 UNK     1      -1.869  -1.177  -2.072  1.00  0.00     0.070 A 
HETATM   22  O5  UNK     1      -2.015  -0.008  -2.720  1.00  0.00    -0.325 OA
HETATM   23  C20 UNK     1      -0.963   0.063  -3.578  1.00  0.00     0.142 A 
HETATM   24  C19 UNK     1      -0.170  -1.054  -3.462  1.00  0.00     0.027 A 
HETATM   25  C18 UNK     1      -0.772  -1.863  -2.470  1.00  0.00     0.036 A 
ENDBRANCH  20  21
ENDBRANCH  18  20
ENDBRANCH  15  16
ENDBRANCH  14  15
ENDBRANCH   3  14
BRANCH  11  26
HETATM   26  O2  UNK     1       3.432   2.095  -2.475  1.00  0.00    -0.355 OA
HETATM   27  C17 UNK     1       4.320   3.160  -2.139  1.00  0.00     0.210 C 
ENDBRANCH  11  26
TORSDOF 6
