REMARK  7 active torsions:
REMARK  status: ('A' for Active; 'I' for Inactive)
REMARK    1  A    between atoms: C17_23  and  O2_2 
REMARK    2  A    between atoms: C21_27  and  O2_2 
REMARK    3  A    between atoms: C2_8  and  N1_5 
REMARK    4  A    between atoms: N1_5  and  N2_6 
REMARK    5  A    between atoms: C10_16  and  C12_18 
REMARK    6  A    between atoms: C10_16  and  C14_20 
REMARK    7  A    between atoms: C12_18  and  C17_23 
ROOT
HETATM    1  N1  UNK     1      -0.622   0.963  -0.693  1.00  0.00    -0.277 N 
HETATM    2  H7  UNK     1      -0.734   1.323  -1.630  1.00  0.00     0.189 HD
ENDROOT
BRANCH   1   3
HETATM    3  C2  UNK     1      -1.626   0.103  -0.192  1.00  0.00     0.057 A 
HETATM    4  C4  UNK     1      -2.730  -0.230  -0.975  1.00  0.00    -0.031 A 
HETATM    5  C7  UNK     1      -3.707  -1.079  -0.466  1.00  0.00     0.047 A 
HETATM    6  C8  UNK     1      -2.889   0.310  -2.359  1.00  0.00     0.050 C 
HETATM    7  C3  UNK     1      -3.563  -1.585   0.827  1.00  0.00     0.090 A 
HETATM    8  C1  UNK     1      -2.469  -1.269   1.634  1.00  0.00     0.006 A 
HETATM    9  O1  UNK     1      -4.584  -2.441   1.287  1.00  0.00    -0.275 OA
HETATM   10  C5  UNK     1      -1.495  -0.412   1.102  1.00  0.00     0.046 A 
HETATM   11  C6  UNK     1      -2.398  -1.848   2.983  1.00  0.00    -0.043 A 
HETATM   12  C11 UNK     1      -1.236  -1.526   3.876  1.00  0.00     0.049 C 
HETATM   13  C9  UNK     1      -3.383  -2.659   3.393  1.00  0.00     0.090 A 
HETATM   14  C13 UNK     1      -4.544  -3.002   2.554  1.00  0.00     0.288 A 
HETATM   15  O3  UNK     1      -5.427  -3.748   2.964  1.00  0.00    -0.260 OA
ENDBRANCH   1   3
BRANCH   1  16
HETATM   16  N2  UNK     1       0.424   1.297   0.073  1.00  0.00    -0.172 NA
HETATM   17  C12 UNK     1       1.306   2.089  -0.449  1.00  0.00     0.133 C 
BRANCH  17  18
HETATM   18  C10 UNK     1       1.342   2.680  -1.839  1.00  0.00     0.106 C 
BRANCH  18  19
HETATM   19  C14 UNK     1       2.136   1.835  -2.803  1.00  0.00    -0.052 A 
HETATM   20  C15 UNK     1       3.496   2.066  -2.951  1.00  0.00     0.007 A 
HETATM   21  C18 UNK     1       4.231   1.284  -3.842  1.00  0.00     0.001 A 
HETATM   22  C20 UNK     1       3.598   0.279  -4.574  1.00  0.00     0.000 A 
HETATM   23  C19 UNK     1       2.230   0.057  -4.416  1.00  0.00     0.001 A 
HETATM   24  C16 UNK     1       1.495   0.839  -3.525  1.00  0.00     0.007 A 
ENDBRANCH  18  19
ENDBRANCH  17  18
BRANCH  17  25
HETATM   25  C17 UNK     1       2.457   2.435   0.453  1.00  0.00     0.309 C 
HETATM   26  O4  UNK     1       2.429   3.413   1.174  1.00  0.00    -0.258 OA
BRANCH  25  27
HETATM   27  O2  UNK     1       3.429   1.524   0.263  1.00  0.00    -0.317 OA
BRANCH  27  28
HETATM   28  C21 UNK     1       4.617   1.736   1.031  1.00  0.00     0.175 C 
HETATM   29  C22 UNK     1       5.612   0.640   0.714  1.00  0.00     0.034 C 
ENDBRANCH  27  28
ENDBRANCH  25  27
ENDBRANCH  17  25
ENDBRANCH   1  16
TORSDOF 7
