REMARK  7 active torsions:
REMARK  status: ('A' for Active; 'I' for Inactive)
REMARK    1  A    between atoms: C12_20  and  O3_4 
REMARK    2  A    between atoms: C19_27  and  O3_4 
REMARK    3  A    between atoms: C22_30  and  O6_7 
REMARK    4  A    between atoms: C23_31  and  O6_7 
REMARK    5  A    between atoms: C1_9  and  C10_18 
REMARK    6  A    between atoms: C12_20  and  C6_14 
REMARK    7  A    between atoms: C19_27  and  C22_30 
ROOT
HETATM    1  O1  UNK     1       1.764  -0.565  -3.668  1.00  0.00    -0.293 OA
HETATM    2  N1  UNK     1       3.667   2.899  -1.055  1.00  0.00    -0.362 N 
HETATM    3  C1  UNK     1       2.089   0.540  -1.023  1.00  0.00     0.104 C 
HETATM    4  C2  UNK     1       2.610   1.184  -2.304  1.00  0.00     0.024 C 
HETATM    5  C3  UNK     1       3.338   2.321  -2.266  1.00  0.00     0.020 C 
HETATM    6  C4  UNK     1       3.834   3.026  -3.501  1.00  0.00     0.058 C 
HETATM    7  C5  UNK     1       3.041   2.639  -4.743  1.00  0.00     0.014 C 
HETATM    8  C6  UNK     1       2.649   1.198   0.239  1.00  0.00     0.052 C 
HETATM    9  C7  UNK     1       2.939   1.130  -4.870  1.00  0.00     0.084 C 
HETATM   10  C8  UNK     1       2.364   0.509  -3.616  1.00  0.00     0.158 C 
HETATM   11  C9  UNK     1       3.376   2.338   0.179  1.00  0.00     0.018 C 
HETATM   12  C13 UNK     1       3.927   3.088   1.361  1.00  0.00     0.069 C 
HETATM   13  H8  UNK     1       4.216   3.750  -1.070  1.00  0.00     0.165 HD
ENDROOT
BRANCH   3  14
HETATM   14  C10 UNK     1       0.585   0.569  -1.001  1.00  0.00     0.029 A 
HETATM   15  C11 UNK     1      -0.149  -0.722  -0.981  1.00  0.00     0.194 A 
HETATM   16  C15 UNK     1      -1.621  -0.636  -0.961  1.00  0.00     0.050 A 
HETATM   17  O4  UNK     1       0.430  -1.800  -0.981  1.00  0.00    -0.287 OA
HETATM   18  C16 UNK     1      -2.228   0.620  -0.962  1.00  0.00     0.089 A 
HETATM   19  C17 UNK     1      -2.402  -1.795  -0.942  1.00  0.00     0.042 A 
HETATM   20  O2  UNK     1      -1.510   1.790  -0.980  1.00  0.00    -0.321 OA
HETATM   21  C18 UNK     1      -3.619   0.725  -0.944  1.00  0.00     0.040 A 
HETATM   22  C14 UNK     1      -0.141   1.695  -0.999  1.00  0.00     0.154 A 
HETATM   23  C21 UNK     1      -4.401  -0.431  -0.924  1.00  0.00     0.026 A 
HETATM   24  C20 UNK     1      -3.793  -1.687  -0.923  1.00  0.00     0.035 A 
HETATM   25 Cl1  UNK     1      -4.764  -3.109  -0.900  1.00  0.00    -0.084 Cl
ENDBRANCH   3  14
BRANCH   8  26
HETATM   26  C12 UNK     1       2.398   0.499   1.510  1.00  0.00     0.292 C 
HETATM   27  O5  UNK     1       3.131  -0.366   1.954  1.00  0.00    -0.259 OA
BRANCH  26  28
HETATM   28  O3  UNK     1       1.255   0.988   2.048  1.00  0.00    -0.316 OA
BRANCH  28  29
HETATM   29  C19 UNK     1       0.874   0.403   3.298  1.00  0.00     0.205 C 
BRANCH  29  30
HETATM   30  C22 UNK     1      -0.013  -0.798   3.032  1.00  0.00     0.202 C 
BRANCH  30  31
HETATM   31  O6  UNK     1      -1.181  -0.368   2.342  1.00  0.00    -0.349 OA
BRANCH  31  32
HETATM   32  C23 UNK     1      -2.321  -1.101   2.542  1.00  0.00     0.068 A 
HETATM   33  C24 UNK     1      -2.225  -2.460   2.822  1.00  0.00     0.037 A 
HETATM   34  C26 UNK     1      -3.386  -3.207   3.025  1.00  0.00     0.003 A 
HETATM   35  C28 UNK     1      -4.635  -2.590   2.948  1.00  0.00     0.000 A 
HETATM   36  C27 UNK     1      -4.722  -1.226   2.667  1.00  0.00     0.003 A 
HETATM   37  C25 UNK     1      -3.562  -0.480   2.464  1.00  0.00     0.037 A 
ENDBRANCH  31  32
ENDBRANCH  30  31
ENDBRANCH  29  30
ENDBRANCH  28  29
ENDBRANCH  26  28
ENDBRANCH   8  26
TORSDOF 7
