REMARK  5 active torsions:
REMARK  status: ('A' for Active; 'I' for Inactive)
REMARK    1  A    between atoms: C5_11  and  O2_2 
REMARK    2  A    between atoms: C11_17  and  O3_3 
REMARK    3  A    between atoms: C12_18  and  O4_4 
REMARK    4  A    between atoms: C13_19  and  O5_5 
REMARK    5  A    between atoms: C1_7  and  C3_9 
ROOT
HETATM    1  O1  UNK     1      -0.054  -0.369   0.083  1.00  0.00    -0.306 OA
HETATM    2  O6  UNK     1       0.089   1.541   3.679  1.00  0.00    -0.284 OA
HETATM    3  C1  UNK     1       0.162  -1.064   1.262  1.00  0.00     0.123 A 
HETATM    4  C2  UNK     1      -0.200   1.699   1.344  1.00  0.00     0.053 A 
HETATM    5  C4  UNK     1      -0.235   0.988   0.147  1.00  0.00     0.090 A 
HETATM    6  C5  UNK     1       0.228  -0.497   2.481  1.00  0.00     0.152 A 
HETATM    7  C6  UNK     1       0.042   0.970   2.598  1.00  0.00     0.220 A 
HETATM    8  C7  UNK     1      -0.390   3.084   1.349  1.00  0.00     0.055 A 
HETATM    9  C9  UNK     1      -0.459   1.658  -1.056  1.00  0.00     0.041 A 
HETATM   10  C12 UNK     1      -0.614   3.751   0.144  1.00  0.00     0.069 A 
HETATM   11  C14 UNK     1      -0.649   3.040  -1.056  1.00  0.00     0.039 A 
ENDROOT
BRANCH   3  12
HETATM   12  C3  UNK     1       0.340  -2.512   1.052  1.00  0.00     0.004 A 
HETATM   13  C10 UNK     1      -0.763  -3.364   1.094  1.00  0.00     0.017 A 
HETATM   14  C15 UNK     1      -0.595  -4.734   0.894  1.00  0.00     0.040 A 
HETATM   15  C13 UNK     1       0.677  -5.253   0.651  1.00  0.00     0.101 A 
HETATM   16  C11 UNK     1       1.781  -4.401   0.608  1.00  0.00     0.102 A 
HETATM   17  C8  UNK     1       1.613  -3.031   0.809  1.00  0.00     0.054 A 
BRANCH  15  18
HETATM   18  O5  UNK     1       0.829  -6.593   0.459  1.00  0.00    -0.353 OA
HETATM   19  C18 UNK     1       0.729  -7.070  -0.882  1.00  0.00     0.210 C 
ENDBRANCH  15  18
BRANCH  16  20
HETATM   20  O3  UNK     1       3.028  -4.895   0.373  1.00  0.00    -0.353 OA
HETATM   21  C16 UNK     1       3.794  -5.291   1.509  1.00  0.00     0.210 C 
ENDBRANCH  16  20
ENDBRANCH   3  12
BRANCH   6  22
HETATM   22  O2  UNK     1       0.478  -1.213   3.631  1.00  0.00    -0.355 OA
HETATM   23  H7  UNK     1       0.583  -2.154   3.418  1.00  0.00     0.218 HD
ENDBRANCH   6  22
BRANCH  10  24
HETATM   24  O4  UNK     1      -0.798   5.100   0.138  1.00  0.00    -0.356 OA
HETATM   25  C17 UNK     1      -1.020   5.720  -1.128  1.00  0.00     0.210 C 
ENDBRANCH  10  24
TORSDOF 5
