REMARK  4 active torsions:
REMARK  status: ('A' for Active; 'I' for Inactive)
REMARK    1  A    between atoms: C10_17  and  O2_4 
REMARK    2  A    between atoms: C11_18  and  O2_4 
REMARK    3  A    between atoms: C13_20  and  O3_5 
REMARK    4  A    between atoms: C10_17  and  C4_11 
ROOT
HETATM    1 Br1  UNK     1       4.843   3.117   0.259  1.00  0.00    -0.048 Br
HETATM    2 Br2  UNK     1       4.369   2.057  -5.295  1.00  0.00    -0.051 Br
HETATM    3  O1  UNK     1       2.211   1.532   0.351  1.00  0.00    -0.273 OA
HETATM    4  O4  UNK     1       0.622   0.769   1.805  1.00  0.00    -0.259 OA
HETATM    5  C1  UNK     1       1.988   1.066  -2.024  1.00  0.00     0.002 A 
HETATM    6  C2  UNK     1       2.690   1.639  -0.969  1.00  0.00     0.107 A 
HETATM    7  C3  UNK     1       0.751   0.353  -1.742  1.00  0.00     0.038 A 
HETATM    8  C4  UNK     1       0.301   0.255  -0.486  1.00  0.00     0.116 A 
HETATM    9  C5  UNK     1       2.495   1.193  -3.320  1.00  0.00     0.033 A 
HETATM   10  C6  UNK     1       3.881   2.334  -1.172  1.00  0.00     0.047 A 
HETATM   11  C7  UNK     1       1.031   0.858   0.652  1.00  0.00     0.304 A 
HETATM   12  C8  UNK     1       3.688   1.887  -3.539  1.00  0.00     0.013 A 
HETATM   13  C9  UNK     1       4.379   2.456  -2.467  1.00  0.00     0.041 A 
ENDROOT
BRANCH   8  14
HETATM   14  C10 UNK     1      -0.955  -0.482  -0.303  1.00  0.00     0.304 C 
HETATM   15  O5  UNK     1      -1.310  -1.399  -1.026  1.00  0.00    -0.259 OA
BRANCH  14  16
HETATM   16  O2  UNK     1      -1.606   0.050   0.793  1.00  0.00    -0.275 OA
BRANCH  16  17
HETATM   17  C11 UNK     1      -2.821  -0.589   1.054  1.00  0.00     0.082 A 
HETATM   18  C12 UNK     1      -2.829  -1.677   1.898  1.00  0.00     0.074 A 
HETATM   19  C13 UNK     1      -4.043  -2.313   2.159  1.00  0.00     0.070 A 
HETATM   20  C15 UNK     1      -5.217  -1.844   1.570  1.00  0.00     0.037 A 
HETATM   21  C16 UNK     1      -5.177  -0.739   0.719  1.00  0.00     0.005 A 
HETATM   22  C14 UNK     1      -3.964  -0.103   0.457  1.00  0.00     0.037 A 
BRANCH  19  23
HETATM   23  O3  UNK     1      -4.083  -3.390   2.989  1.00  0.00    -0.356 OA
HETATM   24  C17 UNK     1      -2.846  -3.817   3.558  1.00  0.00     0.210 C 
ENDBRANCH  19  23
ENDBRANCH  16  17
ENDBRANCH  14  16
ENDBRANCH   8  14
TORSDOF 4
