REMARK  4 active torsions:
REMARK  status: ('A' for Active; 'I' for Inactive)
REMARK    1  A    between atoms: C1_9  and  S1_1 
REMARK    2  A    between atoms: N2_8  and  S1_1 
REMARK       I    between atoms: C11_19  and  N1_7 
REMARK    3  A    between atoms: C2_10  and  N1_7 
REMARK    4  A    between atoms: C11_19  and  C4_12 
ROOT
HETATM    1  O4  UNK     1       0.534   1.531   1.071  1.00  0.00    -0.267 OA
HETATM    2  N1  UNK     1      -0.379   0.020  -0.488  1.00  0.00    -0.323 N 
HETATM    3  C11 UNK     1       0.515   0.976  -0.026  1.00  0.00     0.262 C 
HETATM    4  H6  UNK     1      -0.243  -0.359  -1.422  1.00  0.00     0.169 HD
ENDROOT
BRANCH   2   5
HETATM    5  C2  UNK     1      -1.482  -0.537   0.205  1.00  0.00     0.035 A 
HETATM    6  C7  UNK     1      -1.749  -0.120   1.498  1.00  0.00     0.031 A 
HETATM    7  C5  UNK     1      -2.834  -0.669   2.180  1.00  0.00     0.027 A 
HETATM    8  C1  UNK     1      -3.635  -1.628   1.561  1.00  0.00     0.079 A 
HETATM    9  C6  UNK     1      -3.351  -2.037   0.258  1.00  0.00     0.027 A 
HETATM   10  C8  UNK     1      -2.266  -1.488  -0.425  1.00  0.00     0.031 A 
BRANCH   8  11
HETATM   11  S1  UNK     1      -4.993  -2.316   2.415  1.00  0.00     0.258 S 
HETATM   12  O2  UNK     1      -5.433  -1.372   3.435  1.00  0.00    -0.201 OA
HETATM   13  O3  UNK     1      -5.949  -2.791   1.423  1.00  0.00    -0.201 OA
BRANCH  11  14
HETATM   14  N2  UNK     1      -4.294  -3.670   3.190  1.00  0.00    -0.320 N 
HETATM   15  C17 UNK     1      -3.193  -3.478   4.145  1.00  0.00     0.159 C 
HETATM   16  H8  UNK     1      -4.314  -4.575   2.705  1.00  0.00     0.171 HD
ENDBRANCH  11  14
ENDBRANCH   8  11
ENDBRANCH   2   5
BRANCH   3  17
HETATM   17  C4  UNK     1       1.534   1.310  -1.029  1.00  0.00     0.108 A 
HETATM   18  C10 UNK     1       2.728   1.687  -0.556  1.00  0.00     0.037 A 
HETATM   19  C3  UNK     1       3.801   2.039  -1.472  1.00  0.00    -0.001 A 
HETATM   20  C12 UNK     1       5.063   2.437  -1.023  1.00  0.00     0.014 A 
HETATM   21  C9  UNK     1       3.565   1.977  -2.842  1.00  0.00     0.089 A 
HETATM   22  C15 UNK     1       6.062   2.766  -1.944  1.00  0.00     0.001 A 
HETATM   23  C16 UNK     1       5.806   2.698  -3.316  1.00  0.00     0.003 A 
HETATM   24  C14 UNK     1       4.550   2.302  -3.772  1.00  0.00     0.038 A 
HETATM   25  O1  UNK     1       2.306   1.580  -3.333  1.00  0.00    -0.274 OA
HETATM   26  C13 UNK     1       1.260   1.237  -2.482  1.00  0.00     0.304 A 
HETATM   27  O5  UNK     1       0.167   0.894  -2.919  1.00  0.00    -0.259 OA
ENDBRANCH   3  17
TORSDOF 4
