REMARK  7 active torsions:
REMARK  status: ('A' for Active; 'I' for Inactive)
REMARK    1  A    between atoms: C24_32  and  O4_5 
REMARK    2  A    between atoms: C5_13  and  N1_6 
REMARK    3  A    between atoms: C6_14  and  N2_7 
REMARK    4  A    between atoms: C18_26  and  N3_8 
REMARK       I    between atoms: C9_17  and  N3_8 
REMARK    5  A    between atoms: C5_13  and  C7_15 
REMARK    6  A    between atoms: C6_14  and  C9_17 
REMARK    7  A    between atoms: C13_21  and  C17_25 
ROOT
HETATM    1  N1  UNK     1       1.494  -0.071  -1.953  1.00  0.00     0.096 N 
HETATM    2  N2  UNK     1      -1.215  -1.054  -1.719  1.00  0.00     0.100 N 
HETATM    3  C1  UNK     1       0.983  -0.604  -0.684  1.00  0.00     0.303 C 
HETATM    4  C2  UNK     1       0.814  -0.707  -3.088  1.00  0.00     0.303 C 
HETATM    5  C3  UNK     1      -0.535  -0.416  -0.585  1.00  0.00     0.303 C 
HETATM    6  C4  UNK     1      -0.704  -0.520  -2.988  1.00  0.00     0.303 C 
ENDROOT
BRANCH   1   7
HETATM    7  C5  UNK     1       2.941  -0.253  -2.047  1.00  0.00     0.312 C 
BRANCH   7   8
HETATM    8  C7  UNK     1       3.688   0.740  -1.226  1.00  0.00    -0.011 A 
HETATM    9  C10 UNK     1       4.003   0.484   0.052  1.00  0.00     0.092 A 
HETATM   10  C14 UNK     1       4.739   1.434   0.903  1.00  0.00     0.288 A 
HETATM   11  O1  UNK     1       5.107   2.637   0.321  1.00  0.00    -0.275 OA
HETATM   12  O3  UNK     1       5.011   1.165   2.068  1.00  0.00    -0.260 OA
HETATM   13  C11 UNK     1       4.789   2.934  -1.020  1.00  0.00     0.090 A 
HETATM   14  C8  UNK     1       4.091   2.024  -1.815  1.00  0.00     0.007 A 
HETATM   15  C15 UNK     1       5.209   4.175  -1.501  1.00  0.00     0.039 A 
HETATM   16  C12 UNK     1       3.814   2.395  -3.137  1.00  0.00     0.022 A 
HETATM   17  C13 UNK     1       4.228   3.636  -3.634  1.00  0.00    -0.058 A 
HETATM   18  C16 UNK     1       4.925   4.525  -2.817  1.00  0.00     0.010 A 
BRANCH  17  19
HETATM   19  C17 UNK     1       3.922   4.010  -5.046  1.00  0.00     0.034 C 
HETATM   20  C19 UNK     1       2.582   4.729  -5.178  1.00  0.00     0.010 C 
ENDBRANCH  17  19
ENDBRANCH   7   8
ENDBRANCH   1   7
BRANCH   2  21
HETATM   21  C6  UNK     1      -2.662  -0.874  -1.625  1.00  0.00     0.375 C 
BRANCH  21  22
HETATM   22  C9  UNK     1      -3.225  -1.835  -0.592  1.00  0.00     0.250 C 
HETATM   23  O2  UNK     1      -3.108  -3.052  -0.689  1.00  0.00    -0.271 OA
HETATM   24  N3  UNK     1      -3.855  -1.128   0.430  1.00  0.00    -0.326 N 
HETATM   25  H15 UNK     1      -3.863  -0.112   0.373  1.00  0.00     0.169 HD
BRANCH  24  26
HETATM   26  C18 UNK     1      -4.501  -1.655   1.574  1.00  0.00     0.036 A 
HETATM   27  C20 UNK     1      -5.084  -0.796   2.505  1.00  0.00     0.056 A 
HETATM   28  C22 UNK     1      -5.721  -1.316   3.631  1.00  0.00     0.069 A 
HETATM   29 Cl1  UNK     1      -6.434  -0.230   4.767  1.00  0.00    -0.081 Cl
HETATM   30  C24 UNK     1      -5.775  -2.696   3.827  1.00  0.00     0.090 A 
HETATM   31  C23 UNK     1      -5.191  -3.556   2.896  1.00  0.00     0.041 A 
HETATM   32  C21 UNK     1      -4.555  -3.035   1.769  1.00  0.00     0.032 A 
BRANCH  30  33
HETATM   33  O4  UNK     1      -6.391  -3.232   4.918  1.00  0.00    -0.354 OA
HETATM   34  C25 UNK     1      -5.588  -3.439   6.079  1.00  0.00     0.210 C 
ENDBRANCH  30  33
ENDBRANCH  24  26
ENDBRANCH  21  22
ENDBRANCH   2  21
TORSDOF 7
