REMARK  7 active torsions:
REMARK  status: ('A' for Active; 'I' for Inactive)
REMARK    1  A    between atoms: C10_18  and  O1_2 
REMARK    2  A    between atoms: C8_16  and  O1_2 
REMARK       I    between atoms: C12_20  and  N1_6 
REMARK    3  A    between atoms: N1_6  and  N3_8 
REMARK    4  A    between atoms: C16_24  and  N2_7 
REMARK    5  A    between atoms: C23_31  and  N2_7 
REMARK    6  A    between atoms: C23_31  and  N3_8 
REMARK    7  A    between atoms: C10_18  and  C12_20 
ROOT
HETATM    1  N3  UNK     1      -0.037   0.639  -4.091  1.00  0.00    -0.273 N 
HETATM    2  H23 UNK     1       0.027   0.825  -5.087  1.00  0.00     0.189 HD
ENDROOT
BRANCH   1   3
HETATM    3  C23 UNK     1      -0.938  -0.291  -3.581  1.00  0.00     0.191 C 
HETATM    4  S1  UNK     1      -1.892  -1.108  -4.690  1.00  0.00    -0.039 SA
BRANCH   3   5
HETATM    5  N2  UNK     1      -0.905  -0.416  -2.180  1.00  0.00    -0.332 N 
HETATM    6  H22 UNK     1      -0.014  -0.130  -1.780  1.00  0.00     0.168 HD
BRANCH   5   7
HETATM    7  C16 UNK     1      -1.844  -0.760  -1.208  1.00  0.00     0.037 A 
HETATM    8  C17 UNK     1      -1.476  -0.811   0.132  1.00  0.00     0.067 A 
HETATM    9  C14 UNK     1      -2.433  -1.157   1.089  1.00  0.00     0.092 A 
HETATM   10  C13 UNK     1      -3.753  -1.455   0.749  1.00  0.00     0.004 A 
HETATM   11  O2  UNK     1      -2.000  -1.191   2.430  1.00  0.00    -0.275 OA
HETATM   12  C15 UNK     1      -4.693  -1.809   1.821  1.00  0.00    -0.043 A 
HETATM   13  C18 UNK     1      -4.104  -1.398  -0.607  1.00  0.00     0.017 A 
HETATM   14  C20 UNK     1      -4.253  -1.834   3.087  1.00  0.00     0.090 A 
HETATM   15  C21 UNK     1      -6.120  -2.135   1.488  1.00  0.00     0.049 C 
HETATM   16  C22 UNK     1      -2.864  -1.521   3.462  1.00  0.00     0.288 A 
HETATM   17  O4  UNK     1      -2.498  -1.554   4.632  1.00  0.00    -0.260 OA
HETATM   18  C19 UNK     1      -3.156  -1.053  -1.577  1.00  0.00     0.030 A 
ENDBRANCH   5   7
ENDBRANCH   3   5
ENDBRANCH   1   3
BRANCH   1  19
HETATM   19  N1  UNK     1       0.811   1.350  -3.275  1.00  0.00    -0.266 N 
HETATM   20  C12 UNK     1       2.045   1.739  -3.763  1.00  0.00     0.265 C 
HETATM   21  O3  UNK     1       2.467   1.502  -4.893  1.00  0.00    -0.269 OA
HETATM   22  H17 UNK     1       0.453   1.643  -2.372  1.00  0.00     0.190 HD
BRANCH  20  23
HETATM   23  C10 UNK     1       2.859   2.503  -2.729  1.00  0.00     0.218 C 
HETATM   24  C11 UNK     1       3.828   3.464  -3.398  1.00  0.00     0.050 C 
BRANCH  23  25
HETATM   25  O1  UNK     1       3.608   1.583  -1.953  1.00  0.00    -0.337 OA
BRANCH  25  26
HETATM   26  C8  UNK     1       3.360   1.559  -0.610  1.00  0.00     0.070 A 
HETATM   27  C6  UNK     1       2.918   0.379  -0.008  1.00  0.00     0.044 A 
HETATM   28  C4  UNK     1       2.671   0.390   1.354  1.00  0.00    -0.049 A 
HETATM   29  C2  UNK     1       2.232  -0.747   2.221  1.00  0.00     0.039 C 
HETATM   30  C5  UNK     1       2.871   1.548   2.115  1.00  0.00    -0.052 A 
HETATM   31  C1  UNK     1       1.757   0.001   3.475  1.00  0.00     0.009 C 
HETATM   32  C3  UNK     1       2.584   1.292   3.560  1.00  0.00     0.039 C 
HETATM   33  C7  UNK     1       3.322   2.719   1.529  1.00  0.00     0.010 A 
HETATM   34  C9  UNK     1       3.561   2.721   0.153  1.00  0.00     0.037 A 
ENDBRANCH  25  26
ENDBRANCH  23  25
ENDBRANCH  20  23
ENDBRANCH   1  19
TORSDOF 7
