REMARK  3 active torsions:
REMARK  status: ('A' for Active; 'I' for Inactive)
REMARK    1  A    between atoms: C7_11  and  O3_3 
REMARK    2  A    between atoms: C11_15  and  O4_4 
REMARK    3  A    between atoms: C1_5  and  C3_7 
ROOT
HETATM    1  O1  UNK     1      -0.460  -0.105  -0.911  1.00  0.00    -0.340 OA
HETATM    2  O2  UNK     1       1.125   3.141   1.038  1.00  0.00    -0.292 OA
HETATM    3  C1  UNK     1      -0.604   0.044   0.510  1.00  0.00     0.172 C 
HETATM    4  C2  UNK     1      -0.636   1.516   0.912  1.00  0.00     0.121 C 
HETATM    5  C4  UNK     1       0.641   2.176   0.459  1.00  0.00     0.165 C 
HETATM    6  C5  UNK     1       1.244   1.635  -0.776  1.00  0.00     0.046 A 
HETATM    7  C6  UNK     1       0.646   0.538  -1.404  1.00  0.00     0.083 A 
HETATM    8  C9  UNK     1       2.374   2.238  -1.335  1.00  0.00     0.054 A 
HETATM    9  C10 UNK     1       1.160   0.065  -2.612  1.00  0.00     0.040 A 
HETATM   10  C11 UNK     1       2.895   1.748  -2.533  1.00  0.00     0.066 A 
HETATM   11  C12 UNK     1       2.286   0.667  -3.173  1.00  0.00     0.039 A 
ENDROOT
BRANCH   3  12
HETATM   12  C3  UNK     1      -1.881  -0.670   0.901  1.00  0.00     0.005 A 
HETATM   13  C7  UNK     1      -1.988  -1.316   2.133  1.00  0.00     0.074 A 
HETATM   14  C13 UNK     1      -3.172  -1.969   2.478  1.00  0.00     0.037 A 
HETATM   15  C15 UNK     1      -4.249  -1.975   1.591  1.00  0.00     0.003 A 
HETATM   16  C14 UNK     1      -4.142  -1.329   0.360  1.00  0.00     0.001 A 
HETATM   17  C8  UNK     1      -2.958  -0.676   0.015  1.00  0.00     0.012 A 
BRANCH  13  18
HETATM   18  O3  UNK     1      -0.946  -1.320   3.010  1.00  0.00    -0.360 OA
HETATM   19  H11 UNK     1      -1.204  -1.814   3.807  1.00  0.00     0.217 HD
ENDBRANCH  13  18
ENDBRANCH   3  12
BRANCH  10  20
HETATM   20  O4  UNK     1       3.995   2.331  -3.085  1.00  0.00    -0.361 OA
HETATM   21  H12 UNK     1       4.216   1.867  -3.911  1.00  0.00     0.217 HD
ENDBRANCH  10  20
TORSDOF 3
