REMARK  7 active torsions:
REMARK  status: ('A' for Active; 'I' for Inactive)
REMARK    1  A    between atoms: C22_29  and  O3_3 
REMARK    2  A    between atoms: C24_31  and  O3_3 
REMARK    3  A    between atoms: C1_8  and  N1_5 
REMARK       I    between atoms: C12_19  and  N1_5 
REMARK    4  A    between atoms: C9_16  and  N2_6 
REMARK    5  A    between atoms: C14_21  and  N3_7 
REMARK    6  A    between atoms: C12_19  and  C9_16 
REMARK    7  A    between atoms: C14_21  and  C15_22 
ROOT
HETATM    1  N2  UNK     1      -0.836  -0.930   1.360  1.00  0.00     0.100 N 
HETATM    2  N3  UNK     1       1.151  -0.227  -0.619  1.00  0.00     0.096 N 
HETATM    3  C7  UNK     1      -1.203  -0.209   0.135  1.00  0.00     0.303 C 
HETATM    4  C8  UNK     1       0.545  -0.616   1.745  1.00  0.00     0.303 C 
HETATM    5  C10 UNK     1      -0.231  -0.539  -1.004  1.00  0.00     0.303 C 
HETATM    6  C11 UNK     1       1.517  -0.947   0.607  1.00  0.00     0.303 C 
ENDROOT
BRANCH   2   7
HETATM    7  C14 UNK     1       2.076  -0.545  -1.705  1.00  0.00     0.312 C 
BRANCH   7   8
HETATM    8  C15 UNK     1       2.102   0.515  -2.750  1.00  0.00    -0.011 A 
HETATM    9  C16 UNK     1       3.052   1.630  -2.640  1.00  0.00     0.009 A 
HETATM   10  C18 UNK     1       3.053   2.609  -3.636  1.00  0.00     0.090 A 
HETATM   11  C19 UNK     1       3.966   1.774  -1.588  1.00  0.00     0.051 A 
HETATM   12  C21 UNK     1       3.922   3.701  -3.607  1.00  0.00     0.041 A 
HETATM   13  O2  UNK     1       2.166   2.537  -4.728  1.00  0.00    -0.275 OA
HETATM   14  C23 UNK     1       4.822   3.825  -2.554  1.00  0.00     0.039 A 
HETATM   15  C22 UNK     1       4.844   2.863  -1.546  1.00  0.00     0.069 A 
HETATM   16  C20 UNK     1       1.260   1.496  -4.859  1.00  0.00     0.288 A 
HETATM   17  C17 UNK     1       1.271   0.472  -3.801  1.00  0.00     0.092 A 
HETATM   18  O4  UNK     1       0.484   1.424  -5.806  1.00  0.00    -0.260 OA
BRANCH  15  19
HETATM   19  O3  UNK     1       5.725   2.983  -0.514  1.00  0.00    -0.351 OA
BRANCH  19  20
HETATM   20  C24 UNK     1       5.327   2.443   0.745  1.00  0.00     0.171 C 
HETATM   21  C25 UNK     1       5.984   3.238   1.853  1.00  0.00     0.034 C 
ENDBRANCH  19  20
ENDBRANCH  15  19
ENDBRANCH   7   8
ENDBRANCH   2   7
BRANCH   1  22
HETATM   22  C9  UNK     1      -1.762  -0.614   2.445  1.00  0.00     0.374 C 
BRANCH  22  23
HETATM   23  C12 UNK     1      -3.032  -1.432   2.280  1.00  0.00     0.248 C 
HETATM   24  O1  UNK     1      -3.166  -2.217   1.337  1.00  0.00    -0.271 OA
HETATM   25  N1  UNK     1      -4.017  -1.232   3.255  1.00  0.00    -0.350 N 
HETATM   26  C13 UNK     1      -3.843  -0.301   4.363  1.00  0.00     0.153 C 
BRANCH  25  27
HETATM   27  C1  UNK     1      -5.278  -1.933   3.236  1.00  0.00     0.086 C 
HETATM   28  C2  UNK     1      -6.069  -1.592   1.970  1.00  0.00     0.025 C 
HETATM   29  C4  UNK     1      -7.383  -2.365   1.903  1.00  0.00     0.002 C 
HETATM   30  C6  UNK     1      -7.159  -3.869   2.032  1.00  0.00     0.000 C 
HETATM   31  C5  UNK     1      -6.370  -4.214   3.293  1.00  0.00     0.002 C 
HETATM   32  C3  UNK     1      -5.055  -3.442   3.363  1.00  0.00     0.025 C 
ENDBRANCH  25  27
ENDBRANCH  22  23
ENDBRANCH   1  22
TORSDOF 7
