REMARK  13 active torsions:
REMARK  status: ('A' for Active; 'I' for Inactive)
REMARK    1  A    between atoms: C1_14  and  O2_2 
REMARK    2  A    between atoms: C8_21  and  O2_2 
REMARK    3  A    between atoms: C2_15  and  O3_3 
REMARK    4  A    between atoms: C9_22  and  O3_3 
REMARK    5  A    between atoms: C10_23  and  O4_4 
REMARK    6  A    between atoms: C3_16  and  O4_4 
REMARK    7  A    between atoms: C5_18  and  O5_5 
REMARK    8  A    between atoms: C7_20  and  O5_5 
REMARK    9  A    between atoms: C15_28  and  O6_6 
REMARK   10  A    between atoms: C6_19  and  O6_6 
REMARK   11  A    between atoms: C29_42  and  O13_13 
REMARK   12  A    between atoms: C4_17  and  C6_19 
REMARK   13  A    between atoms: C22_35  and  C24_37 
ROOT
HETATM    1  O1  UNK     1       0.775   1.821  -1.609  1.00  0.00    -0.348 OA
HETATM    2  C1  UNK     1       3.646   1.764  -1.370  1.00  0.00     0.198 C 
HETATM    3  C2  UNK     1       2.940   1.643  -2.728  1.00  0.00     0.195 C 
HETATM    4  C3  UNK     1       2.743   2.411  -0.314  1.00  0.00     0.219 C 
HETATM    5  C4  UNK     1       1.524   1.062  -2.568  1.00  0.00     0.181 C 
HETATM    6  C5  UNK     1       1.353   1.767  -0.304  1.00  0.00     0.299 C 
ENDROOT
BRANCH   6   7
HETATM    7  O5  UNK     1       0.536   2.458   0.637  1.00  0.00    -0.318 OA
BRANCH   7   8
HETATM    8  C7  UNK     1      -0.436   1.724   1.262  1.00  0.00     0.074 A 
HETATM    9  C11 UNK     1      -1.023   0.643   0.605  1.00  0.00     0.075 A 
HETATM   10  C17 UNK     1      -2.015  -0.102   1.243  1.00  0.00     0.091 A 
HETATM   11  O10 UNK     1      -2.555  -1.154   0.549  1.00  0.00    -0.321 OA
HETATM   12  C18 UNK     1      -2.418   0.234   2.535  1.00  0.00     0.049 A 
HETATM   13  C23 UNK     1      -3.544  -1.883   1.163  1.00  0.00     0.159 A 
HETATM   14  C22 UNK     1      -4.038  -1.690   2.396  1.00  0.00     0.048 A 
HETATM   15  C21 UNK     1      -3.465  -0.570   3.192  1.00  0.00     0.197 A 
HETATM   16  O12 UNK     1      -3.826  -0.327   4.337  1.00  0.00    -0.286 OA
HETATM   17  C19 UNK     1      -1.831   1.316   3.196  1.00  0.00     0.021 A 
HETATM   18  C12 UNK     1      -0.840   2.060   2.554  1.00  0.00     0.038 A 
BRANCH  14  19
HETATM   19  C24 UNK     1      -5.116  -2.546   2.918  1.00  0.00    -0.020 A 
HETATM   20  C25 UNK     1      -4.919  -3.922   3.035  1.00  0.00     0.015 A 
HETATM   21  C27 UNK     1      -5.940  -4.733   3.530  1.00  0.00     0.037 A 
HETATM   22  C29 UNK     1      -7.158  -4.168   3.907  1.00  0.00     0.068 A 
HETATM   23  C28 UNK     1      -7.355  -2.792   3.790  1.00  0.00     0.037 A 
HETATM   24  C26 UNK     1      -6.334  -1.981   3.295  1.00  0.00     0.015 A 
BRANCH  22  25
HETATM   25  O13 UNK     1      -8.155  -4.959   4.390  1.00  0.00    -0.356 OA
HETATM   26  C30 UNK     1      -7.886  -6.358   4.484  1.00  0.00     0.210 C 
ENDBRANCH  22  25
ENDBRANCH  14  19
ENDBRANCH   7   8
ENDBRANCH   6   7
BRANCH   4  27
HETATM   27  O4  UNK     1       2.623   3.808  -0.582  1.00  0.00    -0.308 OA
BRANCH  27  28
HETATM   28  C10 UNK     1       3.559   4.604   0.012  1.00  0.00     0.255 C 
HETATM   29  O9  UNK     1       4.471   4.232   0.737  1.00  0.00    -0.266 OA
HETATM   30  C16 UNK     1       3.310   6.035  -0.356  1.00  0.00     0.126 C 
ENDBRANCH  27  28
ENDBRANCH   4  27
BRANCH   2  31
HETATM   31  O2  UNK     1       4.009   0.464  -0.909  1.00  0.00    -0.311 OA
BRANCH  31  32
HETATM   32  C8  UNK     1       5.242   0.023  -1.298  1.00  0.00     0.255 C 
HETATM   33  C13 UNK     1       5.487  -1.347  -0.743  1.00  0.00     0.126 C 
HETATM   34  O7  UNK     1       6.042   0.634  -1.993  1.00  0.00    -0.266 OA
ENDBRANCH  31  32
ENDBRANCH   2  31
BRANCH   5  35
HETATM   35  C6  UNK     1       0.728   1.066  -3.868  1.00  0.00     0.213 C 
BRANCH  35  36
HETATM   36  O6  UNK     1       1.427   0.292  -4.827  1.00  0.00    -0.319 OA
BRANCH  36  37
HETATM   37  C15 UNK     1       0.841   0.193  -6.061  1.00  0.00     0.254 C 
HETATM   38  O11 UNK     1      -0.216   0.709  -6.396  1.00  0.00    -0.266 OA
HETATM   39  C20 UNK     1       1.687  -0.650  -6.967  1.00  0.00     0.126 C 
ENDBRANCH  36  37
ENDBRANCH  35  36
ENDBRANCH   5  35
BRANCH   3  40
HETATM   40  O3  UNK     1       2.887   2.940  -3.318  1.00  0.00    -0.311 OA
BRANCH  40  41
HETATM   41  C9  UNK     1       3.961   3.282  -4.089  1.00  0.00     0.255 C 
HETATM   42  C14 UNK     1       3.768   4.663  -4.640  1.00  0.00     0.126 C 
HETATM   43  O8  UNK     1       4.942   2.586  -4.312  1.00  0.00    -0.266 OA
ENDBRANCH  40  41
ENDBRANCH   3  40
TORSDOF 13
