REMARK  8 active torsions:
REMARK  status: ('A' for Active; 'I' for Inactive)
REMARK    1  A    between atoms: C1_5  and  N1_3 
REMARK       I    between atoms: C10_14  and  N1_3 
REMARK       I    between atoms: C11_15  and  N2_4 
REMARK    2  A    between atoms: C2_6  and  N2_4 
REMARK    3  A    between atoms: C10_14  and  C3_7 
REMARK    4  A    between atoms: C11_15  and  C3_7 
REMARK    5  A    between atoms: C16_20  and  C4_8 
REMARK    6  A    between atoms: C17_21  and  C5_9 
REMARK    7  A    between atoms: C18_22  and  C20_24 
REMARK    8  A    between atoms: C19_23  and  C21_25 
ROOT
HETATM    1  C3  UNK     1      -1.056  -0.143  -2.196  1.00  0.00     0.206 C 
ENDROOT
BRANCH   1   2
HETATM    2  C10 UNK     1      -1.594  -0.796  -0.934  1.00  0.00     0.231 C 
HETATM    3  O1  UNK     1      -0.837  -1.208  -0.060  1.00  0.00    -0.273 OA
HETATM    4  N1  UNK     1      -2.982  -0.873  -0.955  1.00  0.00    -0.327 N 
HETATM    5  H7  UNK     1      -3.463  -0.507  -1.774  1.00  0.00     0.169 HD
BRANCH   4   6
HETATM    6  C1  UNK     1      -3.830  -1.414   0.040  1.00  0.00     0.034 A 
HETATM    7  C6  UNK     1      -5.212  -1.418  -0.149  1.00  0.00     0.030 A 
HETATM    8  C12 UNK     1      -6.049  -1.951   0.832  1.00  0.00     0.013 A 
HETATM    9  C4  UNK     1      -5.503  -2.481   2.001  1.00  0.00    -0.036 A 
HETATM   10  C14 UNK     1      -4.120  -2.477   2.190  1.00  0.00     0.013 A 
HETATM   11  C8  UNK     1      -3.284  -1.944   1.209  1.00  0.00     0.030 A 
BRANCH   9  12
HETATM   12  C16 UNK     1      -6.375  -3.037   3.024  1.00  0.00     0.012 C 
HETATM   13  C18 UNK     1      -6.036  -3.222   4.322  1.00  0.00     0.012 C 
BRANCH  13  14
HETATM   14  C20 UNK     1      -6.926  -3.768   5.362  1.00  0.00    -0.036 A 
HETATM   15  C22 UNK     1      -8.047  -4.515   5.000  1.00  0.00     0.011 A 
HETATM   16  C26 UNK     1      -8.889  -5.031   5.984  1.00  0.00     0.001 A 
HETATM   17  C30 UNK     1      -8.611  -4.801   7.331  1.00  0.00     0.000 A 
HETATM   18  C28 UNK     1      -7.489  -4.055   7.694  1.00  0.00     0.001 A 
HETATM   19  C24 UNK     1      -6.647  -3.538   6.709  1.00  0.00     0.011 A 
ENDBRANCH  13  14
ENDBRANCH   9  12
ENDBRANCH   4   6
ENDBRANCH   1   2
BRANCH   1  20
HETATM   20  C11 UNK     1       0.210   0.672  -1.993  1.00  0.00     0.231 C 
HETATM   21  O2  UNK     1       0.432   1.241  -0.928  1.00  0.00    -0.273 OA
HETATM   22  N2  UNK     1       0.996   0.688  -3.140  1.00  0.00    -0.327 N 
HETATM   23  H8  UNK     1       0.653   0.182  -3.953  1.00  0.00     0.169 HD
BRANCH  22  24
HETATM   24  C2  UNK     1       2.238   1.341  -3.323  1.00  0.00     0.034 A 
HETATM   25  C7  UNK     1       2.893   1.261  -4.553  1.00  0.00     0.030 A 
HETATM   26  C13 UNK     1       4.118   1.904  -4.733  1.00  0.00     0.013 A 
HETATM   27  C5  UNK     1       4.688   2.626  -3.685  1.00  0.00    -0.036 A 
HETATM   28  C15 UNK     1       4.033   2.706  -2.456  1.00  0.00     0.013 A 
HETATM   29  C9  UNK     1       2.808   2.063  -2.275  1.00  0.00     0.030 A 
BRANCH  27  30
HETATM   30  C17 UNK     1       5.964   3.296  -3.874  1.00  0.00     0.012 C 
HETATM   31  C19 UNK     1       6.794   3.690  -2.879  1.00  0.00     0.012 C 
BRANCH  31  32
HETATM   32  C21 UNK     1       8.097   4.352  -3.070  1.00  0.00    -0.036 A 
HETATM   33  C23 UNK     1       8.384   4.990  -4.277  1.00  0.00     0.011 A 
HETATM   34  C27 UNK     1       9.617   5.616  -4.459  1.00  0.00     0.001 A 
HETATM   35  C31 UNK     1      10.563   5.605  -3.433  1.00  0.00     0.000 A 
HETATM   36  C29 UNK     1      10.275   4.967  -2.226  1.00  0.00     0.001 A 
HETATM   37  C25 UNK     1       9.042   4.341  -2.045  1.00  0.00     0.011 A 
ENDBRANCH  31  32
ENDBRANCH  27  30
ENDBRANCH  22  24
ENDBRANCH   1  20
TORSDOF 8
