REMARK  4 active torsions:
REMARK  status: ('A' for Active; 'I' for Inactive)
REMARK    1  A    between atoms: C11_15  and  O2_2 
REMARK    2  A    between atoms: C4_8  and  O2_2 
REMARK    3  A    between atoms: C11_15  and  C14_18 
REMARK    4  A    between atoms: C13_17  and  C14_18 
ROOT
HETATM    1  O1  UNK     1      -2.855  -0.828   2.816  1.00  0.00    -0.274 OA
HETATM    2  O3  UNK     1      -4.680  -0.779   4.192  1.00  0.00    -0.260 OA
HETATM    3  C1  UNK     1      -3.113  -1.603   0.514  1.00  0.00     0.005 A 
HETATM    4  C2  UNK     1      -2.313  -1.112   1.547  1.00  0.00     0.099 A 
HETATM    5  C3  UNK     1      -0.946  -0.877   1.384  1.00  0.00     0.006 A 
HETATM    6  C4  UNK     1      -0.355  -1.139   0.152  1.00  0.00     0.078 A 
HETATM    7  C5  UNK     1      -4.543  -1.821   0.775  1.00  0.00    -0.043 A 
HETATM    8  C6  UNK     1      -2.499  -1.861  -0.719  1.00  0.00     0.017 A 
HETATM    9  C7  UNK     1      -1.130  -1.630  -0.897  1.00  0.00     0.038 A 
HETATM   10  C8  UNK     1      -0.123  -0.350   2.514  1.00  0.00     0.054 C 
HETATM   11  C9  UNK     1      -5.031  -1.541   1.992  1.00  0.00     0.090 A 
HETATM   12  C10 UNK     1      -5.430  -2.348  -0.315  1.00  0.00     0.049 C 
HETATM   13  C12 UNK     1      -4.199  -1.023   3.091  1.00  0.00     0.288 A 
ENDROOT
BRANCH   6  14
HETATM   14  O2  UNK     1       0.975  -0.922  -0.046  1.00  0.00    -0.343 OA
BRANCH  14  15
HETATM   15  C11 UNK     1       1.334   0.012  -1.063  1.00  0.00     0.259 C 
BRANCH  15  16
HETATM   16  C14 UNK     1       2.650   0.680  -0.713  1.00  0.00     0.183 C 
HETATM   17  O4  UNK     1       3.244   0.427   0.332  1.00  0.00    -0.290 OA
BRANCH  16  18
HETATM   18  C13 UNK     1       3.228   1.668  -1.669  1.00  0.00     0.012 A 
HETATM   19  C15 UNK     1       2.546   1.939  -2.833  1.00  0.00     0.016 A 
HETATM   20  C18 UNK     1       3.086   2.865  -3.726  1.00  0.00     0.007 A 
HETATM   21  C17 UNK     1       4.295   3.496  -3.429  1.00  0.00    -0.062 A 
HETATM   22  C19 UNK     1       4.962   3.201  -2.241  1.00  0.00     0.007 A 
HETATM   23  C20 UNK     1       4.873   4.485  -4.384  1.00  0.00     0.048 C 
HETATM   24  C16 UNK     1       4.422   2.275  -1.349  1.00  0.00     0.016 A 
ENDBRANCH  16  18
ENDBRANCH  15  16
ENDBRANCH  14  15
ENDBRANCH   6  14
TORSDOF 4
