REMARK  3 active torsions:
REMARK  status: ('A' for Active; 'I' for Inactive)
REMARK    1  A    between atoms: C13_18  and  O2_2 
REMARK    2  A    between atoms: C5_10  and  O2_2 
REMARK    3  A    between atoms: C3_8  and  C9_14 
ROOT
HETATM    1  O1  UNK     1      -1.978  -0.582  -0.630  1.00  0.00    -0.274 OA
HETATM    2  O4  UNK     1      -4.172  -1.204  -0.462  1.00  0.00    -0.260 OA
HETATM    3  C1  UNK     1      -0.613  -0.458   1.392  1.00  0.00     0.005 A 
HETATM    4  C2  UNK     1      -0.749  -0.324   0.010  1.00  0.00     0.106 A 
HETATM    5  C3  UNK     1       0.312   0.068  -0.809  1.00  0.00     0.078 A 
HETATM    6  C4  UNK     1      -1.783  -0.875   2.177  1.00  0.00    -0.043 A 
HETATM    7  C5  UNK     1       1.550   0.336  -0.235  1.00  0.00     0.095 A 
HETATM    8  C6  UNK     1       0.642  -0.183   1.952  1.00  0.00     0.017 A 
HETATM    9  C7  UNK     1       1.715   0.211   1.144  1.00  0.00     0.039 A 
HETATM   10  C8  UNK     1      -2.939  -1.114   1.542  1.00  0.00     0.090 A 
HETATM   11  C10 UNK     1      -1.669  -1.028   3.666  1.00  0.00     0.049 C 
HETATM   12  C11 UNK     1      -3.098  -0.978   0.084  1.00  0.00     0.288 A 
ENDROOT
BRANCH   7  13
HETATM   13  O2  UNK     1       2.612   0.719  -0.998  1.00  0.00    -0.278 OA
BRANCH  13  14
HETATM   14  C13 UNK     1       2.724   2.108  -1.167  1.00  0.00     0.260 C 
HETATM   15  C14 UNK     1       3.918   2.426  -2.018  1.00  0.00     0.126 C 
HETATM   16  O5  UNK     1       1.968   2.950  -0.699  1.00  0.00    -0.265 OA
ENDBRANCH  13  14
ENDBRANCH   7  13
BRANCH   5  17
HETATM   17  C9  UNK     1       0.133   0.196  -2.251  1.00  0.00     0.161 C 
HETATM   18  C12 UNK     1       0.385  -0.997  -3.162  1.00  0.00     0.097 C 
HETATM   19  O3  UNK     1      -0.227   1.272  -2.765  1.00  0.00    -0.293 OA
ENDBRANCH   5  17
TORSDOF 3
