REMARK  6 active torsions:
REMARK  status: ('A' for Active; 'I' for Inactive)
REMARK    1  A    between atoms: C3_10  and  N1_6 
REMARK       I    between atoms: C7_14  and  N1_6 
REMARK    2  A    between atoms: C15_22  and  N2_7 
REMARK    3  A    between atoms: C1_8  and  C2_9 
REMARK    4  A    between atoms: C1_8  and  C3_10 
REMARK    5  A    between atoms: C2_9  and  C4_11 
REMARK    6  A    between atoms: C5_12  and  C7_14 
ROOT
HETATM    1  O1  UNK     1       2.351  -0.006   0.230  1.00  0.00    -0.274 OA
HETATM    2  O3  UNK     1       0.497  -1.219   0.791  1.00  0.00    -0.259 OA
HETATM    3  C5  UNK     1       0.317   0.176  -1.115  1.00  0.00     0.108 A 
HETATM    4  C6  UNK     1       2.283   1.461  -1.707  1.00  0.00     0.001 A 
HETATM    5  C8  UNK     1       0.905   1.056  -1.934  1.00  0.00     0.037 A 
HETATM    6  C9  UNK     1       2.975   0.919  -0.628  1.00  0.00     0.089 A 
HETATM    7  C12 UNK     1       2.937   2.377  -2.535  1.00  0.00     0.050 A 
HETATM    8  C13 UNK     1       1.033  -0.413   0.038  1.00  0.00     0.304 A 
HETATM    9  C14 UNK     1       4.297   1.265  -0.355  1.00  0.00     0.041 A 
HETATM   10  C15 UNK     1       4.263   2.734  -2.274  1.00  0.00     0.103 A 
HETATM   11  C16 UNK     1       4.941   2.179  -1.187  1.00  0.00     0.039 A 
ENDROOT
BRANCH   3  12
HETATM   12  C7  UNK     1      -1.075  -0.170  -1.427  1.00  0.00     0.257 C 
HETATM   13  O2  UNK     1      -1.821   0.642  -1.971  1.00  0.00    -0.267 OA
HETATM   14  N1  UNK     1      -1.409  -1.456  -1.042  1.00  0.00    -0.357 N 
HETATM   15  H7  UNK     1      -0.712  -2.060  -0.617  1.00  0.00     0.162 HD
BRANCH  14  16
HETATM   16  C3  UNK     1      -2.724  -2.022  -1.242  1.00  0.00     0.123 C 
BRANCH  16  17
HETATM   17  C1  UNK     1      -3.658  -1.771  -0.060  1.00  0.00     0.024 C 
BRANCH  17  18
HETATM   18  C2  UNK     1      -3.182  -2.377   1.266  1.00  0.00     0.040 C 
BRANCH  18  19
HETATM   19  C4  UNK     1      -4.131  -2.153   2.416  1.00  0.00    -0.058 A 
HETATM   20  C10 UNK     1      -3.992  -1.020   3.203  1.00  0.00     0.007 A 
HETATM   21  C17 UNK     1      -4.871  -0.812   4.266  1.00  0.00     0.001 A 
HETATM   22  C19 UNK     1      -5.878  -1.740   4.530  1.00  0.00     0.000 A 
HETATM   23  C18 UNK     1      -6.007  -2.876   3.731  1.00  0.00     0.001 A 
HETATM   24  C11 UNK     1      -5.128  -3.084   2.668  1.00  0.00     0.007 A 
ENDBRANCH  18  19
ENDBRANCH  17  18
ENDBRANCH  16  17
ENDBRANCH  14  16
ENDBRANCH   3  12
BRANCH  10  25
HETATM   25  N2  UNK     1       4.924   3.664  -3.119  1.00  0.00    -0.116 N 
HETATM   26  O4  UNK     1       6.115   3.973  -2.869  1.00  0.00    -0.532 OA
HETATM   27  O5  UNK     1       4.300   4.153  -4.091  1.00  0.00    -0.532 OA
ENDBRANCH  10  25
TORSDOF 6
