REMARK  7 active torsions:
REMARK  status: ('A' for Active; 'I' for Inactive)
REMARK    1  A    between atoms: C10_21  and  O2_4 
REMARK    2  A    between atoms: C17_28  and  O6_8 
REMARK    3  A    between atoms: C4_15  and  N1_10 
REMARK       I    between atoms: C9_20  and  N1_10 
REMARK    4  A    between atoms: C13_24  and  N2_11 
REMARK       I    between atoms: C6_17  and  N2_11 
REMARK    5  A    between atoms: C10_21  and  C2_13 
REMARK    6  A    between atoms: C3_14  and  C6_17 
REMARK    7  A    between atoms: C7_18  and  C9_20 
ROOT
HETATM    1  S1  UNK     1      -0.916  -0.780   0.612  1.00  0.00    -0.065 SA
HETATM    2  C1  UNK     1      -0.769  -0.452   3.156  1.00  0.00    -0.020 A 
HETATM    3  C2  UNK     1       0.375   0.196   2.607  1.00  0.00     0.080 A 
HETATM    4  C3  UNK     1      -1.556  -1.025   2.181  1.00  0.00     0.082 A 
HETATM    5  C4  UNK     1       0.399   0.084   1.253  1.00  0.00     0.094 A 
HETATM    6  C5  UNK     1      -1.076  -0.505   4.608  1.00  0.00     0.051 C 
ENDROOT
BRANCH   5   7
HETATM    7  N1  UNK     1       1.324   0.562   0.320  1.00  0.00    -0.316 N 
HETATM    8  C9  UNK     1       1.259   0.394  -1.056  1.00  0.00     0.262 C 
HETATM    9  O4  UNK     1       0.403  -0.190  -1.718  1.00  0.00    -0.267 OA
HETATM   10  H4  UNK     1       2.091   1.091   0.725  1.00  0.00     0.169 HD
BRANCH   8  11
HETATM   11  C7  UNK     1       2.396   1.024  -1.738  1.00  0.00     0.108 A 
HETATM   12  C11 UNK     1       2.166   1.474  -2.977  1.00  0.00     0.037 A 
HETATM   13  C8  UNK     1       3.231   2.114  -3.734  1.00  0.00     0.001 A 
HETATM   14  C12 UNK     1       4.486   2.249  -3.148  1.00  0.00     0.089 A 
HETATM   15  C15 UNK     1       3.037   2.597  -5.030  1.00  0.00     0.038 A 
HETATM   16  O1  UNK     1       4.721   1.774  -1.843  1.00  0.00    -0.274 OA
HETATM   17  C16 UNK     1       5.548   2.851  -3.819  1.00  0.00     0.040 A 
HETATM   18  C14 UNK     1       3.722   1.157  -1.095  1.00  0.00     0.304 A 
HETATM   19  O7  UNK     1       3.936   0.747   0.041  1.00  0.00    -0.259 OA
HETATM   20  C20 UNK     1       5.346   3.331  -5.111  1.00  0.00     0.026 A 
HETATM   21  C19 UNK     1       4.094   3.205  -5.716  1.00  0.00     0.035 A 
HETATM   22 Cl1  UNK     1       3.850   3.800  -7.313  1.00  0.00    -0.084 Cl
ENDBRANCH   8  11
ENDBRANCH   5   7
BRANCH   3  23
HETATM   23  C10 UNK     1       1.389   0.887   3.364  1.00  0.00     0.296 C 
HETATM   24  O5  UNK     1       1.711   0.587   4.523  1.00  0.00    -0.259 OA
BRANCH  23  25
HETATM   25  O2  UNK     1       1.983   1.927   2.684  1.00  0.00    -0.322 OA
HETATM   26  C24 UNK     1       3.000   2.658   3.378  1.00  0.00     0.213 C 
ENDBRANCH  23  25
ENDBRANCH   3  23
BRANCH   4  27
HETATM   27  C6  UNK     1      -2.775  -1.757   2.318  1.00  0.00     0.263 C 
HETATM   28  O3  UNK     1      -3.056  -2.419   3.344  1.00  0.00    -0.267 OA
HETATM   29  N2  UNK     1      -3.680  -1.665   1.234  1.00  0.00    -0.320 N 
HETATM   30  H6  UNK     1      -3.379  -1.098   0.444  1.00  0.00     0.169 HD
BRANCH  29  31
HETATM   31  C13 UNK     1      -4.968  -2.239   1.086  1.00  0.00     0.068 A 
HETATM   32  C17 UNK     1      -5.693  -2.018  -0.072  1.00  0.00     0.095 A 
HETATM   33  C21 UNK     1      -6.959  -2.589  -0.203  1.00  0.00     0.039 A 
HETATM   34  C23 UNK     1      -7.480  -3.373   0.826  1.00  0.00     0.003 A 
HETATM   35  C22 UNK     1      -6.736  -3.586   1.986  1.00  0.00     0.002 A 
HETATM   36  C18 UNK     1      -5.470  -3.015   2.118  1.00  0.00     0.032 A 
BRANCH  32  37
HETATM   37  O6  UNK     1      -5.202  -1.255  -1.089  1.00  0.00    -0.354 OA
HETATM   38  C25 UNK     1      -4.449  -1.926  -2.096  1.00  0.00     0.210 C 
ENDBRANCH  32  37
ENDBRANCH  29  31
ENDBRANCH   4  27
TORSDOF 7
