REMARK  5 active torsions:
REMARK  status: ('A' for Active; 'I' for Inactive)
REMARK    1  A    between atoms: C12_18  and  O2_2 
REMARK    2  A    between atoms: C6_12  and  O2_2 
REMARK       I    between atoms: C10_16  and  N1_6 
REMARK    3  A    between atoms: C10_16  and  C7_13 
REMARK    4  A    between atoms: C11_17  and  C13_19 
REMARK    5  A    between atoms: C12_18  and  C14_20 
ROOT
HETATM    1  O1  UNK     1      -2.362  -0.401   2.559  1.00  0.00    -0.274 OA
HETATM    2  O3  UNK     1      -3.535  -1.177   4.360  1.00  0.00    -0.259 OA
HETATM    3  C1  UNK     1      -2.836  -1.289   0.345  1.00  0.00    -0.001 A 
HETATM    4  C2  UNK     1      -2.115  -0.434   1.172  1.00  0.00     0.092 A 
HETATM    5  C3  UNK     1      -3.851  -2.148   0.935  1.00  0.00     0.037 A 
HETATM    6  C4  UNK     1      -2.561  -1.293  -1.024  1.00  0.00     0.017 A 
HETATM    7  C5  UNK     1      -1.130   0.415   0.670  1.00  0.00     0.075 A 
HETATM    8  C6  UNK     1      -0.862   0.404  -0.697  1.00  0.00     0.082 A 
HETATM    9  C7  UNK     1      -4.082  -2.113   2.253  1.00  0.00     0.108 A 
HETATM   10  C8  UNK     1      -1.576  -0.447  -1.543  1.00  0.00     0.038 A 
HETATM   11  C9  UNK     1      -3.326  -1.211   3.152  1.00  0.00     0.304 A 
ENDROOT
BRANCH   8  12
HETATM   12  O2  UNK     1       0.095   1.225  -1.209  1.00  0.00    -0.276 OA
BRANCH  12  13
HETATM   13  C12 UNK     1       1.375   0.657  -1.246  1.00  0.00     0.288 C 
HETATM   14  O5  UNK     1       1.676  -0.465  -0.870  1.00  0.00    -0.260 OA
BRANCH  13  15
HETATM   15  C14 UNK     1       2.310   1.652  -1.821  1.00  0.00     0.083 C 
HETATM   16  C13 UNK     1       3.608   1.342  -1.948  1.00  0.00     0.017 C 
BRANCH  16  17
HETATM   17  C11 UNK     1       4.634   2.247  -2.494  1.00  0.00    -0.036 A 
HETATM   18  C15 UNK     1       4.245   3.316  -3.284  1.00  0.00     0.011 A 
HETATM   19  C17 UNK     1       5.217   4.174  -3.801  1.00  0.00     0.001 A 
HETATM   20  C19 UNK     1       6.564   3.950  -3.520  1.00  0.00     0.000 A 
HETATM   21  C18 UNK     1       6.941   2.869  -2.723  1.00  0.00     0.001 A 
HETATM   22  C16 UNK     1       5.969   2.012  -2.206  1.00  0.00     0.011 A 
ENDBRANCH  16  17
ENDBRANCH  13  15
ENDBRANCH  12  13
ENDBRANCH   8  12
BRANCH   9  23
HETATM   23  C10 UNK     1      -5.124  -3.017   2.753  1.00  0.00     0.255 C 
HETATM   24  O4  UNK     1      -6.298  -2.667   2.827  1.00  0.00    -0.268 OA
HETATM   25  N1  UNK     1      -4.645  -4.253   3.114  1.00  0.00    -0.366 N 
HETATM   26  H12 UNK     1      -5.269  -4.968   3.475  1.00  0.00     0.159 HD
HETATM   27  H13 UNK     1      -3.664  -4.504   3.038  1.00  0.00     0.159 HD
ENDBRANCH   9  23
TORSDOF 5
