REMARK  6 active torsions:
REMARK  status: ('A' for Active; 'I' for Inactive)
REMARK    1  A    between atoms: C5_11  and  N1_4 
REMARK    2  A    between atoms: C6_12  and  N2_5 
REMARK    3  A    between atoms: C16_22  and  N3_6 
REMARK       I    between atoms: C9_15  and  N3_6 
REMARK    4  A    between atoms: C5_11  and  C7_13 
REMARK    5  A    between atoms: C6_12  and  C9_15 
REMARK    6  A    between atoms: C13_19  and  C18_24 
ROOT
HETATM    1  N1  UNK     1       1.061   0.062  -1.467  1.00  0.00     0.096 N 
HETATM    2  N2  UNK     1      -1.650  -0.597  -0.712  1.00  0.00     0.100 N 
HETATM    3  C1  UNK     1      -0.021   0.036  -2.458  1.00  0.00     0.303 C 
HETATM    4  C2  UNK     1       0.781  -0.880  -0.377  1.00  0.00     0.303 C 
HETATM    5  C3  UNK     1      -1.371   0.346  -1.802  1.00  0.00     0.303 C 
HETATM    6  C4  UNK     1      -0.568  -0.569   0.280  1.00  0.00     0.303 C 
ENDROOT
BRANCH   1   7
HETATM    7  C5  UNK     1       2.347  -0.238  -2.095  1.00  0.00     0.312 C 
BRANCH   7   8
HETATM    8  C7  UNK     1       2.923   0.947  -2.791  1.00  0.00    -0.011 A 
HETATM    9  C10 UNK     1       2.648   1.194  -4.079  1.00  0.00     0.092 A 
HETATM   10  C14 UNK     1       3.193   2.351  -4.809  1.00  0.00     0.288 A 
HETATM   11  O1  UNK     1       4.024   3.201  -4.097  1.00  0.00    -0.275 OA
HETATM   12  O3  UNK     1       2.918   2.545  -5.988  1.00  0.00    -0.260 OA
HETATM   13  C11 UNK     1       4.331   2.968  -2.741  1.00  0.00     0.090 A 
HETATM   14  C15 UNK     1       5.178   3.890  -2.125  1.00  0.00     0.039 A 
HETATM   15  C8  UNK     1       3.807   1.866  -2.063  1.00  0.00     0.007 A 
HETATM   16  C17 UNK     1       5.517   3.711  -0.788  1.00  0.00     0.010 A 
HETATM   17  C13 UNK     1       5.010   2.620  -0.085  1.00  0.00    -0.058 A 
HETATM   18  C12 UNK     1       4.161   1.704  -0.717  1.00  0.00     0.022 A 
BRANCH  17  19
HETATM   19  C18 UNK     1       5.373   2.428   1.350  1.00  0.00     0.034 C 
HETATM   20  C21 UNK     1       4.396   3.123   2.294  1.00  0.00     0.010 C 
ENDBRANCH  17  19
ENDBRANCH   7   8
ENDBRANCH   1   7
BRANCH   2  21
HETATM   21  C6  UNK     1      -2.936  -0.299  -0.085  1.00  0.00     0.375 C 
BRANCH  21  22
HETATM   22  C9  UNK     1      -3.429  -1.524   0.665  1.00  0.00     0.250 C 
HETATM   23  O2  UNK     1      -3.151  -2.668   0.318  1.00  0.00    -0.271 OA
HETATM   24  N3  UNK     1      -4.203  -1.141   1.759  1.00  0.00    -0.325 N 
HETATM   25  H15 UNK     1      -4.621  -0.217   1.677  1.00  0.00     0.169 HD
BRANCH  24  26
HETATM   26  C16 UNK     1      -4.841  -1.982   2.702  1.00  0.00     0.046 A 
HETATM   27  C19 UNK     1      -4.083  -2.859   3.479  1.00  0.00    -0.035 A 
HETATM   28  C22 UNK     1      -4.712  -3.687   4.409  1.00  0.00     0.009 A 
HETATM   29  C24 UNK     1      -2.598  -2.935   3.337  1.00  0.00     0.050 C 
HETATM   30  C26 UNK     1      -6.097  -3.637   4.563  1.00  0.00     0.001 A 
HETATM   31  C23 UNK     1      -6.854  -2.759   3.787  1.00  0.00     0.009 A 
HETATM   32  C20 UNK     1      -6.226  -1.932   2.857  1.00  0.00    -0.035 A 
HETATM   33  C25 UNK     1      -7.064  -1.002   2.040  1.00  0.00     0.050 C 
ENDBRANCH  24  26
ENDBRANCH  21  22
ENDBRANCH   2  21
TORSDOF 6
