REMARK  7 active torsions:
REMARK  status: ('A' for Active; 'I' for Inactive)
REMARK    1  A    between atoms: C24_31  and  O4_4 
REMARK    2  A    between atoms: C5_12  and  N1_5 
REMARK    3  A    between atoms: C6_13  and  N2_6 
REMARK    4  A    between atoms: C18_25  and  N3_7 
REMARK       I    between atoms: C9_16  and  N3_7 
REMARK    5  A    between atoms: C5_12  and  C7_14 
REMARK    6  A    between atoms: C6_13  and  C9_16 
REMARK    7  A    between atoms: C13_20  and  C17_24 
ROOT
HETATM    1  N1  UNK     1       1.184   0.256  -1.627  1.00  0.00     0.096 N 
HETATM    2  N2  UNK     1      -1.572  -0.235  -0.908  1.00  0.00     0.100 N 
HETATM    3  C1  UNK     1       0.829  -0.729  -0.598  1.00  0.00     0.303 C 
HETATM    4  C2  UNK     1       0.106   0.377  -2.615  1.00  0.00     0.303 C 
HETATM    5  C3  UNK     1      -0.494  -0.355   0.081  1.00  0.00     0.303 C 
HETATM    6  C4  UNK     1      -1.217   0.750  -1.937  1.00  0.00     0.303 C 
ENDROOT
BRANCH   1   7
HETATM    7  C5  UNK     1       2.444  -0.103  -2.275  1.00  0.00     0.312 C 
BRANCH   7   8
HETATM    8  C7  UNK     1       3.113   1.074  -2.896  1.00  0.00    -0.011 A 
HETATM    9  C10 UNK     1       2.861   1.423  -4.166  1.00  0.00     0.092 A 
HETATM   10  C14 UNK     1       3.497   2.577  -4.823  1.00  0.00     0.288 A 
HETATM   11  O1  UNK     1       4.390   3.314  -4.060  1.00  0.00    -0.275 OA
HETATM   12  O3  UNK     1       3.241   2.867  -5.986  1.00  0.00    -0.260 OA
HETATM   13  C11 UNK     1       4.674   2.972  -2.723  1.00  0.00     0.090 A 
HETATM   14  C8  UNK     1       4.064   1.874  -2.114  1.00  0.00     0.007 A 
HETATM   15  C15 UNK     1       5.590   3.784  -2.052  1.00  0.00     0.039 A 
HETATM   16  C12 UNK     1       4.401   1.600  -0.782  1.00  0.00     0.022 A 
HETATM   17  C13 UNK     1       5.317   2.405  -0.095  1.00  0.00    -0.058 A 
HETATM   18  C16 UNK     1       5.911   3.495  -0.729  1.00  0.00     0.010 A 
BRANCH  17  19
HETATM   19  C17 UNK     1       5.661   2.094   1.323  1.00  0.00     0.034 C 
HETATM   20  C19 UNK     1       4.738   2.803   2.312  1.00  0.00     0.010 C 
ENDBRANCH  17  19
ENDBRANCH   7   8
ENDBRANCH   1   7
BRANCH   2  21
HETATM   21  C6  UNK     1      -2.833   0.122  -0.261  1.00  0.00     0.375 C 
BRANCH  21  22
HETATM   22  C9  UNK     1      -3.422  -1.106   0.412  1.00  0.00     0.250 C 
HETATM   23  N3  UNK     1      -4.166  -0.733   1.529  1.00  0.00    -0.326 N 
HETATM   24  H15 UNK     1      -4.230   0.259   1.746  1.00  0.00     0.169 HD
HETATM   25  O2  UNK     1      -3.233  -2.243  -0.007  1.00  0.00    -0.271 OA
BRANCH  23  26
HETATM   26  C18 UNK     1      -4.870  -1.579   2.419  1.00  0.00     0.034 A 
HETATM   27  C20 UNK     1      -5.569  -1.032   3.496  1.00  0.00     0.032 A 
HETATM   28  C22 UNK     1      -6.263  -1.866   4.372  1.00  0.00     0.039 A 
HETATM   29  C24 UNK     1      -6.259  -3.246   4.172  1.00  0.00     0.068 A 
HETATM   30  C23 UNK     1      -5.561  -3.793   3.096  1.00  0.00     0.039 A 
HETATM   31  C21 UNK     1      -4.866  -2.960   2.219  1.00  0.00     0.032 A 
BRANCH  29  32
HETATM   32  O4  UNK     1      -6.939  -4.059   5.026  1.00  0.00    -0.356 OA
HETATM   33  C25 UNK     1      -6.893  -5.461   4.763  1.00  0.00     0.210 C 
ENDBRANCH  29  32
ENDBRANCH  23  26
ENDBRANCH  21  22
ENDBRANCH   2  21
TORSDOF 7
