REMARK  4 active torsions:
REMARK  status: ('A' for Active; 'I' for Inactive)
REMARK    1  A    between atoms: C5_10  and  O2_2 
REMARK    2  A    between atoms: C9_14  and  O3_3 
REMARK    3  A    between atoms: C13_18  and  O5_5 
REMARK    4  A    between atoms: C3_8  and  C4_9 
ROOT
HETATM    1  O1  UNK     1      -0.469  -0.310  -0.348  1.00  0.00    -0.306 OA
HETATM    2  O4  UNK     1      -1.002   1.720   3.145  1.00  0.00    -0.284 OA
HETATM    3  C1  UNK     1      -1.753   0.028   1.684  1.00  0.00     0.051 A 
HETATM    4  C2  UNK     1      -1.517  -0.625   0.477  1.00  0.00     0.093 A 
HETATM    5  C3  UNK     1       0.400   0.697   0.044  1.00  0.00     0.123 A 
HETATM    6  C5  UNK     1       0.280   1.410   1.178  1.00  0.00     0.152 A 
HETATM    7  C6  UNK     1      -0.842   1.106   2.099  1.00  0.00     0.220 A 
HETATM    8  C7  UNK     1      -2.368  -1.650   0.060  1.00  0.00     0.075 A 
HETATM    9  C8  UNK     1      -2.839  -0.337   2.484  1.00  0.00     0.021 A 
HETATM   10  C9  UNK     1      -3.454  -2.017   0.856  1.00  0.00     0.070 A 
HETATM   11  C11 UNK     1      -3.688  -1.362   2.065  1.00  0.00     0.038 A 
ENDROOT
BRANCH   5  12
HETATM   12  C4  UNK     1       1.479   0.936  -0.931  1.00  0.00     0.003 A 
HETATM   13  C10 UNK     1       1.293   1.848  -1.970  1.00  0.00     0.051 A 
HETATM   14  C13 UNK     1       2.315   2.073  -2.892  1.00  0.00     0.069 A 
HETATM   15  C15 UNK     1       3.523   1.386  -2.776  1.00  0.00     0.037 A 
HETATM   16  C14 UNK     1       3.710   0.474  -1.738  1.00  0.00     0.004 A 
HETATM   17  C12 UNK     1       2.688   0.249  -0.815  1.00  0.00     0.014 A 
BRANCH  14  18
HETATM   18  O5  UNK     1       2.133   2.963  -3.906  1.00  0.00    -0.356 OA
HETATM   19  C17 UNK     1       3.219   3.145  -4.813  1.00  0.00     0.210 C 
ENDBRANCH  14  18
ENDBRANCH   5  12
BRANCH   6  20
HETATM   20  O2  UNK     1       1.144   2.427   1.522  1.00  0.00    -0.355 OA
HETATM   21  H8  UNK     1       1.826   2.526   0.839  1.00  0.00     0.218 HD
ENDBRANCH   6  20
BRANCH  10  22
HETATM   22  O3  UNK     1      -4.285  -3.016   0.453  1.00  0.00    -0.356 OA
HETATM   23  C16 UNK     1      -5.375  -3.341   1.314  1.00  0.00     0.210 C 
ENDBRANCH  10  22
TORSDOF 4
