REMARK  5 active torsions:
REMARK  status: ('A' for Active; 'I' for Inactive)
REMARK    1  A    between atoms: C13_18  and  O2_3 
REMARK    2  A    between atoms: C7_12  and  O2_3 
REMARK    3  A    between atoms: C2_7  and  C4_9 
REMARK    4  A    between atoms: C13_18  and  C16_21 
REMARK    5  A    between atoms: C16_21  and  C17_22 
ROOT
HETATM    1  O1  UNK     1       0.763  -2.512  -1.515  1.00  0.00    -0.275 OA
HETATM    2  O3  UNK     1       0.509  -4.099  -3.141  1.00  0.00    -0.260 OA
HETATM    3  C1  UNK     1       1.078  -3.222   0.797  1.00  0.00     0.009 A 
HETATM    4  C2  UNK     1       0.994  -4.626   0.366  1.00  0.00    -0.007 A 
HETATM    5  C3  UNK     1       0.959  -2.210  -0.154  1.00  0.00     0.093 A 
HETATM    6  C5  UNK     1       1.274  -2.848   2.133  1.00  0.00     0.018 A 
HETATM    7  C6  UNK     1       1.029  -0.859   0.188  1.00  0.00     0.075 A 
HETATM    8  C7  UNK     1       1.223  -0.505   1.519  1.00  0.00     0.072 A 
HETATM    9  C8  UNK     1       0.806  -4.880  -0.939  1.00  0.00     0.095 A 
HETATM   10  C9  UNK     1       1.346  -1.498   2.491  1.00  0.00     0.038 A 
HETATM   11  C10 UNK     1       0.680  -3.823  -1.959  1.00  0.00     0.289 A 
ENDROOT
BRANCH   8  12
HETATM   12  O2  UNK     1       1.292   0.807   1.873  1.00  0.00    -0.344 OA
BRANCH  12  13
HETATM   13  C13 UNK     1       0.551   1.734   1.080  1.00  0.00     0.259 C 
BRANCH  13  14
HETATM   14  C16 UNK     1       0.126   2.918   1.926  1.00  0.00     0.183 C 
HETATM   15  O4  UNK     1       0.387   2.981   3.125  1.00  0.00    -0.290 OA
BRANCH  14  16
HETATM   16  C17 UNK     1      -0.630   4.028   1.278  1.00  0.00     0.012 A 
HETATM   17  C19 UNK     1      -0.914   3.936  -0.066  1.00  0.00     0.017 A 
HETATM   18  C21 UNK     1      -1.623   4.973  -0.673  1.00  0.00     0.025 A 
HETATM   19  C23 UNK     1      -2.029   6.075   0.081  1.00  0.00     0.034 A 
HETATM   20  C22 UNK     1      -1.727   6.139   1.441  1.00  0.00     0.025 A 
HETATM   21 Cl1  UNK     1      -2.902   7.355  -0.668  1.00  0.00    -0.084 Cl
HETATM   22  C20 UNK     1      -1.018   5.102   2.048  1.00  0.00     0.017 A 
ENDBRANCH  14  16
ENDBRANCH  13  14
ENDBRANCH  12  13
ENDBRANCH   8  12
BRANCH   4  23
HETATM   23  C4  UNK     1       1.098  -5.798   1.230  1.00  0.00    -0.025 A 
HETATM   24  C11 UNK     1      -0.050  -6.335   1.808  1.00  0.00     0.012 A 
HETATM   25  C14 UNK     1       0.049  -7.455   2.633  1.00  0.00     0.001 A 
HETATM   26  C18 UNK     1       1.294  -8.035   2.877  1.00  0.00     0.000 A 
HETATM   27  C15 UNK     1       2.441  -7.494   2.295  1.00  0.00     0.001 A 
HETATM   28  C12 UNK     1       2.342  -6.374   1.470  1.00  0.00     0.012 A 
ENDBRANCH   4  23
TORSDOF 5
