REMARK  5 active torsions:
REMARK  status: ('A' for Active; 'I' for Inactive)
REMARK    1  A    between atoms: C9_15  and  O2_2 
REMARK    2  A    between atoms: C10_16  and  O3_3 
REMARK    3  A    between atoms: C13_19  and  O5_5 
REMARK    4  A    between atoms: C14_20  and  O6_6 
REMARK    5  A    between atoms: C2_8  and  C4_10 
ROOT
HETATM    1  O1  UNK     1       1.935   0.795   1.136  1.00  0.00    -0.321 OA
HETATM    2  O4  UNK     1      -0.997   0.432  -1.679  1.00  0.00    -0.286 OA
HETATM    3  C1  UNK     1       1.232   1.003  -1.178  1.00  0.00     0.052 A 
HETATM    4  C2  UNK     1      -0.346   0.161   0.596  1.00  0.00     0.048 A 
HETATM    5  C3  UNK     1       2.191   1.117  -0.172  1.00  0.00     0.092 A 
HETATM    6  C5  UNK     1      -0.117   0.519  -0.832  1.00  0.00     0.198 A 
HETATM    7  C6  UNK     1       1.549   1.347  -2.495  1.00  0.00     0.058 A 
HETATM    8  C7  UNK     1       3.473   1.576  -0.477  1.00  0.00     0.077 A 
HETATM    9  C8  UNK     1       0.681   0.325   1.443  1.00  0.00     0.159 A 
HETATM   10  C9  UNK     1       2.832   1.805  -2.797  1.00  0.00     0.102 A 
HETATM   11  C10 UNK     1       3.792   1.920  -1.791  1.00  0.00     0.104 A 
ENDROOT
BRANCH   4  12
HETATM   12  C4  UNK     1      -1.635  -0.371   1.068  1.00  0.00    -0.017 A 
HETATM   13  C11 UNK     1      -1.873  -1.747   1.054  1.00  0.00     0.052 A 
HETATM   14  C13 UNK     1      -3.094  -2.251   1.502  1.00  0.00     0.102 A 
HETATM   15  C14 UNK     1      -4.080  -1.380   1.965  1.00  0.00     0.101 A 
HETATM   16  C15 UNK     1      -3.846  -0.005   1.980  1.00  0.00     0.040 A 
HETATM   17  C12 UNK     1      -2.625   0.499   1.532  1.00  0.00     0.015 A 
BRANCH  14  18
HETATM   18  O5  UNK     1      -3.311  -3.596   1.482  1.00  0.00    -0.353 OA
HETATM   19  C18 UNK     1      -2.945  -4.328   2.650  1.00  0.00     0.210 C 
ENDBRANCH  14  18
BRANCH  15  20
HETATM   20  O6  UNK     1      -5.276  -1.860   2.405  1.00  0.00    -0.353 OA
HETATM   21  C19 UNK     1      -6.316  -1.996   1.438  1.00  0.00     0.210 C 
ENDBRANCH  15  20
ENDBRANCH   4  12
BRANCH  10  22
HETATM   22  O2  UNK     1       3.136   2.140  -4.083  1.00  0.00    -0.353 OA
HETATM   23  C16 UNK     1       3.655   1.105  -4.916  1.00  0.00     0.210 C 
ENDBRANCH  10  22
BRANCH  11  24
HETATM   24  O3  UNK     1       5.046   2.366  -2.080  1.00  0.00    -0.353 OA
HETATM   25  C17 UNK     1       5.269   3.772  -1.997  1.00  0.00     0.210 C 
ENDBRANCH  11  24
TORSDOF 5
