REMARK  7 active torsions:
REMARK  status: ('A' for Active; 'I' for Inactive)
REMARK    1  A    between atoms: C10_19  and  O2_5 
REMARK    2  A    between atoms: C21_30  and  O4_7 
REMARK    3  A    between atoms: C23_32  and  O5_8 
REMARK    4  A    between atoms: C6_15  and  N1_9 
REMARK    5  A    between atoms: C6_15  and  C8_17 
REMARK    6  A    between atoms: C15_24  and  C17_26 
REMARK    7  A    between atoms: C16_25  and  C18_27 
ROOT
HETATM    1  O1  UNK     1       0.722   0.402   0.417  1.00  0.00    -0.303 OA
HETATM    2  O3  UNK     1      -0.737  -2.626  -1.875  1.00  0.00    -0.286 OA
HETATM    3  C8  UNK     1      -0.326   2.015  -0.947  1.00  0.00     0.038 A 
HETATM    4  C9  UNK     1      -0.061   0.678  -0.670  1.00  0.00     0.101 A 
HETATM    5  C10 UNK     1      -1.114   2.369  -2.037  1.00  0.00     0.076 A 
HETATM    6  C11 UNK     1      -0.588  -0.312  -1.491  1.00  0.00     0.050 A 
HETATM    7  C12 UNK     1      -1.642   1.374  -2.860  1.00  0.00     0.038 A 
HETATM    8  C13 UNK     1      -1.381   0.030  -2.590  1.00  0.00     0.021 A 
HETATM    9  C14 UNK     1      -0.297  -1.718  -1.181  1.00  0.00     0.198 A 
HETATM   10  C15 UNK     1       0.556  -1.977   0.014  1.00  0.00     0.064 A 
HETATM   11  C16 UNK     1       1.006  -0.922   0.727  1.00  0.00     0.174 A 
ENDROOT
BRANCH  10  12
HETATM   12  C17 UNK     1       0.879  -3.352   0.375  1.00  0.00    -0.016 A 
HETATM   13  C19 UNK     1       0.045  -4.057   1.240  1.00  0.00     0.052 A 
HETATM   14  C21 UNK     1       0.353  -5.373   1.585  1.00  0.00     0.102 A 
HETATM   15  C23 UNK     1       1.495  -5.981   1.064  1.00  0.00     0.101 A 
HETATM   16  C22 UNK     1       2.329  -5.273   0.198  1.00  0.00     0.040 A 
HETATM   17  C20 UNK     1       2.020  -3.957  -0.147  1.00  0.00     0.015 A 
BRANCH  14  18
HETATM   18  O4  UNK     1      -0.467  -6.054   2.433  1.00  0.00    -0.353 OA
HETATM   19  C24 UNK     1      -0.181  -5.958   3.827  1.00  0.00     0.210 C 
ENDBRANCH  14  18
BRANCH  15  20
HETATM   20  O5  UNK     1       1.807  -7.265   1.394  1.00  0.00    -0.353 OA
HETATM   21  C25 UNK     1       2.992  -7.813   0.818  1.00  0.00     0.210 C 
ENDBRANCH  15  20
ENDBRANCH  10  12
BRANCH  11  22
HETATM   22  C18 UNK     1       1.873  -1.024   1.951  1.00  0.00     0.440 C 
HETATM   23  F1  UNK     1       2.140  -2.311   2.240  1.00  0.00    -0.164 F 
HETATM   24  F2  UNK     1       3.044  -0.386   1.762  1.00  0.00    -0.164 F 
HETATM   25  F3  UNK     1       1.264  -0.473   3.018  1.00  0.00    -0.164 F 
ENDBRANCH  11  22
BRANCH   3  26
HETATM   26  C6  UNK     1       0.241   3.095  -0.065  1.00  0.00     0.316 C 
BRANCH  26  27
HETATM   27  N1  UNK     1       0.083   2.777   1.355  1.00  0.00     0.092 N 
HETATM   28  C4  UNK     1      -1.338   2.624   1.692  1.00  0.00     0.273 C 
HETATM   29  C2  UNK     1      -1.518   2.239   3.162  1.00  0.00     0.034 C 
HETATM   30  C1  UNK     1      -0.851   3.259   4.091  1.00  0.00    -0.015 C 
HETATM   31  C3  UNK     1       0.609   3.463   3.673  1.00  0.00     0.034 C 
HETATM   32  C7  UNK     1      -0.947   2.817   5.549  1.00  0.00     0.010 C 
HETATM   33  C5  UNK     1       0.718   3.809   2.186  1.00  0.00     0.273 C 
ENDBRANCH  26  27
ENDBRANCH   3  26
BRANCH   5  34
HETATM   34  O2  UNK     1      -1.381   3.675  -2.320  1.00  0.00    -0.360 OA
HETATM   35  H17 UNK     1      -1.943   3.720  -3.112  1.00  0.00     0.217 HD
ENDBRANCH   5  34
TORSDOF 7
