REMARK  10 active torsions:
REMARK  status: ('A' for Active; 'I' for Inactive)
REMARK    1  A    between atoms: C7_17  and  O1_1 
REMARK    2  A    between atoms: C8_18  and  O1_1 
REMARK    3  A    between atoms: C12_22  and  O2_2 
REMARK    4  A    between atoms: C5_15  and  O2_2 
REMARK    5  A    between atoms: C2_12  and  N1_9 
REMARK       I    between atoms: C8_18  and  N1_9 
REMARK    6  A    between atoms: C27_37  and  N2_10 
REMARK    7  A    between atoms: C1_11  and  C2_12 
REMARK    8  A    between atoms: C1_11  and  C3_13 
REMARK    9  A    between atoms: C2_12  and  C5_15 
REMARK   10  A    between atoms: C16_26  and  C21_31 
ROOT
HETATM    1  O4  UNK     1       1.750   0.815   0.229  1.00  0.00    -0.313 OA
HETATM    2  O6  UNK     1       0.972   2.095  -3.553  1.00  0.00    -0.286 OA
HETATM    3  C12 UNK     1      -1.722  -0.250  -0.038  1.00  0.00     0.082 A 
HETATM    4  C13 UNK     1       0.186   1.036  -1.608  1.00  0.00     0.049 A 
HETATM    5  C14 UNK     1       0.512   0.621  -0.322  1.00  0.00     0.092 A 
HETATM    6  C15 UNK     1      -0.442  -0.023   0.467  1.00  0.00     0.075 A 
HETATM    7  C16 UNK     1       2.547   1.899  -1.781  1.00  0.00     0.054 A 
HETATM    8  C17 UNK     1      -2.049   0.166  -1.329  1.00  0.00     0.038 A 
HETATM    9  C18 UNK     1       1.211   1.711  -2.415  1.00  0.00     0.198 A 
HETATM   10  C19 UNK     1      -1.095   0.811  -2.118  1.00  0.00     0.021 A 
HETATM   11  C20 UNK     1       2.732   1.450  -0.521  1.00  0.00     0.065 A 
HETATM   12  C22 UNK     1       4.017   1.568   0.249  1.00  0.00     0.077 C 
ENDROOT
BRANCH   3  13
HETATM   13  O2  UNK     1      -2.680  -0.895   0.750  1.00  0.00    -0.277 OA
BRANCH  13  14
HETATM   14  C5  UNK     1      -2.674  -2.276   0.598  1.00  0.00     0.287 C 
HETATM   15  O3  UNK     1      -1.929  -2.913  -0.140  1.00  0.00    -0.262 OA
BRANCH  14  16
HETATM   16  C2  UNK     1      -3.733  -2.938   1.476  1.00  0.00     0.190 C 
BRANCH  16  17
HETATM   17  C1  UNK     1      -4.745  -3.739   0.621  1.00  0.00     0.014 C 
HETATM   18  C4  UNK     1      -5.437  -2.858  -0.428  1.00  0.00     0.012 C 
BRANCH  17  19
HETATM   19  C3  UNK     1      -5.767  -4.459   1.527  1.00  0.00     0.002 C 
HETATM   20  C6  UNK     1      -6.717  -5.374   0.766  1.00  0.00     0.005 C 
ENDBRANCH  17  19
ENDBRANCH  16  17
BRANCH  16  21
HETATM   21  N1  UNK     1      -4.380  -1.984   2.341  1.00  0.00    -0.323 N 
HETATM   22  C8  UNK     1      -3.873  -1.588   3.563  1.00  0.00     0.362 C 
HETATM   23  O5  UNK     1      -2.827  -1.985   4.066  1.00  0.00    -0.238 OA
HETATM   24  H8  UNK     1      -5.229  -1.528   2.020  1.00  0.00     0.165 HD
BRANCH  22  25
HETATM   25  O1  UNK     1      -4.714  -0.678   4.140  1.00  0.00    -0.294 OA
BRANCH  25  26
HETATM   26  C7  UNK     1      -4.311  -0.178   5.420  1.00  0.00     0.061 C 
HETATM   27  C10 UNK     1      -4.219  -1.352   6.394  1.00  0.00     0.046 C 
HETATM   28  C11 UNK     1      -5.372   0.819   5.880  1.00  0.00     0.046 C 
HETATM   29  C9  UNK     1      -2.955   0.511   5.267  1.00  0.00     0.046 C 
ENDBRANCH  25  26
ENDBRANCH  22  25
ENDBRANCH  16  21
ENDBRANCH  14  16
ENDBRANCH  13  14
ENDBRANCH   3  13
BRANCH   7  30
HETATM   30  C21 UNK     1       3.606   2.560  -2.532  1.00  0.00    -0.019 A 
HETATM   31  C24 UNK     1       4.472   1.808  -3.325  1.00  0.00     0.015 A 
HETATM   32  C26 UNK     1       5.487   2.440  -4.043  1.00  0.00     0.037 A 
HETATM   33  C27 UNK     1       5.636   3.825  -3.968  1.00  0.00     0.102 A 
HETATM   34  C25 UNK     1       4.770   4.578  -3.174  1.00  0.00     0.037 A 
HETATM   35  C23 UNK     1       3.755   3.945  -2.456  1.00  0.00     0.015 A 
BRANCH  33  36
HETATM   36  N2  UNK     1       6.669   4.469  -4.699  1.00  0.00    -0.116 N 
HETATM   37  O7  UNK     1       6.787   5.715  -4.617  1.00  0.00    -0.532 OA
HETATM   38  O8  UNK     1       7.437   3.773  -5.406  1.00  0.00    -0.532 OA
ENDBRANCH  33  36
ENDBRANCH   7  30
TORSDOF 10
