REMARK  6 active torsions:
REMARK  status: ('A' for Active; 'I' for Inactive)
REMARK    1  A    between atoms: C5_11  and  N1_4 
REMARK    2  A    between atoms: C6_12  and  N2_5 
REMARK    3  A    between atoms: C17_23  and  N3_6 
REMARK       I    between atoms: C9_15  and  N3_6 
REMARK    4  A    between atoms: C5_11  and  C7_13 
REMARK    5  A    between atoms: C6_12  and  C9_15 
REMARK    6  A    between atoms: C21_27  and  C22_28 
ROOT
HETATM    1  N1  UNK     1       1.216   0.273  -1.639  1.00  0.00     0.096 N 
HETATM    2  N2  UNK     1      -1.532  -0.241  -0.901  1.00  0.00     0.100 N 
HETATM    3  C1  UNK     1       0.852  -0.882  -0.809  1.00  0.00     0.303 C 
HETATM    4  C2  UNK     1       0.107   0.632  -2.531  1.00  0.00     0.303 C 
HETATM    5  C3  UNK     1      -0.423  -0.599  -0.008  1.00  0.00     0.303 C 
HETATM    6  C4  UNK     1      -1.169   0.915  -1.731  1.00  0.00     0.303 C 
ENDROOT
BRANCH   1   7
HETATM    7  C5  UNK     1       2.431  -0.000  -2.404  1.00  0.00     0.312 C 
BRANCH   7   8
HETATM    8  C7  UNK     1       3.132   1.249  -2.811  1.00  0.00    -0.011 A 
HETATM    9  C10 UNK     1       2.850   1.855  -3.973  1.00  0.00     0.092 A 
HETATM   10  C13 UNK     1       3.516   3.092  -4.416  1.00  0.00     0.288 A 
HETATM   11  O1  UNK     1       4.473   3.623  -3.566  1.00  0.00    -0.275 OA
HETATM   12  O3  UNK     1       3.233   3.618  -5.487  1.00  0.00    -0.260 OA
HETATM   13  C11 UNK     1       4.790   3.009  -2.338  1.00  0.00     0.090 A 
HETATM   14  C8  UNK     1       4.151   1.837  -1.930  1.00  0.00     0.006 A 
HETATM   15  C14 UNK     1       5.770   3.632  -1.562  1.00  0.00     0.045 A 
HETATM   16  C12 UNK     1       4.523   1.289  -0.696  1.00  0.00     0.015 A 
HETATM   17  C16 UNK     1       5.504   1.902   0.093  1.00  0.00     0.007 A 
HETATM   18  C15 UNK     1       6.126   3.072  -0.340  1.00  0.00    -0.059 A 
HETATM   19  C19 UNK     1       7.169   3.720   0.506  1.00  0.00     0.048 C 
ENDBRANCH   7   8
ENDBRANCH   1   7
BRANCH   2  20
HETATM   20  C6  UNK     1      -2.748   0.030  -0.137  1.00  0.00     0.375 C 
BRANCH  20  21
HETATM   21  C9  UNK     1      -3.370  -1.283   0.306  1.00  0.00     0.250 C 
HETATM   22  O2  UNK     1      -3.253  -2.320  -0.338  1.00  0.00    -0.271 OA
HETATM   23  N3  UNK     1      -4.051  -1.111   1.509  1.00  0.00    -0.326 N 
HETATM   24  H15 UNK     1      -4.058  -0.180   1.921  1.00  0.00     0.169 HD
BRANCH  23  25
HETATM   25  C17 UNK     1      -4.761  -2.089   2.246  1.00  0.00     0.035 A 
HETATM   26  C18 UNK     1      -5.390  -1.741   3.442  1.00  0.00     0.036 A 
HETATM   27  C21 UNK     1      -6.089  -2.706   4.168  1.00  0.00    -0.056 A 
HETATM   28  C24 UNK     1      -6.159  -4.017   3.698  1.00  0.00     0.007 A 
HETATM   29  C23 UNK     1      -5.530  -4.365   2.503  1.00  0.00     0.003 A 
HETATM   30  C20 UNK     1      -4.831  -3.401   1.777  1.00  0.00     0.029 A 
BRANCH  27  31
HETATM   31  C22 UNK     1      -6.762  -2.335   5.446  1.00  0.00     0.034 C 
HETATM   32  C25 UNK     1      -5.847  -2.507   6.655  1.00  0.00     0.010 C 
ENDBRANCH  27  31
ENDBRANCH  23  25
ENDBRANCH  20  21
ENDBRANCH   2  20
TORSDOF 6
