REMARK  3 active torsions:
REMARK  status: ('A' for Active; 'I' for Inactive)
REMARK    1  A    between atoms: C11_15  and  O3_3 
REMARK    2  A    between atoms: C15_19  and  O4_4 
REMARK    3  A    between atoms: C1_5  and  C3_7 
ROOT
HETATM    1  O1  UNK     1      -0.478   0.350   0.879  1.00  0.00    -0.309 OA
HETATM    2  O2  UNK     1      -3.149  -1.987  -1.122  1.00  0.00    -0.287 OA
HETATM    3  C1  UNK     1      -0.367   0.122  -0.484  1.00  0.00     0.090 A 
HETATM    4  C2  UNK     1      -2.475  -1.032   0.932  1.00  0.00     0.048 A 
HETATM    5  C4  UNK     1      -1.525  -0.225   1.555  1.00  0.00     0.090 A 
HETATM    6  C5  UNK     1      -1.213  -0.641  -1.194  1.00  0.00     0.093 A 
HETATM    7  C6  UNK     1      -2.355  -1.284  -0.512  1.00  0.00     0.187 A 
HETATM    8  C8  UNK     1      -3.520  -1.592   1.671  1.00  0.00     0.018 A 
HETATM    9  C10 UNK     1      -1.614   0.028   2.924  1.00  0.00     0.038 A 
HETATM   10  C13 UNK     1      -3.608  -1.336   3.040  1.00  0.00     0.001 A 
HETATM   11  C14 UNK     1      -2.657  -0.528   3.665  1.00  0.00     0.003 A 
ENDROOT
BRANCH   3  12
HETATM   12  C3  UNK     1       0.796   0.782  -1.110  1.00  0.00     0.001 A 
HETATM   13  C7  UNK     1       1.276   1.991  -0.600  1.00  0.00     0.053 A 
HETATM   14  C11 UNK     1       2.375   2.614  -1.191  1.00  0.00     0.099 A 
HETATM   15  C15 UNK     1       2.998   2.030  -2.294  1.00  0.00     0.098 A 
HETATM   16  C12 UNK     1       2.522   0.823  -2.806  1.00  0.00     0.040 A 
HETATM   17  C9  UNK     1       1.423   0.200  -2.215  1.00  0.00     0.017 A 
BRANCH  14  18
HETATM   18  O3  UNK     1       2.830   3.793  -0.683  1.00  0.00    -0.358 OA
HETATM   19  H9  UNK     1       3.333   4.270  -1.363  1.00  0.00     0.217 HD
ENDBRANCH  14  18
BRANCH  15  20
HETATM   20  O4  UNK     1       4.072   2.630  -2.879  1.00  0.00    -0.358 OA
HETATM   21  H10 UNK     1       4.497   3.230  -2.246  1.00  0.00     0.217 HD
ENDBRANCH  15  20
ENDBRANCH   3  12
TORSDOF 3
