REMARK  6 active torsions:
REMARK  status: ('A' for Active; 'I' for Inactive)
REMARK    1  A    between atoms: C2_8  and  O2_2 
REMARK    2  A    between atoms: C7_13  and  O2_2 
REMARK    3  A    between atoms: C17_23  and  O4_4 
REMARK    4  A    between atoms: C18_24  and  O5_5 
REMARK    5  A    between atoms: C1_7  and  C5_11 
REMARK    6  A    between atoms: C18_24  and  C7_13 
ROOT
HETATM    1  O1  UNK     1      -0.290   1.287   1.640  1.00  0.00    -0.306 OA
HETATM    2  O3  UNK     1      -2.333  -1.990   0.338  1.00  0.00    -0.284 OA
HETATM    3  C1  UNK     1      -0.043   0.728   0.396  1.00  0.00     0.123 A 
HETATM    4  C2  UNK     1      -0.675  -0.355  -0.093  1.00  0.00     0.155 A 
HETATM    5  C3  UNK     1      -1.992  -0.396   2.043  1.00  0.00     0.051 A 
HETATM    6  C4  UNK     1      -1.256   0.722   2.431  1.00  0.00     0.090 A 
HETATM    7  C6  UNK     1      -1.724  -1.003   0.730  1.00  0.00     0.221 A 
HETATM    8  C8  UNK     1      -2.965  -0.929   2.891  1.00  0.00     0.018 A 
HETATM    9  C9  UNK     1      -1.490   1.314   3.672  1.00  0.00     0.038 A 
HETATM   10  C12 UNK     1      -3.197  -0.335   4.132  1.00  0.00     0.001 A 
HETATM   11  C13 UNK     1      -2.461   0.785   4.522  1.00  0.00     0.003 A 
ENDROOT
BRANCH   3  12
HETATM   12  C5  UNK     1       1.015   1.430  -0.351  1.00  0.00     0.001 A 
HETATM   13  C10 UNK     1       0.686   2.477  -1.212  1.00  0.00     0.017 A 
HETATM   14  C15 UNK     1       1.689   3.142  -1.918  1.00  0.00     0.037 A 
HETATM   15  C17 UNK     1       3.022   2.759  -1.763  1.00  0.00     0.068 A 
HETATM   16  C16 UNK     1       3.351   1.713  -0.902  1.00  0.00     0.037 A 
HETATM   17  C11 UNK     1       2.348   1.048  -0.196  1.00  0.00     0.017 A 
BRANCH  15  18
HETATM   18  O4  UNK     1       4.000   3.408  -2.452  1.00  0.00    -0.356 OA
HETATM   19  C19 UNK     1       5.341   2.967  -2.246  1.00  0.00     0.210 C 
ENDBRANCH  15  18
ENDBRANCH   3  12
BRANCH   4  20
HETATM   20  O2  UNK     1      -0.382  -0.905  -1.322  1.00  0.00    -0.329 OA
BRANCH  20  21
HETATM   21  C7  UNK     1      -1.520  -0.892  -2.164  1.00  0.00     0.222 C 
HETATM   22  C14 UNK     1      -1.178  -0.080  -3.401  1.00  0.00     0.051 C 
BRANCH  21  23
HETATM   23  C18 UNK     1      -1.867  -2.321  -2.522  1.00  0.00     0.170 C 
HETATM   24  O6  UNK     1      -1.230  -3.304  -2.169  1.00  0.00    -0.648 OA
BRANCH  23  25
HETATM   25  O5  UNK     1      -2.995  -2.403  -3.275  1.00  0.00    -0.774 OA
HETATM   26  H13 UNK     1      -3.220  -3.332  -3.497  1.00  0.00     0.167 HD
ENDBRANCH  23  25
ENDBRANCH  21  23
ENDBRANCH  20  21
ENDBRANCH   4  20
TORSDOF 6
