REMARK  3 active torsions:
REMARK  status: ('A' for Active; 'I' for Inactive)
REMARK    1  A    between atoms: C13_17  and  O2_2 
REMARK    2  A    between atoms: C11_15  and  O4_4 
REMARK    3  A    between atoms: C2_6  and  C4_8 
ROOT
HETATM    1  O1  UNK     1      -0.369   0.299   0.544  1.00  0.00    -0.309 OA
HETATM    2  O3  UNK     1      -3.029  -1.987  -1.528  1.00  0.00    -0.287 OA
HETATM    3  C1  UNK     1      -2.395  -1.041   0.542  1.00  0.00     0.048 A 
HETATM    4  C2  UNK     1      -0.223   0.064  -0.814  1.00  0.00     0.090 A 
HETATM    5  C3  UNK     1      -1.447  -0.251   1.191  1.00  0.00     0.093 A 
HETATM    6  C5  UNK     1      -2.238  -1.300  -0.897  1.00  0.00     0.187 A 
HETATM    7  C6  UNK     1      -1.064  -0.683  -1.547  1.00  0.00     0.093 A 
HETATM    8  C7  UNK     1      -3.473  -1.576   1.252  1.00  0.00     0.021 A 
HETATM    9  C8  UNK     1      -1.571   0.008   2.556  1.00  0.00     0.074 A 
HETATM   10  C11 UNK     1      -2.646  -0.525   3.268  1.00  0.00     0.068 A 
HETATM   11  C12 UNK     1      -3.595  -1.315   2.617  1.00  0.00     0.037 A 
ENDROOT
BRANCH   4  12
HETATM   12  C4  UNK     1       0.972   0.698  -1.408  1.00  0.00     0.001 A 
HETATM   13  C10 UNK     1       1.617   0.099  -2.492  1.00  0.00     0.014 A 
HETATM   14  C14 UNK     1       2.745   0.696  -3.054  1.00  0.00     0.004 A 
HETATM   15  C15 UNK     1       3.232   1.895  -2.533  1.00  0.00     0.037 A 
HETATM   16  C13 UNK     1       2.590   2.496  -1.450  1.00  0.00     0.069 A 
HETATM   17  C9  UNK     1       1.462   1.898  -0.888  1.00  0.00     0.051 A 
BRANCH  16  18
HETATM   18  O2  UNK     1       3.064   3.667  -0.943  1.00  0.00    -0.356 OA
HETATM   19  C16 UNK     1       4.220   4.224  -1.567  1.00  0.00     0.210 C 
ENDBRANCH  16  18
ENDBRANCH   4  12
BRANCH  10  20
HETATM   20  O4  UNK     1      -2.770  -0.273   4.600  1.00  0.00    -0.361 OA
HETATM   21  H9  UNK     1      -2.029   0.288   4.885  1.00  0.00     0.217 HD
ENDBRANCH  10  20
TORSDOF 3
