REMARK  5 active torsions:
REMARK  status: ('A' for Active; 'I' for Inactive)
REMARK    1  A    between atoms: C17_26  and  O6_6 
REMARK    2  A    between atoms: C10_19  and  N1_8 
REMARK       I    between atoms: C8_17  and  N1_8 
REMARK    3  A    between atoms: C7_16  and  N2_9 
REMARK    4  A    between atoms: C3_12  and  C8_17 
REMARK    5  A    between atoms: C14_23  and  C17_26 
ROOT
HETATM    1  O1  UNK     1       0.788   0.171  -2.822  1.00  0.00    -0.274 OA
HETATM    2  O3  UNK     1      -0.858  -1.106  -1.884  1.00  0.00    -0.259 OA
HETATM    3  C1  UNK     1       2.363   1.343  -1.387  1.00  0.00     0.001 A 
HETATM    4  C2  UNK     1       1.902   1.018  -2.659  1.00  0.00     0.089 A 
HETATM    5  C3  UNK     1       0.619  -0.010  -0.389  1.00  0.00     0.108 A 
HETATM    6  C4  UNK     1       1.677   0.793  -0.228  1.00  0.00     0.037 A 
HETATM    7  C5  UNK     1       3.470   2.186  -1.267  1.00  0.00     0.050 A 
HETATM    8  C6  UNK     1       2.513   1.512  -3.810  1.00  0.00     0.041 A 
HETATM    9  C7  UNK     1       4.095   2.689  -2.412  1.00  0.00     0.103 A 
HETATM   10  C9  UNK     1       0.111  -0.369  -1.732  1.00  0.00     0.304 A 
HETATM   11  C11 UNK     1       3.617   2.352  -3.681  1.00  0.00     0.039 A 
ENDROOT
BRANCH   5  12
HETATM   12  C8  UNK     1      -0.005  -0.515   0.840  1.00  0.00     0.262 C 
HETATM   13  O2  UNK     1       0.681  -0.687   1.847  1.00  0.00    -0.267 OA
HETATM   14  N1  UNK     1      -1.365  -0.741   0.682  1.00  0.00    -0.323 N 
HETATM   15  H5  UNK     1      -1.790  -0.526  -0.217  1.00  0.00     0.169 HD
BRANCH  14  16
HETATM   16  C10 UNK     1      -2.279  -1.225   1.650  1.00  0.00     0.036 A 
HETATM   17  C12 UNK     1      -3.609  -1.387   1.304  1.00  0.00     0.048 A 
HETATM   18  C14 UNK     1      -4.508  -1.864   2.258  1.00  0.00     0.039 A 
HETATM   19  C16 UNK     1      -4.063  -2.171   3.544  1.00  0.00     0.018 A 
HETATM   20  C15 UNK     1      -2.719  -2.001   3.876  1.00  0.00     0.003 A 
HETATM   21  C13 UNK     1      -1.820  -1.525   2.922  1.00  0.00     0.029 A 
BRANCH  18  22
HETATM   22  C17 UNK     1      -5.910  -2.041   1.913  1.00  0.00     0.176 C 
HETATM   23  O7  UNK     1      -6.411  -1.802   0.809  1.00  0.00    -0.646 OA
BRANCH  22  24
HETATM   24  O6  UNK     1      -6.647  -2.514   2.955  1.00  0.00    -0.773 OA
HETATM   25  H10 UNK     1      -7.590  -2.631   2.711  1.00  0.00     0.167 HD
ENDBRANCH  22  24
ENDBRANCH  18  22
ENDBRANCH  14  16
ENDBRANCH   5  12
BRANCH   9  26
HETATM   26  N2  UNK     1       5.220   3.547  -2.286  1.00  0.00    -0.116 N 
HETATM   27  O4  UNK     1       5.767   3.989  -3.324  1.00  0.00    -0.532 OA
HETATM   28  O5  UNK     1       5.635   3.839  -1.138  1.00  0.00    -0.532 OA
ENDBRANCH   9  26
TORSDOF 5
