REMARK  4 active torsions:
REMARK  status: ('A' for Active; 'I' for Inactive)
REMARK    1  A    between atoms: C14_18  and  O3_3 
REMARK    2  A    between atoms: C3_7  and  C8_12 
REMARK    3  A    between atoms: C10_14  and  C8_12 
REMARK    4  A    between atoms: C11_15  and  C9_13 
ROOT
HETATM    1  O4  UNK     1       0.751   2.733   1.607  1.00  0.00    -0.288 OA
HETATM    2  C8  UNK     1       0.654   1.880   0.711  1.00  0.00     0.182 C 
ENDROOT
BRANCH   2   3
HETATM    3  C10 UNK     1      -0.367   0.782   0.810  1.00  0.00     0.056 C 
HETATM    4  C11 UNK     1      -1.189   0.706   1.867  1.00  0.00     0.015 C 
BRANCH   4   5
HETATM    5  C9  UNK     1      -2.209  -0.339   2.059  1.00  0.00    -0.034 A 
HETATM    6  C12 UNK     1      -2.654  -1.062   0.964  1.00  0.00     0.048 A 
HETATM    7  C14 UNK     1      -3.622  -2.051   1.146  1.00  0.00     0.069 A 
HETATM    8  C16 UNK     1      -4.131  -2.302   2.420  1.00  0.00     0.037 A 
HETATM    9  C15 UNK     1      -3.673  -1.565   3.512  1.00  0.00     0.004 A 
HETATM   10  C13 UNK     1      -2.705  -0.577   3.330  1.00  0.00     0.011 A 
BRANCH   7  11
HETATM   11  O3  UNK     1      -4.070  -2.769   0.080  1.00  0.00    -0.356 OA
HETATM   12  C17 UNK     1      -5.060  -3.763   0.337  1.00  0.00     0.210 C 
ENDBRANCH   7  11
ENDBRANCH   4   5
ENDBRANCH   2   3
BRANCH   2  13
HETATM   13  C3  UNK     1       1.544   1.903  -0.439  1.00  0.00     0.017 A 
HETATM   14  C4  UNK     1       1.107   1.392  -1.663  1.00  0.00     0.055 A 
HETATM   15  C1  UNK     1       1.986   1.435  -2.726  1.00  0.00     0.105 A 
HETATM   16  O1  UNK     1       1.738   0.984  -3.986  1.00  0.00    -0.323 OA
HETATM   17  C2  UNK     1       3.251   1.960  -2.598  1.00  0.00     0.105 A 
HETATM   18  C7  UNK     1       2.989   1.286  -4.637  1.00  0.00     0.352 A 
HETATM   19  O2  UNK     1       3.954   1.904  -3.762  1.00  0.00    -0.323 OA
HETATM   20  C5  UNK     1       3.707   2.471  -1.401  1.00  0.00     0.040 A 
HETATM   21  C6  UNK     1       2.837   2.440  -0.309  1.00  0.00     0.018 A 
ENDBRANCH   2  13
TORSDOF 4
