REMARK  7 active torsions:
REMARK  status: ('A' for Active; 'I' for Inactive)
REMARK    1  A    between atoms: C2_5  and  O1_1 
REMARK    2  A    between atoms: C3_6  and  O1_1 
REMARK    3  A    between atoms: C4_7  and  O2_2 
REMARK    4  A    between atoms: C6_9  and  O2_2 
REMARK    5  A    between atoms: C1_4  and  C7_10 
REMARK    6  A    between atoms: C2_5  and  C4_7 
REMARK    7  A    between atoms: C11_14  and  C13_16 
ROOT
HETATM    1  N1  UNK     1      -6.035  -1.067   3.242  1.00  0.00    -0.191 NA
HETATM    2  C7  UNK     1      -2.609  -0.908   2.891  1.00  0.00     0.035 C 
HETATM    3  C11 UNK     1      -3.691  -1.213   2.126  1.00  0.00     0.055 C 
HETATM    4  C24 UNK     1      -4.985  -1.130   2.753  1.00  0.00     0.100 C 
ENDROOT
BRANCH   3   5
HETATM    5  C13 UNK     1      -3.611  -1.605   0.728  1.00  0.00    -0.015 A 
HETATM    6  C19 UNK     1      -3.657  -0.635  -0.273  1.00  0.00     0.013 A 
HETATM    7  C21 UNK     1      -3.578  -1.012  -1.614  1.00  0.00     0.001 A 
HETATM    8  C23 UNK     1      -3.451  -2.359  -1.953  1.00  0.00     0.000 A 
HETATM    9  C22 UNK     1      -3.405  -3.329  -0.952  1.00  0.00     0.001 A 
HETATM   10  C20 UNK     1      -3.484  -2.952   0.389  1.00  0.00     0.013 A 
ENDBRANCH   3   5
BRANCH   2  11
HETATM   11  C1  UNK     1      -1.208  -0.953   2.448  1.00  0.00    -0.032 A 
HETATM   12  C5  UNK     1      -0.635   0.176   1.880  1.00  0.00     0.048 A 
HETATM   13  C3  UNK     1       0.694   0.133   1.460  1.00  0.00     0.069 A 
HETATM   14  C9  UNK     1       1.436  -1.038   1.613  1.00  0.00     0.037 A 
HETATM   15  C12 UNK     1       0.849  -2.167   2.186  1.00  0.00     0.004 A 
HETATM   16  C8  UNK     1      -0.480  -2.124   2.606  1.00  0.00     0.011 A 
BRANCH  13  17
HETATM   17  O1  UNK     1       1.268   1.233   0.901  1.00  0.00    -0.349 OA
BRANCH  17  18
HETATM   18  C2  UNK     1       0.410   2.117   0.181  1.00  0.00     0.202 C 
BRANCH  18  19
HETATM   19  C4  UNK     1       1.211   2.806  -0.907  1.00  0.00     0.202 C 
BRANCH  19  20
HETATM   20  O2  UNK     1       1.758   1.821  -1.775  1.00  0.00    -0.349 OA
BRANCH  20  21
HETATM   21  C6  UNK     1       2.937   2.134  -2.399  1.00  0.00     0.068 A 
HETATM   22  C14 UNK     1       3.225   3.460  -2.700  1.00  0.00     0.037 A 
HETATM   23  C16 UNK     1       4.426   3.780  -3.334  1.00  0.00     0.009 A 
HETATM   24  C10 UNK     1       5.330   2.770  -3.663  1.00  0.00    -0.062 A 
HETATM   25  C17 UNK     1       5.034   1.442  -3.358  1.00  0.00     0.009 A 
HETATM   26  C18 UNK     1       6.613   3.112  -4.342  1.00  0.00     0.048 C 
HETATM   27  C15 UNK     1       3.834   1.123  -2.724  1.00  0.00     0.037 A 
ENDBRANCH  20  21
ENDBRANCH  19  20
ENDBRANCH  18  19
ENDBRANCH  17  18
ENDBRANCH  13  17
ENDBRANCH   2  11
TORSDOF 7
