REMARK  3 active torsions:
REMARK  status: ('A' for Active; 'I' for Inactive)
REMARK    1  A    between atoms: C10_13  and  O2_2 
REMARK    2  A    between atoms: C13_16  and  O2_2 
REMARK    3  A    between atoms: C3_6  and  C5_8 
ROOT
HETATM    1  O1  UNK     1       0.255  -0.176   1.448  1.00  0.00    -0.274 OA
HETATM    2  O3  UNK     1      -0.991  -0.968   3.172  1.00  0.00    -0.259 OA
HETATM    3  C1  UNK     1      -1.889  -0.776  -0.301  1.00  0.00    -0.037 A 
HETATM    4  C2  UNK     1      -0.636  -0.187  -0.816  1.00  0.00     0.005 A 
HETATM    5  C3  UNK     1      -1.996  -1.062   1.014  1.00  0.00     0.024 A 
HETATM    6  C4  UNK     1       0.393   0.094   0.078  1.00  0.00     0.092 A 
HETATM    7  C6  UNK     1      -0.404   0.104  -2.169  1.00  0.00     0.017 A 
HETATM    8  C7  UNK     1      -0.895  -0.746   1.969  1.00  0.00     0.295 A 
HETATM    9  C8  UNK     1      -2.995  -1.008  -1.301  1.00  0.00     0.050 C 
HETATM   10  C9  UNK     1       1.609   0.651  -0.325  1.00  0.00     0.075 A 
HETATM   11  C10 UNK     1       1.815   0.937  -1.670  1.00  0.00     0.071 A 
HETATM   12  C11 UNK     1       0.809   0.662  -2.592  1.00  0.00     0.038 A 
ENDROOT
BRANCH  11  13
HETATM   13  O2  UNK     1       2.992   1.478  -2.083  1.00  0.00    -0.351 OA
BRANCH  13  14
HETATM   14  C13 UNK     1       3.683   2.317  -1.157  1.00  0.00     0.171 C 
HETATM   15  C14 UNK     1       4.480   3.348  -1.926  1.00  0.00     0.034 C 
ENDBRANCH  13  14
ENDBRANCH  11  13
BRANCH   5  16
HETATM   16  C5  UNK     1      -3.190  -1.720   1.659  1.00  0.00     0.041 C 
HETATM   17  C12 UNK     1      -4.176  -0.671   2.110  1.00  0.00     0.010 C 
ENDBRANCH   5  16
TORSDOF 3
