REMARK  5 active torsions:
REMARK  status: ('A' for Active; 'I' for Inactive)
REMARK    1  A    between atoms: C16_22  and  O2_3 
REMARK    2  A    between atoms: C8_14  and  O2_3 
REMARK    3  A    between atoms: C17_23  and  O4_5 
REMARK    4  A    between atoms: C2_8  and  C4_10 
REMARK    5  A    between atoms: C16_22  and  C17_23 
ROOT
HETATM    1 Cl1  UNK     1       2.032   2.018   1.460  1.00  0.00    -0.081 Cl
HETATM    2  O1  UNK     1      -1.184  -1.484  -2.031  1.00  0.00    -0.275 OA
HETATM    3  O3  UNK     1      -3.040  -2.775  -2.373  1.00  0.00    -0.260 OA
HETATM    4  C1  UNK     1      -0.895  -0.367   0.118  1.00  0.00     0.011 A 
HETATM    5  C2  UNK     1      -2.166  -0.947   0.578  1.00  0.00    -0.007 A 
HETATM    6  C3  UNK     1      -0.444  -0.652  -1.170  1.00  0.00     0.093 A 
HETATM    7  C5  UNK     1      -0.107   0.468   0.920  1.00  0.00     0.042 A 
HETATM    8  C6  UNK     1       0.752  -0.134  -1.669  1.00  0.00     0.076 A 
HETATM    9  C7  UNK     1      -2.848  -1.737  -0.268  1.00  0.00     0.095 A 
HETATM   10  C8  UNK     1       1.523   0.694  -0.859  1.00  0.00     0.093 A 
HETATM   11  C9  UNK     1       1.095   0.995   0.434  1.00  0.00     0.068 A 
HETATM   12  C10 UNK     1      -2.385  -2.050  -1.632  1.00  0.00     0.289 A 
ENDROOT
BRANCH   5  13
HETATM   13  C4  UNK     1      -2.777  -0.751   1.889  1.00  0.00    -0.025 A 
HETATM   14  C11 UNK     1      -3.661   0.307   2.088  1.00  0.00     0.012 A 
HETATM   15  C13 UNK     1      -4.245   0.495   3.341  1.00  0.00     0.001 A 
HETATM   16  C15 UNK     1      -3.944  -0.374   4.389  1.00  0.00     0.000 A 
HETATM   17  C14 UNK     1      -3.059  -1.433   4.185  1.00  0.00     0.001 A 
HETATM   18  C12 UNK     1      -2.474  -1.621   2.932  1.00  0.00     0.012 A 
ENDBRANCH   5  13
BRANCH  10  19
HETATM   19  O2  UNK     1       2.690   1.196  -1.353  1.00  0.00    -0.340 OA
BRANCH  19  20
HETATM   20  C16 UNK     1       2.601   2.010  -2.520  1.00  0.00     0.286 C 
BRANCH  20  21
HETATM   21  C17 UNK     1       3.730   3.007  -2.505  1.00  0.00     0.282 C 
HETATM   22  O5  UNK     1       4.567   3.104  -1.618  1.00  0.00    -0.263 OA
BRANCH  21  23
HETATM   23  O4  UNK     1       3.662   3.772  -3.634  1.00  0.00    -0.325 OA
HETATM   24  C18 UNK     1       4.678   4.772  -3.763  1.00  0.00     0.213 C 
ENDBRANCH  21  23
ENDBRANCH  20  21
ENDBRANCH  19  20
ENDBRANCH  10  19
TORSDOF 5
