REMARK  8 active torsions:
REMARK  status: ('A' for Active; 'I' for Inactive)
REMARK    1  A    between atoms: C8_16  and  O1_1 
REMARK    2  A    between atoms: C13_21  and  O2_2 
REMARK    3  A    between atoms: C16_24  and  O2_2 
REMARK       I    between atoms: C11_19  and  N2_8 
REMARK    4  A    between atoms: C3_11  and  N2_8 
REMARK    5  A    between atoms: C1_9  and  C2_10 
REMARK    6  A    between atoms: C1_9  and  C3_11 
REMARK    7  A    between atoms: C3_11  and  C8_16 
REMARK    8  A    between atoms: C11_19  and  C13_21 
ROOT
HETATM    1  O5  UNK     1      -1.752  -1.941  -2.265  1.00  0.00    -0.271 OA
HETATM    2  N2  UNK     1      -2.599  -0.730  -0.469  1.00  0.00    -0.345 N 
HETATM    3  C11 UNK     1      -1.761  -0.941  -1.553  1.00  0.00     0.242 C 
HETATM    4  H6  UNK     1      -2.511   0.132   0.062  1.00  0.00     0.163 HD
ENDROOT
BRANCH   2   5
HETATM    5  C3  UNK     1      -3.589  -1.690  -0.038  1.00  0.00     0.188 C 
BRANCH   5   6
HETATM    6  C1  UNK     1      -2.994  -2.696   0.960  1.00  0.00     0.076 C 
BRANCH   6   7
HETATM    7  C2  UNK     1      -2.532  -2.093   2.260  1.00  0.00    -0.028 A 
HETATM    8  C4  UNK     1      -1.243  -1.596   2.520  1.00  0.00    -0.002 A 
HETATM    9  C5  UNK     1      -1.262  -1.137   3.839  1.00  0.00     0.042 A 
HETATM   10  C7  UNK     1      -0.050  -1.480   1.779  1.00  0.00     0.014 A 
HETATM   11  N1  UNK     1      -2.529  -1.364   4.328  1.00  0.00    -0.365 N 
HETATM   12  C9  UNK     1      -0.143  -0.568   4.457  1.00  0.00     0.030 A 
HETATM   13  C6  UNK     1      -3.309  -1.949   3.366  1.00  0.00     0.096 A 
HETATM   14  H5  UNK     1      -2.838  -1.133   5.262  1.00  0.00     0.165 HD
HETATM   15  C12 UNK     1       1.029  -0.464   3.703  1.00  0.00     0.002 A 
HETATM   16  C10 UNK     1       1.077  -0.912   2.384  1.00  0.00     0.001 A 
ENDBRANCH   6   7
ENDBRANCH   5   6
BRANCH   5  17
HETATM   17  C8  UNK     1      -4.846  -1.023   0.503  1.00  0.00     0.281 C 
HETATM   18  O3  UNK     1      -4.942   0.192   0.644  1.00  0.00    -0.263 OA
BRANCH  17  19
HETATM   19  O1  UNK     1      -5.814  -1.928   0.817  1.00  0.00    -0.325 OA
HETATM   20  C23 UNK     1      -7.025  -1.383   1.352  1.00  0.00     0.213 C 
ENDBRANCH  17  19
ENDBRANCH   5  17
ENDBRANCH   2   5
BRANCH   3  21
HETATM   21  C13 UNK     1      -0.827   0.230  -1.774  1.00  0.00     0.278 C 
BRANCH  21  22
HETATM   22  O2  UNK     1       0.015  -0.004  -2.902  1.00  0.00    -0.342 OA
BRANCH  22  23
HETATM   23  C16 UNK     1       1.249   0.570  -2.883  1.00  0.00     0.072 A 
HETATM   24  C18 UNK     1       1.451   1.769  -2.209  1.00  0.00     0.075 A 
HETATM   25  C15 UNK     1       2.725   2.340  -2.202  1.00  0.00     0.092 A 
HETATM   26  C14 UNK     1       3.811   1.749  -2.850  1.00  0.00     0.004 A 
HETATM   27  O4  UNK     1       2.868   3.555  -1.502  1.00  0.00    -0.275 OA
HETATM   28  C17 UNK     1       5.117   2.420  -2.790  1.00  0.00    -0.043 A 
HETATM   29  C19 UNK     1       3.586   0.540  -3.523  1.00  0.00     0.017 A 
HETATM   30  C21 UNK     1       5.223   3.574  -2.118  1.00  0.00     0.090 A 
HETATM   31  C22 UNK     1       6.303   1.809  -3.477  1.00  0.00     0.049 C 
HETATM   32  C24 UNK     1       4.088   4.210  -1.429  1.00  0.00     0.288 A 
HETATM   33  O6  UNK     1       4.223   5.268  -0.823  1.00  0.00    -0.260 OA
HETATM   34  C20 UNK     1       2.315  -0.044  -3.539  1.00  0.00     0.038 A 
ENDBRANCH  22  23
ENDBRANCH  21  22
ENDBRANCH   3  21
TORSDOF 8
