REMARK  4 active torsions:
REMARK  status: ('A' for Active; 'I' for Inactive)
REMARK    1  A    between atoms: C10_14  and  O1_1 
REMARK    2  A    between atoms: C4_8  and  O1_1 
REMARK    3  A    between atoms: C13_17  and  C8_12 
REMARK    4  A    between atoms: C10_14  and  C13_17 
ROOT
HETATM    1  C10 UNK     1       0.300  -0.472   1.008  1.00  0.00     0.259 C 
ENDROOT
BRANCH   1   2
HETATM    2  O1  UNK     1      -0.223  -0.938   2.251  1.00  0.00    -0.344 OA
BRANCH   2   3
HETATM    3  C4  UNK     1      -1.552  -1.229   2.295  1.00  0.00     0.072 A 
HETATM    4  C6  UNK     1      -2.206  -1.677   1.152  1.00  0.00     0.075 A 
HETATM    5  C2  UNK     1      -3.569  -1.970   1.219  1.00  0.00     0.092 A 
HETATM    6  C1  UNK     1      -4.305  -1.829   2.396  1.00  0.00     0.004 A 
HETATM    7  O2  UNK     1      -4.177  -2.420   0.030  1.00  0.00    -0.275 OA
HETATM    8  C3  UNK     1      -5.736  -2.161   2.375  1.00  0.00    -0.043 A 
HETATM    9  C5  UNK     1      -3.628  -1.377   3.536  1.00  0.00     0.017 A 
HETATM   10  C12 UNK     1      -6.287  -2.586   1.230  1.00  0.00     0.090 A 
HETATM   11  C18 UNK     1      -6.555  -2.020   3.625  1.00  0.00     0.049 C 
HETATM   12  C19 UNK     1      -5.524  -2.740  -0.020  1.00  0.00     0.288 A 
HETATM   13  O4  UNK     1      -6.062  -3.132  -1.049  1.00  0.00    -0.260 OA
HETATM   14  C9  UNK     1      -2.261  -1.079   3.485  1.00  0.00     0.038 A 
ENDBRANCH   2   3
ENDBRANCH   1   2
BRANCH   1  15
HETATM   15  C13 UNK     1       1.479   0.450   1.253  1.00  0.00     0.183 C 
HETATM   16  O3  UNK     1       1.849   0.736   2.389  1.00  0.00    -0.290 OA
BRANCH  15  17
HETATM   17  C8  UNK     1       2.199   1.020   0.078  1.00  0.00     0.012 A 
HETATM   18  C16 UNK     1       1.768   0.688  -1.186  1.00  0.00     0.016 A 
HETATM   19  C14 UNK     1       2.443   1.221  -2.285  1.00  0.00     0.013 A 
HETATM   20  C7  UNK     1       3.530   2.072  -2.089  1.00  0.00    -0.026 A 
HETATM   21  C11 UNK     1       4.231   2.625  -3.228  1.00  0.00    -0.026 A 
HETATM   22  C15 UNK     1       3.944   2.389  -0.795  1.00  0.00     0.013 A 
HETATM   23  C20 UNK     1       5.313   1.940  -3.781  1.00  0.00     0.012 A 
HETATM   24  C21 UNK     1       3.824   3.843  -3.773  1.00  0.00     0.012 A 
HETATM   25  C22 UNK     1       5.988   2.472  -4.879  1.00  0.00     0.001 A 
HETATM   26  C24 UNK     1       5.581   3.690  -5.425  1.00  0.00     0.000 A 
HETATM   27  C23 UNK     1       4.499   4.375  -4.872  1.00  0.00     0.001 A 
HETATM   28  C17 UNK     1       3.269   1.856   0.303  1.00  0.00     0.016 A 
ENDBRANCH  15  17
ENDBRANCH   1  15
TORSDOF 4
