REMARK  3 active torsions:
REMARK  status: ('A' for Active; 'I' for Inactive)
REMARK    1  A    between atoms: C1_6  and  C7_12 
REMARK    2  A    between atoms: C3_8  and  C9_14 
REMARK    3  A    between atoms: C15_20  and  C9_14 
ROOT
HETATM    1  N1  UNK     1      -1.286   0.161   1.247  1.00  0.00    -0.142 N 
HETATM    2  N2  UNK     1      -1.638  -0.207   3.459  1.00  0.00    -0.187 N 
HETATM    3  N3  UNK     1      -0.220   1.622   2.861  1.00  0.00    -0.097 NA
HETATM    4  C1  UNK     1      -0.698   0.763   0.143  1.00  0.00     0.080 A 
HETATM    5  C2  UNK     1       0.353   2.399   1.737  1.00  0.00     0.163 A 
HETATM    6  C3  UNK     1       0.111   1.830   0.346  1.00  0.00     0.046 A 
HETATM    7  C4  UNK     1      -0.977   0.621   2.553  1.00  0.00     0.708 A 
HETATM    8  C5  UNK     1      -2.171  -0.949   1.376  1.00  0.00     0.084 A 
HETATM    9  C6  UNK     1      -2.375  -1.161   2.759  1.00  0.00     0.077 A 
HETATM   10  C8  UNK     1      -0.202   3.821   1.863  1.00  0.00     0.040 C 
HETATM   11  C10 UNK     1      -2.802  -1.763   0.458  1.00  0.00     0.033 A 
HETATM   12  C11 UNK     1      -3.182  -2.168   3.247  1.00  0.00     0.032 A 
HETATM   13  C14 UNK     1      -3.626  -2.790   0.938  1.00  0.00     0.002 A 
HETATM   14  C16 UNK     1      -3.814  -2.991   2.317  1.00  0.00     0.002 A 
HETATM   15  H2  UNK     1      -1.617  -0.133   4.465  1.00  0.00     0.184 HD
ENDROOT
BRANCH   6  16
HETATM   16  C9  UNK     1       0.833   2.476  -0.765  1.00  0.00     0.192 C 
HETATM   17  O1  UNK     1       0.323   3.412  -1.371  1.00  0.00    -0.287 OA
BRANCH  16  18
HETATM   18  C15 UNK     1       2.189   1.992  -1.116  1.00  0.00     0.015 A 
HETATM   19  C19 UNK     1       2.736   0.950  -0.393  1.00  0.00     0.015 A 
HETATM   20  C22 UNK     1       4.012   0.494  -0.724  1.00  0.00     0.001 A 
HETATM   21  C24 UNK     1       4.715   1.088  -1.771  1.00  0.00     0.000 A 
HETATM   22  C23 UNK     1       4.143   2.139  -2.488  1.00  0.00     0.001 A 
HETATM   23  C20 UNK     1       2.867   2.596  -2.157  1.00  0.00     0.015 A 
ENDBRANCH  16  18
ENDBRANCH   6  16
BRANCH   4  24
HETATM   24  C7  UNK     1      -0.929   0.222  -1.188  1.00  0.00    -0.005 A 
HETATM   25  C12 UNK     1      -0.096  -0.780  -1.686  1.00  0.00     0.056 A 
HETATM   26  C17 UNK     1      -0.318  -1.300  -2.962  1.00  0.00     0.117 A 
HETATM   27  F1  UNK     1       0.482  -2.261  -3.441  1.00  0.00    -0.206 F 
HETATM   28  C21 UNK     1      -1.371  -0.818  -3.738  1.00  0.00     0.042 A 
HETATM   29  C18 UNK     1      -2.204   0.185  -3.239  1.00  0.00     0.004 A 
HETATM   30  C13 UNK     1      -1.982   0.704  -1.964  1.00  0.00     0.014 A 
ENDBRANCH   4  24
TORSDOF 3
