REMARK  4 active torsions:
REMARK  status: ('A' for Active; 'I' for Inactive)
REMARK    1  A    between atoms: C10_14  and  O2_2 
REMARK    2  A    between atoms: C13_17  and  O2_2 
REMARK    3  A    between atoms: C3_7  and  C5_9 
REMARK    4  A    between atoms: C13_17  and  C14_18 
ROOT
HETATM    1  O1  UNK     1      -1.058  -1.222   2.197  1.00  0.00    -0.274 OA
HETATM    2  O3  UNK     1      -2.267  -1.983   3.961  1.00  0.00    -0.259 OA
HETATM    3  C1  UNK     1      -3.376  -1.442   0.587  1.00  0.00    -0.037 A 
HETATM    4  C2  UNK     1      -2.099  -0.969   0.013  1.00  0.00     0.005 A 
HETATM    5  C3  UNK     1      -3.425  -1.806   1.886  1.00  0.00     0.024 A 
HETATM    6  C4  UNK     1      -0.984  -0.874   0.840  1.00  0.00     0.093 A 
HETATM    7  C6  UNK     1      -1.929  -0.612  -1.334  1.00  0.00     0.017 A 
HETATM    8  C7  UNK     1      -2.229  -1.689   2.770  1.00  0.00     0.295 A 
HETATM    9  C8  UNK     1      -4.569  -1.472  -0.336  1.00  0.00     0.050 C 
HETATM   10  C9  UNK     1       0.260  -0.436   0.378  1.00  0.00     0.075 A 
HETATM   11  C10 UNK     1       0.404  -0.083  -0.958  1.00  0.00     0.082 A 
HETATM   12  C11 UNK     1      -0.690  -0.172  -1.815  1.00  0.00     0.038 A 
ENDROOT
BRANCH  11  13
HETATM   13  O2  UNK     1       1.607   0.345  -1.428  1.00  0.00    -0.275 OA
BRANCH  13  14
HETATM   14  C13 UNK     1       1.799   1.727  -1.347  1.00  0.00     0.298 C 
HETATM   15  O4  UNK     1       0.997   2.531  -0.895  1.00  0.00    -0.259 OA
BRANCH  14  16
HETATM   16  C14 UNK     1       3.131   2.117  -1.877  1.00  0.00     0.039 A 
HETATM   17  C15 UNK     1       3.761   3.225  -1.347  1.00  0.00     0.017 A 
HETATM   18  C17 UNK     1       5.011   3.591  -1.844  1.00  0.00     0.001 A 
HETATM   19  C19 UNK     1       5.604   2.842  -2.861  1.00  0.00     0.000 A 
HETATM   20  C18 UNK     1       4.946   1.727  -3.380  1.00  0.00     0.001 A 
HETATM   21  C16 UNK     1       3.696   1.361  -2.882  1.00  0.00     0.017 A 
ENDBRANCH  14  16
ENDBRANCH  13  14
ENDBRANCH  11  13
BRANCH   5  22
HETATM   22  C5  UNK     1      -4.641  -2.364   2.580  1.00  0.00     0.041 C 
HETATM   23  C12 UNK     1      -5.485  -1.263   3.185  1.00  0.00     0.010 C 
ENDBRANCH   5  22
TORSDOF 4
