REMARK  1 active torsions:
REMARK  status: ('A' for Active; 'I' for Inactive)
REMARK    1  A    between atoms: C4_8  and  C8_12 
ROOT
HETATM    1  O1  UNK     1       2.244   1.505  -2.606  1.00  0.00    -0.274 OA
HETATM    2  O2  UNK     1      -1.594  -0.234  -3.266  1.00  0.00    -0.267 OA
HETATM    3  O3  UNK     1       0.641   0.915  -4.093  1.00  0.00    -0.259 OA
HETATM    4  N1  UNK     1      -1.896  -0.635  -1.039  1.00  0.00    -0.322 N 
HETATM    5  C1  UNK     1       0.605   0.485  -0.517  1.00  0.00     0.001 A 
HETATM    6  C2  UNK     1       1.935   1.075  -0.231  1.00  0.00     0.009 A 
HETATM    7  C3  UNK     1       0.184   0.437  -1.803  1.00  0.00     0.118 A 
HETATM    8  C4  UNK     1      -1.463  -0.580   0.261  1.00  0.00     0.046 A 
HETATM    9  C5  UNK     1      -0.266  -0.041   0.535  1.00  0.00     0.044 A 
HETATM   10  C6  UNK     1       2.704   1.564  -1.283  1.00  0.00     0.090 A 
HETATM   11  C7  UNK     1      -1.170  -0.167  -2.113  1.00  0.00     0.263 A 
HETATM   12  C9  UNK     1       1.015   0.958  -2.926  1.00  0.00     0.305 A 
HETATM   13  C10 UNK     1       2.487   1.177   1.057  1.00  0.00     0.015 A 
HETATM   14  C11 UNK     1       3.966   2.135  -1.096  1.00  0.00     0.038 A 
HETATM   15  C12 UNK     1       3.751   1.745   1.263  1.00  0.00     0.001 A 
HETATM   16  C13 UNK     1       4.490   2.225   0.187  1.00  0.00     0.003 A 
HETATM   17  H2  UNK     1      -2.809  -1.044  -1.219  1.00  0.00     0.169 HD
ENDROOT
BRANCH   8  18
HETATM   18  C8  UNK     1      -2.346  -1.105   1.319  1.00  0.00    -0.009 A 
HETATM   19  C14 UNK     1      -3.281  -0.268   1.932  1.00  0.00     0.013 A 
HETATM   20  C16 UNK     1      -4.116  -0.764   2.933  1.00  0.00     0.001 A 
HETATM   21  C18 UNK     1      -4.019  -2.100   3.323  1.00  0.00     0.000 A 
HETATM   22  C17 UNK     1      -3.087  -2.939   2.712  1.00  0.00     0.001 A 
HETATM   23  C15 UNK     1      -2.252  -2.442   1.712  1.00  0.00     0.013 A 
ENDBRANCH   8  18
TORSDOF 1
