REMARK  3 active torsions:
REMARK  status: ('A' for Active; 'I' for Inactive)
REMARK    1  A    between atoms: C8_16  and  N1_6 
REMARK    2  A    between atoms: C16_24  and  N2_7 
REMARK    3  A    between atoms: C1_9  and  C4_12 
ROOT
HETATM    1  O1  UNK     1       0.286   1.486  -2.391  1.00  0.00    -0.291 OA
HETATM    2  O2  UNK     1       3.077   0.064   0.383  1.00  0.00    -0.274 OA
HETATM    3  O3  UNK     1       1.789  -1.784   0.736  1.00  0.00    -0.259 OA
HETATM    4  N3  UNK     1      -3.121  -1.848  -3.082  1.00  0.00    -0.191 NA
HETATM    5  C1  UNK     1      -0.335  -0.962  -1.026  1.00  0.00     0.108 C 
HETATM    6  C2  UNK     1       0.939  -0.172  -0.792  1.00  0.00     0.066 A 
HETATM    7  C3  UNK     1       1.166   0.972  -1.455  1.00  0.00     0.104 A 
HETATM    8  C5  UNK     1      -1.131  -0.433  -2.215  1.00  0.00     0.086 C 
HETATM    9  C6  UNK     1       2.374   1.757  -1.217  1.00  0.00     0.033 A 
HETATM   10  C7  UNK     1       1.943  -0.710   0.163  1.00  0.00     0.298 A 
HETATM   11  C8  UNK     1      -0.804   0.732  -2.821  1.00  0.00     0.159 C 
HETATM   12  C9  UNK     1       3.298   1.279  -0.293  1.00  0.00     0.092 A 
HETATM   13  C12 UNK     1       2.652   2.968  -1.863  1.00  0.00     0.017 A 
HETATM   14  C13 UNK     1       4.476   1.965   0.001  1.00  0.00     0.038 A 
HETATM   15  C17 UNK     1      -2.230  -1.215  -2.694  1.00  0.00     0.100 C 
HETATM   16  C18 UNK     1       3.829   3.668  -1.580  1.00  0.00     0.001 A 
HETATM   17  C19 UNK     1       4.740   3.167  -0.649  1.00  0.00     0.003 A 
ENDROOT
BRANCH   5  18
HETATM   18  C4  UNK     1      -1.189  -0.960   0.209  1.00  0.00    -0.044 A 
HETATM   19  C10 UNK     1      -1.481  -2.161   0.845  1.00  0.00     0.011 A 
HETATM   20  C14 UNK     1      -2.274  -2.158   1.992  1.00  0.00     0.036 A 
HETATM   21  C16 UNK     1      -2.769  -0.955   2.495  1.00  0.00     0.102 A 
HETATM   22  C15 UNK     1      -2.471   0.246   1.851  1.00  0.00     0.036 A 
HETATM   23  C11 UNK     1      -1.678   0.243   0.703  1.00  0.00     0.011 A 
BRANCH  21  24
HETATM   24  N2  UNK     1      -3.575  -0.953   3.664  1.00  0.00    -0.116 N 
HETATM   25  O4  UNK     1      -3.831  -2.044   4.229  1.00  0.00    -0.532 OA
HETATM   26  O5  UNK     1      -4.010   0.140   4.100  1.00  0.00    -0.532 OA
ENDBRANCH  21  24
ENDBRANCH   5  18
BRANCH  11  27
HETATM   27  N1  UNK     1      -1.472   1.284  -3.879  1.00  0.00    -0.379 N 
HETATM   28  H10 UNK     1      -2.282   0.828  -4.279  1.00  0.00     0.158 HD
HETATM   29  H11 UNK     1      -1.143   2.162  -4.259  1.00  0.00     0.158 HD
ENDBRANCH  11  27
TORSDOF 3
