REMARK  7 active torsions:
REMARK  status: ('A' for Active; 'I' for Inactive)
REMARK    1  A    between atoms: C20_28  and  O4_5 
REMARK    2  A    between atoms: C5_13  and  N1_6 
REMARK    3  A    between atoms: C6_14  and  N2_7 
REMARK    4  A    between atoms: C18_26  and  N3_8 
REMARK       I    between atoms: C9_17  and  N3_8 
REMARK    5  A    between atoms: C5_13  and  C7_15 
REMARK    6  A    between atoms: C6_14  and  C9_17 
REMARK    7  A    between atoms: C13_21  and  C17_25 
ROOT
HETATM    1  N1  UNK     1       1.798  -0.298  -1.221  1.00  0.00     0.096 N 
HETATM    2  N2  UNK     1      -0.707  -1.632  -0.668  1.00  0.00     0.100 N 
HETATM    3  C1  UNK     1       1.236  -0.334   0.135  1.00  0.00     0.303 C 
HETATM    4  C2  UNK     1       1.382  -1.484  -1.980  1.00  0.00     0.303 C 
HETATM    5  C3  UNK     1      -0.291  -0.445   0.089  1.00  0.00     0.303 C 
HETATM    6  C4  UNK     1      -0.146  -1.596  -2.024  1.00  0.00     0.303 C 
ENDROOT
BRANCH   1   7
HETATM    7  C5  UNK     1       3.255  -0.195  -1.177  1.00  0.00     0.312 C 
BRANCH   7   8
HETATM    8  C7  UNK     1       3.712   1.185  -0.855  1.00  0.00    -0.011 A 
HETATM    9  C10 UNK     1       3.908   1.571   0.414  1.00  0.00     0.092 A 
HETATM   10  C14 UNK     1       4.359   2.924   0.782  1.00  0.00     0.288 A 
HETATM   11  O1  UNK     1       4.580   3.811  -0.259  1.00  0.00    -0.275 OA
HETATM   12  O3  UNK     1       4.530   3.240   1.954  1.00  0.00    -0.260 OA
HETATM   13  C11 UNK     1       4.382   3.435  -1.603  1.00  0.00     0.090 A 
HETATM   14  C8  UNK     1       3.954   2.149  -1.937  1.00  0.00     0.007 A 
HETATM   15  C15 UNK     1       4.635   4.411  -2.569  1.00  0.00     0.039 A 
HETATM   16  C12 UNK     1       3.780   1.854  -3.295  1.00  0.00     0.022 A 
HETATM   17  C13 UNK     1       4.030   2.822  -4.275  1.00  0.00    -0.058 A 
HETATM   18  C16 UNK     1       4.456   4.098  -3.912  1.00  0.00     0.010 A 
BRANCH  17  19
HETATM   19  C17 UNK     1       3.838   2.485  -5.716  1.00  0.00     0.034 C 
HETATM   20  C19 UNK     1       2.420   2.781  -6.197  1.00  0.00     0.010 C 
ENDBRANCH  17  19
ENDBRANCH   7   8
ENDBRANCH   1   7
BRANCH   2  21
HETATM   21  C6  UNK     1      -2.163  -1.737  -0.711  1.00  0.00     0.375 C 
BRANCH  21  22
HETATM   22  C9  UNK     1      -2.672  -2.261   0.621  1.00  0.00     0.250 C 
HETATM   23  O2  UNK     1      -2.011  -3.010   1.333  1.00  0.00    -0.271 OA
HETATM   24  N3  UNK     1      -3.948  -1.762   0.879  1.00  0.00    -0.323 N 
HETATM   25  H15 UNK     1      -4.369  -1.153   0.181  1.00  0.00     0.169 HD
BRANCH  24  26
HETATM   26  C18 UNK     1      -4.760  -2.013   2.010  1.00  0.00     0.070 A 
HETATM   27  C20 UNK     1      -6.024  -1.434   2.120  1.00  0.00     0.095 A 
HETATM   28  C22 UNK     1      -6.814  -1.689   3.242  1.00  0.00     0.041 A 
HETATM   29  C24 UNK     1      -6.339  -2.526   4.252  1.00  0.00     0.026 A 
HETATM   30  C23 UNK     1      -5.075  -3.106   4.142  1.00  0.00     0.036 A 
HETATM   31  C21 UNK     1      -4.286  -2.849   3.021  1.00  0.00     0.056 A 
HETATM   32 Cl1  UNK     1      -4.491  -4.137   5.389  1.00  0.00    -0.084 Cl
BRANCH  27  33
HETATM   33  O4  UNK     1      -6.506  -0.614   1.144  1.00  0.00    -0.354 OA
HETATM   34  C25 UNK     1      -6.224   0.778   1.269  1.00  0.00     0.210 C 
ENDBRANCH  27  33
ENDBRANCH  24  26
ENDBRANCH  21  22
ENDBRANCH   2  21
TORSDOF 7
