REMARK  10 active torsions:
REMARK  status: ('A' for Active; 'I' for Inactive)
REMARK    1  A    between atoms: C11_22  and  O2_2 
REMARK    2  A    between atoms: C15_26  and  O2_2 
REMARK    3  A    between atoms: N1_8  and  N2_9 
REMARK    4  A    between atoms: C21_32  and  N2_9 
REMARK    5  A    between atoms: C24_35  and  N3_10 
REMARK    6  A    between atoms: C29_40  and  N4_11 
REMARK    7  A    between atoms: C2_13  and  C4_15 
REMARK    8  A    between atoms: C4_15  and  C7_18 
REMARK    9  A    between atoms: C15_26  and  C16_27 
REMARK   10  A    between atoms: C16_27  and  C20_31 
ROOT
HETATM    1  N1  UNK     1      -2.289  -1.542   1.046  1.00  0.00    -0.176 NA
HETATM    2  C16 UNK     1      -1.144  -1.086   1.462  1.00  0.00     0.089 C 
ENDROOT
BRANCH   2   3
HETATM    3  C15 UNK     1       0.013  -0.701   0.550  1.00  0.00     0.237 C 
BRANCH   3   4
HETATM    4  O2  UNK     1      -0.412   0.317  -0.355  1.00  0.00    -0.345 OA
BRANCH   4   5
HETATM    5  C11 UNK     1       0.546   1.150  -0.844  1.00  0.00     0.071 A 
HETATM    6  C10 UNK     1       1.850   0.699  -1.004  1.00  0.00     0.075 A 
HETATM    7  C5  UNK     1       2.819   1.572  -1.508  1.00  0.00     0.092 A 
HETATM    8  C3  UNK     1       2.531   2.886  -1.863  1.00  0.00     0.005 A 
HETATM    9  O1  UNK     1       4.117   1.055  -1.637  1.00  0.00    -0.274 OA
HETATM   10  C1  UNK     1       3.618   3.739  -2.388  1.00  0.00    -0.036 A 
HETATM   11  C8  UNK     1       1.208   3.322  -1.687  1.00  0.00     0.017 A 
HETATM   12  C2  UNK     1       4.870   3.240  -2.475  1.00  0.00     0.029 A 
HETATM   13  C9  UNK     1       3.243   5.137  -2.814  1.00  0.00     0.050 C 
HETATM   14  C6  UNK     1       5.168   1.826  -2.104  1.00  0.00     0.295 A 
HETATM   15  O3  UNK     1       6.293   1.348  -2.211  1.00  0.00    -0.259 OA
HETATM   16  C12 UNK     1       0.225   2.461  -1.184  1.00  0.00     0.038 A 
BRANCH  12  17
HETATM   17  C4  UNK     1       6.078   4.017  -2.930  1.00  0.00     0.084 C 
BRANCH  17  18
HETATM   18  C7  UNK     1       6.500   3.645  -4.321  1.00  0.00    -0.054 A 
HETATM   19  C13 UNK     1       5.543   3.516  -5.328  1.00  0.00     0.007 A 
HETATM   20  C17 UNK     1       5.935   3.170  -6.622  1.00  0.00     0.001 A 
HETATM   21  C19 UNK     1       7.283   2.952  -6.907  1.00  0.00     0.000 A 
HETATM   22  C18 UNK     1       8.239   3.081  -5.900  1.00  0.00     0.001 A 
HETATM   23  C14 UNK     1       7.847   3.427  -4.607  1.00  0.00     0.007 A 
ENDBRANCH  17  18
ENDBRANCH  12  17
ENDBRANCH   4   5
ENDBRANCH   3   4
ENDBRANCH   2   3
BRANCH   2  24
HETATM   24  C20 UNK     1      -0.945  -0.943   2.933  1.00  0.00    -0.008 A 
HETATM   25  C23 UNK     1      -0.434  -2.008   3.675  1.00  0.00     0.013 A 
HETATM   26  C27 UNK     1      -0.249  -1.874   5.051  1.00  0.00     0.001 A 
HETATM   27  C31 UNK     1      -0.575  -0.675   5.685  1.00  0.00     0.000 A 
HETATM   28  C26 UNK     1      -1.086   0.390   4.944  1.00  0.00     0.001 A 
HETATM   29  C22 UNK     1      -1.271   0.256   3.568  1.00  0.00     0.013 A 
ENDBRANCH   2  24
BRANCH   1  30
HETATM   30  N2  UNK     1      -3.215  -1.852   1.971  1.00  0.00    -0.276 N 
HETATM   31  H18 UNK     1      -3.040  -1.780   2.964  1.00  0.00     0.189 HD
BRANCH  30  32
HETATM   32  C21 UNK     1      -4.470  -2.349   1.584  1.00  0.00     0.083 A 
HETATM   33  C24 UNK     1      -5.409  -2.754   2.532  1.00  0.00     0.133 A 
HETATM   34  C28 UNK     1      -6.649  -3.243   2.122  1.00  0.00     0.074 A 
HETATM   35  C29 UNK     1      -6.950  -3.327   0.762  1.00  0.00     0.105 A 
HETATM   36  C30 UNK     1      -6.011  -2.922  -0.187  1.00  0.00     0.038 A 
HETATM   37  C25 UNK     1      -4.771  -2.433   0.224  1.00  0.00     0.036 A 
BRANCH  33  38
HETATM   38  N3  UNK     1      -5.128  -2.677   3.925  1.00  0.00    -0.113 N 
HETATM   39  O4  UNK     1      -4.596  -3.662   4.490  1.00  0.00    -0.532 OA
HETATM   40  O5  UNK     1      -5.419  -1.627   4.545  1.00  0.00    -0.532 OA
ENDBRANCH  33  38
BRANCH  35  41
HETATM   41  N4  UNK     1      -8.211  -3.827   0.343  1.00  0.00    -0.116 N 
HETATM   42  O6  UNK     1      -8.461  -3.895  -0.885  1.00  0.00    -0.532 OA
HETATM   43  O7  UNK     1      -9.042  -4.186   1.212  1.00  0.00    -0.532 OA
ENDBRANCH  35  41
ENDBRANCH  30  32
ENDBRANCH   1  30
TORSDOF 10
