REMARK  2 active torsions:
REMARK  status: ('A' for Active; 'I' for Inactive)
REMARK    1  A    between atoms: C8_13  and  O3_4 
REMARK    2  A    between atoms: C1_6  and  C2_7 
ROOT
HETATM    1 Cl1  UNK     1      -4.004  -0.878  -2.774  1.00  0.00    -0.084 Cl
HETATM    2  O2  UNK     1      -2.141  -1.555   2.777  1.00  0.00    -0.275 OA
HETATM    3  O4  UNK     1      -0.589  -1.179   4.412  1.00  0.00    -0.260 OA
HETATM    4  C1  UNK     1      -0.495  -0.053   1.013  1.00  0.00     0.017 A 
HETATM    5  C4  UNK     1      -1.765  -0.637   0.548  1.00  0.00     0.013 A 
HETATM    6  C7  UNK     1      -2.546  -1.368   1.442  1.00  0.00     0.090 A 
HETATM    7  C9  UNK     1      -0.139  -0.253   2.294  1.00  0.00     0.097 A 
HETATM    8  C11 UNK     1      -2.233  -0.493  -0.765  1.00  0.00     0.039 A 
HETATM    9  C13 UNK     1      -3.759  -1.947   1.067  1.00  0.00     0.040 A 
HETATM   10  C15 UNK     1      -0.953  -1.023   3.252  1.00  0.00     0.289 A 
HETATM   11  C16 UNK     1      -3.447  -1.068  -1.156  1.00  0.00     0.035 A 
HETATM   12  C17 UNK     1      -4.209  -1.794  -0.241  1.00  0.00     0.026 A 
ENDROOT
BRANCH   4  13
HETATM   13  C2  UNK     1       0.398   0.707   0.228  1.00  0.00     0.088 A 
HETATM   14  C6  UNK     1       0.399   2.073   0.052  1.00  0.00     0.052 A 
HETATM   15  C3  UNK     1       1.481   2.366  -0.819  1.00  0.00     0.003 A 
HETATM   16  C10 UNK     1       2.027   3.529  -1.390  1.00  0.00     0.014 A 
HETATM   17  C5  UNK     1       2.070   1.141  -1.116  1.00  0.00     0.119 A 
HETATM   18  C14 UNK     1       3.141   3.406  -2.232  1.00  0.00     0.004 A 
HETATM   19  C12 UNK     1       3.703   2.156  -2.506  1.00  0.00     0.040 A 
HETATM   20  C8  UNK     1       3.176   0.986  -1.950  1.00  0.00     0.102 A 
HETATM   21  O1  UNK     1       1.409   0.134  -0.478  1.00  0.00    -0.306 OA
BRANCH  20  22
HETATM   22  O3  UNK     1       3.727  -0.231  -2.218  1.00  0.00    -0.353 OA
HETATM   23  C18 UNK     1       3.216  -0.937  -3.347  1.00  0.00     0.210 C 
ENDBRANCH  20  22
ENDBRANCH   4  13
TORSDOF 2
