REMARK  2 active torsions:
REMARK  status: ('A' for Active; 'I' for Inactive)
REMARK    1  A    between atoms: C1_5  and  C3_7 
REMARK    2  A    between atoms: C4_8  and  C6_10 
ROOT
HETATM    1  N1  UNK     1       2.646   1.059  -0.495  1.00  0.00    -0.379 N 
HETATM    2  N2  UNK     1       0.832   0.007   1.766  1.00  0.00    -0.250 NA
HETATM    3  C1  UNK     1       1.447   0.550  -1.139  1.00  0.00     0.120 C 
HETATM    4  C2  UNK     1       0.190   1.017  -0.405  1.00  0.00     0.090 C 
HETATM    5  C4  UNK     1      -0.005   0.114   0.784  1.00  0.00     0.053 C 
HETATM    6  C5  UNK     1       2.871   1.194   0.865  1.00  0.00     0.057 A 
HETATM    7  C7  UNK     1       2.014   0.760   1.898  1.00  0.00     0.083 A 
HETATM    8  C10 UNK     1       4.049   1.889   1.233  1.00  0.00     0.031 A 
HETATM    9  C15 UNK     1       2.378   1.021   3.238  1.00  0.00     0.034 A 
HETATM   10  C18 UNK     1       4.385   2.141   2.562  1.00  0.00     0.002 A 
HETATM   11  C20 UNK     1       3.544   1.704   3.570  1.00  0.00     0.002 A 
HETATM   12  H4  UNK     1       3.436   1.266  -1.100  1.00  0.00     0.160 HD
ENDROOT
BRANCH   5  13
HETATM   13  C6  UNK     1      -1.230  -0.715   0.805  1.00  0.00     0.065 A 
HETATM   14  C11 UNK     1      -2.318  -0.185   1.381  1.00  0.00     0.034 A 
HETATM   15  C17 UNK     1      -3.570  -0.920   1.452  1.00  0.00    -0.001 A 
HETATM   16  C19 UNK     1      -3.629  -2.197   0.908  1.00  0.00     0.089 A 
HETATM   17  C22 UNK     1      -4.716  -0.388   2.048  1.00  0.00     0.014 A 
HETATM   18  O1  UNK     1      -2.493  -2.763   0.301  1.00  0.00    -0.274 OA
HETATM   19  C23 UNK     1      -4.796  -2.957   0.942  1.00  0.00     0.038 A 
HETATM   20  C16 UNK     1      -1.279  -2.084   0.218  1.00  0.00     0.300 A 
HETATM   21  O2  UNK     1      -0.298  -2.592  -0.314  1.00  0.00    -0.259 OA
HETATM   22  C25 UNK     1      -5.935  -2.419   1.537  1.00  0.00     0.003 A 
HETATM   23  C24 UNK     1      -5.895  -1.137   2.089  1.00  0.00     0.001 A 
ENDBRANCH   5  13
BRANCH   3  24
HETATM   24  C3  UNK     1       1.430   1.003  -2.589  1.00  0.00    -0.035 A 
HETATM   25  C8  UNK     1       1.478   0.058  -3.611  1.00  0.00     0.010 A 
HETATM   26  C12 UNK     1       1.462   0.474  -4.942  1.00  0.00     0.007 A 
HETATM   27  C14 UNK     1       1.399   1.833  -5.247  1.00  0.00    -0.062 A 
HETATM   28  C13 UNK     1       1.351   2.777  -4.221  1.00  0.00     0.007 A 
HETATM   29  C21 UNK     1       1.383   2.278  -6.671  1.00  0.00     0.048 C 
HETATM   30  C9  UNK     1       1.367   2.361  -2.890  1.00  0.00     0.010 A 
ENDBRANCH   3  24
TORSDOF 2
