REMARK  3 active torsions:
REMARK  status: ('A' for Active; 'I' for Inactive)
REMARK    1  A    between atoms: C7_11  and  O2_2 
REMARK    2  A    between atoms: C9_13  and  O4_4 
REMARK    3  A    between atoms: C3_7  and  C5_9 
ROOT
HETATM    1  O1  UNK     1      -0.056   0.665   0.315  1.00  0.00    -0.306 OA
HETATM    2  O3  UNK     1      -1.946  -1.804  -2.318  1.00  0.00    -0.287 OA
HETATM    3  C1  UNK     1      -1.825  -0.941  -0.121  1.00  0.00     0.051 A 
HETATM    4  C2  UNK     1      -1.132  -0.079   0.727  1.00  0.00     0.126 A 
HETATM    5  C3  UNK     1       0.353   0.559  -1.006  1.00  0.00     0.090 A 
HETATM    6  C4  UNK     1      -1.388  -1.064  -1.520  1.00  0.00     0.187 A 
HETATM    7  C6  UNK     1      -0.227  -0.240  -1.915  1.00  0.00     0.093 A 
HETATM    8  C7  UNK     1      -1.525   0.054   2.059  1.00  0.00     0.134 A 
HETATM    9  C8  UNK     1      -2.915  -1.675   0.354  1.00  0.00     0.021 A 
HETATM   10  C9  UNK     1      -2.613  -0.677   2.537  1.00  0.00     0.101 A 
HETATM   11  C10 UNK     1      -3.306  -1.539   1.686  1.00  0.00     0.040 A 
ENDROOT
BRANCH   5  12
HETATM   12  C5  UNK     1       1.522   1.397  -1.341  1.00  0.00    -0.002 A 
HETATM   13  C11 UNK     1       2.427   0.980  -2.321  1.00  0.00     0.014 A 
HETATM   14  C13 UNK     1       3.531   1.772  -2.637  1.00  0.00     0.001 A 
HETATM   15  C15 UNK     1       3.733   2.983  -1.976  1.00  0.00     0.000 A 
HETATM   16  C14 UNK     1       2.832   3.402  -0.997  1.00  0.00     0.001 A 
HETATM   17  C12 UNK     1       1.728   2.611  -0.680  1.00  0.00     0.014 A 
ENDBRANCH   5  12
BRANCH   8  18
HETATM   18  O2  UNK     1      -0.853   0.895   2.895  1.00  0.00    -0.356 OA
HETATM   19  H9  UNK     1      -0.134   1.316   2.393  1.00  0.00     0.218 HD
ENDBRANCH   8  18
BRANCH  10  20
HETATM   20  O4  UNK     1      -3.011  -0.558   3.835  1.00  0.00    -0.358 OA
HETATM   21  H10 UNK     1      -2.422   0.078   4.278  1.00  0.00     0.217 HD
ENDBRANCH  10  20
TORSDOF 3
