REMARK  6 active torsions:
REMARK  status: ('A' for Active; 'I' for Inactive)
REMARK    1  A    between atoms: C11_15  and  O2_2 
REMARK    2  A    between atoms: C15_19  and  O2_2 
REMARK    3  A    between atoms: C2_6  and  C4_8 
REMARK    4  A    between atoms: C4_8  and  C7_11 
REMARK    5  A    between atoms: C15_19  and  C18_22 
REMARK    6  A    between atoms: C18_22  and  C19_23 
ROOT
HETATM    1  O1  UNK     1      -0.987  -0.980   2.477  1.00  0.00    -0.274 OA
HETATM    2  O3  UNK     1      -2.495  -2.078   3.771  1.00  0.00    -0.259 OA
HETATM    3  C1  UNK     1      -2.246  -2.071   0.187  1.00  0.00    -0.036 A 
HETATM    4  C2  UNK     1      -2.699  -2.391   1.418  1.00  0.00     0.029 A 
HETATM    5  C3  UNK     1      -1.072  -1.184   0.054  1.00  0.00     0.005 A 
HETATM    6  C5  UNK     1      -0.484  -0.667   1.205  1.00  0.00     0.092 A 
HETATM    7  C6  UNK     1      -2.072  -1.824   2.647  1.00  0.00     0.295 A 
HETATM    8  C8  UNK     1      -0.493  -0.828  -1.175  1.00  0.00     0.017 A 
HETATM    9  C9  UNK     1      -2.882  -2.557  -1.091  1.00  0.00     0.050 C 
HETATM   10  C10 UNK     1       0.628   0.178   1.168  1.00  0.00     0.075 A 
HETATM   11  C11 UNK     1       1.181   0.522  -0.060  1.00  0.00     0.072 A 
HETATM   12  C12 UNK     1       0.622   0.018  -1.231  1.00  0.00     0.038 A 
ENDROOT
BRANCH  11  13
HETATM   13  O2  UNK     1       2.263   1.344  -0.118  1.00  0.00    -0.344 OA
BRANCH  13  14
HETATM   14  C15 UNK     1       2.778   1.650  -1.413  1.00  0.00     0.259 C 
BRANCH  14  15
HETATM   15  C18 UNK     1       3.984   2.562  -1.290  1.00  0.00     0.183 C 
HETATM   16  O4  UNK     1       4.378   2.966  -0.198  1.00  0.00    -0.290 OA
BRANCH  15  17
HETATM   17  C19 UNK     1       4.701   2.974  -2.531  1.00  0.00     0.012 A 
HETATM   18  C21 UNK     1       4.241   2.512  -3.743  1.00  0.00     0.016 A 
HETATM   19  C24 UNK     1       4.912   2.897  -4.904  1.00  0.00     0.007 A 
HETATM   20  C23 UNK     1       6.023   3.736  -4.822  1.00  0.00    -0.062 A 
HETATM   21  C25 UNK     1       6.465   4.188  -3.578  1.00  0.00     0.007 A 
HETATM   22  C26 UNK     1       6.741   4.148  -6.063  1.00  0.00     0.048 C 
HETATM   23  C22 UNK     1       5.795   3.802  -2.417  1.00  0.00     0.016 A 
ENDBRANCH  15  17
ENDBRANCH  14  15
ENDBRANCH  13  14
ENDBRANCH  11  13
BRANCH   4  24
HETATM   24  C4  UNK     1      -3.843  -3.332   1.698  1.00  0.00     0.084 C 
BRANCH  24  25
HETATM   25  C7  UNK     1      -5.088  -2.603   2.107  1.00  0.00    -0.054 A 
HETATM   26  C13 UNK     1      -5.489  -1.474   1.401  1.00  0.00     0.007 A 
HETATM   27  C16 UNK     1      -6.647  -0.796   1.782  1.00  0.00     0.001 A 
HETATM   28  C20 UNK     1      -7.397  -1.251   2.866  1.00  0.00     0.000 A 
HETATM   29  C17 UNK     1      -6.989  -2.384   3.570  1.00  0.00     0.001 A 
HETATM   30  C14 UNK     1      -5.831  -3.062   3.189  1.00  0.00     0.007 A 
ENDBRANCH  24  25
ENDBRANCH   4  24
TORSDOF 6
