REMARK  6 active torsions:
REMARK  status: ('A' for Active; 'I' for Inactive)
REMARK    1  A    between atoms: C17_23  and  O2_2 
REMARK    2  A    between atoms: C7_13  and  O2_2 
REMARK    3  A    between atoms: C16_22  and  O4_4 
REMARK    4  A    between atoms: C20_26  and  O5_5 
REMARK    5  A    between atoms: C10_16  and  C8_14 
REMARK    6  A    between atoms: C13_19  and  C17_23 
ROOT
HETATM    1  O1  UNK     1      -1.795  -0.092   1.345  1.00  0.00    -0.306 OA
HETATM    2  O3  UNK     1      -1.146   0.952   4.666  1.00  0.00    -0.284 OA
HETATM    3  C1  UNK     1      -0.325   1.313   2.441  1.00  0.00     0.051 A 
HETATM    4  C2  UNK     1      -0.739   0.780   1.221  1.00  0.00     0.093 A 
HETATM    5  C3  UNK     1      -2.090  -0.137   2.702  1.00  0.00     0.127 A 
HETATM    6  C4  UNK     1      -1.181   0.745   3.474  1.00  0.00     0.218 A 
HETATM    7  C5  UNK     1      -0.116   1.129   0.042  1.00  0.00     0.075 A 
HETATM    8  C6  UNK     1       0.719   2.208   2.543  1.00  0.00     0.021 A 
HETATM    9  C7  UNK     1       0.946   2.036   0.117  1.00  0.00     0.082 A 
HETATM   10  C8  UNK     1      -3.061  -0.875   3.243  1.00  0.00     0.053 C 
HETATM   11  C9  UNK     1       1.359   2.570   1.355  1.00  0.00     0.038 A 
ENDROOT
BRANCH   9  12
HETATM   12  O2  UNK     1       1.593   2.411  -1.023  1.00  0.00    -0.275 OA
BRANCH  12  13
HETATM   13  C17 UNK     1       2.681   1.602  -1.357  1.00  0.00     0.298 C 
HETATM   14  O6  UNK     1       3.063   0.626  -0.729  1.00  0.00    -0.259 OA
BRANCH  13  15
HETATM   15  C13 UNK     1       3.332   2.071  -2.607  1.00  0.00     0.040 A 
HETATM   16  C18 UNK     1       3.948   1.146  -3.424  1.00  0.00     0.020 A 
HETATM   17  C21 UNK     1       4.560   1.586  -4.598  1.00  0.00     0.038 A 
HETATM   18  C20 UNK     1       4.542   2.941  -4.929  1.00  0.00     0.068 A 
HETATM   19  C22 UNK     1       3.913   3.856  -4.085  1.00  0.00     0.038 A 
HETATM   20  C19 UNK     1       3.301   3.416  -2.912  1.00  0.00     0.020 A 
BRANCH  18  21
HETATM   21  O5  UNK     1       5.138   3.369  -6.075  1.00  0.00    -0.356 OA
HETATM   22  C24 UNK     1       5.761   2.380  -6.892  1.00  0.00     0.210 C 
ENDBRANCH  18  21
ENDBRANCH  13  15
ENDBRANCH  12  13
ENDBRANCH   9  12
BRANCH  10  23
HETATM   23  C10 UNK     1      -3.983  -1.762   2.509  1.00  0.00    -0.033 A 
HETATM   24  C12 UNK     1      -3.623  -3.081   2.291  1.00  0.00     0.014 A 
HETATM   25  C15 UNK     1      -4.494  -3.920   1.597  1.00  0.00     0.037 A 
HETATM   26  C16 UNK     1      -5.714  -3.429   1.132  1.00  0.00     0.068 A 
HETATM   27  C14 UNK     1      -6.062  -2.097   1.360  1.00  0.00     0.037 A 
HETATM   28  C11 UNK     1      -5.190  -1.258   2.054  1.00  0.00     0.014 A 
BRANCH  26  29
HETATM   29  O4  UNK     1      -6.565  -4.248   0.456  1.00  0.00    -0.356 OA
HETATM   30  C23 UNK     1      -6.147  -5.597   0.258  1.00  0.00     0.210 C 
ENDBRANCH  26  29
ENDBRANCH  10  23
TORSDOF 6
