REMARK  8 active torsions:
REMARK  status: ('A' for Active; 'I' for Inactive)
REMARK    1  A    between atoms: C13_24  and  O2_7 
REMARK    2  A    between atoms: C16_27  and  N1_10 
REMARK    3  A    between atoms: C5_16  and  N1_10 
REMARK    4  A    between atoms: C10_21  and  N2_11 
REMARK    5  A    between atoms: C16_27  and  N2_11 
REMARK    6  A    between atoms: C1_12  and  C3_14 
REMARK    7  A    between atoms: C13_24  and  C2_13 
REMARK    8  A    between atoms: C11_22  and  C18_29 
ROOT
HETATM    1  N2  UNK     1       1.043   0.466   1.937  1.00  0.00    -0.333 N 
HETATM    2  H13 UNK     1       1.444   0.474   2.872  1.00  0.00     0.168 HD
ENDROOT
BRANCH   1   3
HETATM    3  C10 UNK     1      -0.226  -0.105   1.848  1.00  0.00     0.036 A 
HETATM    4  C12 UNK     1      -0.765  -0.420   0.605  1.00  0.00     0.067 A 
HETATM    5  C7  UNK     1      -2.036  -0.992   0.539  1.00  0.00     0.092 A 
HETATM    6  C6  UNK     1      -2.793  -1.262   1.680  1.00  0.00     0.013 A 
HETATM    7  O1  UNK     1      -2.528  -1.289  -0.748  1.00  0.00    -0.275 OA
HETATM    8  C11 UNK     1      -4.122  -1.866   1.517  1.00  0.00     0.066 A 
HETATM    9  C14 UNK     1      -2.232  -0.938   2.923  1.00  0.00     0.017 A 
HETATM   10  C17 UNK     1      -4.564  -2.137   0.281  1.00  0.00     0.099 A 
HETATM   11  C19 UNK     1      -3.778  -1.859  -0.933  1.00  0.00     0.289 A 
HETATM   12  O4  UNK     1      -4.216  -2.121  -2.048  1.00  0.00    -0.260 OA
HETATM   13  C15 UNK     1      -0.958  -0.364   3.005  1.00  0.00     0.030 A 
BRANCH   8  14
HETATM   14  C18 UNK     1      -4.960  -2.168   2.725  1.00  0.00     0.418 C 
HETATM   15  F1  UNK     1      -4.318  -1.814   3.855  1.00  0.00    -0.166 F 
HETATM   16  F2  UNK     1      -6.127  -1.496   2.681  1.00  0.00    -0.166 F 
HETATM   17  F3  UNK     1      -5.241  -3.484   2.801  1.00  0.00    -0.166 F 
ENDBRANCH   8  14
ENDBRANCH   1   3
BRANCH   1  18
HETATM   18  C16 UNK     1       1.789   1.146   0.990  1.00  0.00     0.177 C 
HETATM   19  S2  UNK     1       3.328   1.701   1.393  1.00  0.00    -0.040 SA
BRANCH  18  20
HETATM   20  N1  UNK     1       1.322   1.361  -0.277  1.00  0.00    -0.327 N 
HETATM   21  H9  UNK     1       0.329   1.583  -0.281  1.00  0.00     0.169 HD
BRANCH  20  22
HETATM   22  C5  UNK     1       1.975   2.030  -1.320  1.00  0.00     0.093 A 
HETATM   23  C2  UNK     1       2.966   1.612  -2.147  1.00  0.00     0.080 A 
HETATM   24  C1  UNK     1       3.329   2.636  -3.070  1.00  0.00    -0.027 A 
HETATM   25  C4  UNK     1       2.586   3.782  -2.888  1.00  0.00    -0.012 A 
HETATM   26  S1  UNK     1       1.458   3.621  -1.610  1.00  0.00    -0.076 SA
HETATM   27  C9  UNK     1       2.652   5.060  -3.633  1.00  0.00     0.057 C 
BRANCH  23  28
HETATM   28  C13 UNK     1       3.556   0.298  -2.081  1.00  0.00     0.296 C 
HETATM   29  O3  UNK     1       4.729   0.051  -2.397  1.00  0.00    -0.259 OA
BRANCH  28  30
HETATM   30  O2  UNK     1       2.695  -0.679  -1.631  1.00  0.00    -0.322 OA
HETATM   31  C20 UNK     1       3.218  -2.010  -1.541  1.00  0.00     0.213 C 
ENDBRANCH  28  30
ENDBRANCH  23  28
BRANCH  24  32
HETATM   32  C3  UNK     1       4.381   2.487  -4.106  1.00  0.00     0.036 C 
HETATM   33  C8  UNK     1       5.765   2.905  -3.613  1.00  0.00     0.010 C 
ENDBRANCH  24  32
ENDBRANCH  20  22
ENDBRANCH  18  20
ENDBRANCH   1  18
TORSDOF 8
