REMARK  7 active torsions:
REMARK  status: ('A' for Active; 'I' for Inactive)
REMARK    1  A    between atoms: C2_8  and  O1_4 
REMARK    2  A    between atoms: C3_9  and  O1_4 
REMARK    3  A    between atoms: C4_10  and  O2_5 
REMARK    4  A    between atoms: C8_14  and  O2_5 
REMARK    5  A    between atoms: C1_7  and  C5_11 
REMARK    6  A    between atoms: C3_9  and  C4_10 
REMARK    7  A    between atoms: C10_16  and  C9_15 
ROOT
HETATM    1  N1  UNK     1      -1.787   3.213  -1.804  1.00  0.00    -0.191 NA
HETATM    2  C5  UNK     1      -1.357   1.221   0.979  1.00  0.00     0.038 C 
HETATM    3  C9  UNK     1      -1.695   1.076  -0.328  1.00  0.00     0.057 C 
HETATM    4  C24 UNK     1      -1.744   2.263  -1.138  1.00  0.00     0.100 C 
ENDROOT
BRANCH   3   5
HETATM    5  C10 UNK     1      -2.001  -0.209  -0.946  1.00  0.00     0.006 A 
HETATM    6  C18 UNK     1      -3.297  -0.725  -0.988  1.00  0.00     0.047 A 
HETATM    7 Cl2  UNK     1      -4.640   0.125  -0.307  1.00  0.00    -0.083 Cl
HETATM    8  C21 UNK     1      -3.537  -1.959  -1.591  1.00  0.00     0.048 A 
HETATM    9  C23 UNK     1      -2.481  -2.678  -2.153  1.00  0.00     0.035 A 
HETATM   10  C22 UNK     1      -1.186  -2.163  -2.111  1.00  0.00     0.025 A 
HETATM   11 Cl3  UNK     1      -2.777  -4.202  -2.897  1.00  0.00    -0.084 Cl
HETATM   12  C19 UNK     1      -0.946  -0.928  -1.508  1.00  0.00     0.016 A 
ENDBRANCH   3   5
BRANCH   2  13
HETATM   13  C1  UNK     1      -1.274   0.140   1.970  1.00  0.00     0.000 A 
HETATM   14  C2  UNK     1      -0.086  -0.553   2.161  1.00  0.00     0.079 A 
HETATM   15  C7  UNK     1      -0.031  -1.575   3.108  1.00  0.00     0.039 A 
HETATM   16  C12 UNK     1      -1.164  -1.895   3.857  1.00  0.00     0.026 A 
HETATM   17  C11 UNK     1      -2.352  -1.192   3.657  1.00  0.00     0.035 A 
HETATM   18 Cl1  UNK     1      -3.750  -1.588   4.580  1.00  0.00    -0.084 Cl
HETATM   19  C6  UNK     1      -2.407  -0.170   2.710  1.00  0.00     0.038 A 
BRANCH  14  20
HETATM   20  O1  UNK     1       1.036  -0.263   1.443  1.00  0.00    -0.348 OA
BRANCH  20  21
HETATM   21  C3  UNK     1       2.187   0.147   2.178  1.00  0.00     0.202 C 
BRANCH  21  22
HETATM   22  C4  UNK     1       3.025   1.069   1.314  1.00  0.00     0.202 C 
BRANCH  22  23
HETATM   23  O2  UNK     1       3.441   0.363   0.151  1.00  0.00    -0.349 OA
BRANCH  23  24
HETATM   24  C8  UNK     1       3.609   1.102  -0.991  1.00  0.00     0.068 A 
HETATM   25  C14 UNK     1       3.994   2.435  -0.898  1.00  0.00     0.037 A 
HETATM   26  C16 UNK     1       4.166   3.186  -2.061  1.00  0.00     0.009 A 
HETATM   27  C13 UNK     1       3.953   2.600  -3.308  1.00  0.00    -0.062 A 
HETATM   28  C17 UNK     1       3.567   1.263  -3.394  1.00  0.00     0.009 A 
HETATM   29  C20 UNK     1       4.136   3.404  -4.551  1.00  0.00     0.048 C 
HETATM   30  C15 UNK     1       3.394   0.511  -2.231  1.00  0.00     0.037 A 
ENDBRANCH  23  24
ENDBRANCH  22  23
ENDBRANCH  21  22
ENDBRANCH  20  21
ENDBRANCH  14  20
ENDBRANCH   2  13
TORSDOF 7
