REMARK  5 active torsions:
REMARK  status: ('A' for Active; 'I' for Inactive)
REMARK    1  A    between atoms: C18_26  and  O1_2 
REMARK    2  A    between atoms: C4_12  and  O1_2 
REMARK       I    between atoms: C19_27  and  N1_7 
REMARK    3  A    between atoms: N1_7  and  N2_8 
REMARK       I    between atoms: C22_30  and  N2_8 
REMARK    4  A    between atoms: C11_19  and  C19_27 
REMARK    5  A    between atoms: C18_26  and  C22_30 
ROOT
HETATM    1  O5  UNK     1      -0.751   1.493  -1.174  1.00  0.00    -0.269 OA
HETATM    2  N2  UNK     1      -0.274   0.660   0.942  1.00  0.00    -0.265 N 
HETATM    3  C22 UNK     1       0.006   1.364  -0.215  1.00  0.00     0.260 C 
HETATM    4  H15 UNK     1       0.367   0.588   1.726  1.00  0.00     0.190 HD
ENDROOT
BRANCH   2   5
HETATM    5  N1  UNK     1      -1.492   0.038   1.065  1.00  0.00    -0.263 N 
HETATM    6  C19 UNK     1      -1.581  -1.118   1.812  1.00  0.00     0.276 C 
HETATM    7  O4  UNK     1      -0.659  -1.676   2.403  1.00  0.00    -0.266 OA
HETATM    8  H14 UNK     1      -2.280   0.496   0.620  1.00  0.00     0.190 HD
BRANCH   6   9
HETATM    9  C11 UNK     1      -2.944  -1.661   1.851  1.00  0.00     0.110 A 
HETATM   10  C17 UNK     1      -3.896  -1.474   0.734  1.00  0.00     0.304 A 
HETATM   11  O2  UNK     1      -5.160  -2.037   0.889  1.00  0.00    -0.274 OA
HETATM   12  O3  UNK     1      -3.592  -0.856  -0.281  1.00  0.00    -0.259 OA
HETATM   13  C7  UNK     1      -5.519  -2.751   2.049  1.00  0.00     0.089 A 
HETATM   14  C16 UNK     1      -6.807  -3.279   2.112  1.00  0.00     0.038 A 
HETATM   15  C5  UNK     1      -4.608  -2.914   3.088  1.00  0.00    -0.001 A 
HETATM   16  C21 UNK     1      -7.191  -3.989   3.247  1.00  0.00     0.003 A 
HETATM   17  C20 UNK     1      -6.290  -4.163   4.301  1.00  0.00     0.001 A 
HETATM   18  C15 UNK     1      -5.001  -3.628   4.223  1.00  0.00     0.014 A 
HETATM   19  C12 UNK     1      -3.279  -2.338   2.956  1.00  0.00     0.037 A 
ENDBRANCH   6   9
ENDBRANCH   2   5
BRANCH   3  20
HETATM   20  C18 UNK     1       1.387   1.981  -0.170  1.00  0.00     0.280 C 
BRANCH  20  21
HETATM   21  O1  UNK     1       1.657   2.684  -1.364  1.00  0.00    -0.341 OA
BRANCH  21  22
HETATM   22  C4  UNK     1       2.969   2.748  -1.771  1.00  0.00     0.087 A 
HETATM   23  C3  UNK     1       3.380   2.237  -2.996  1.00  0.00     0.055 A 
HETATM   24 Br1  UNK     1       2.036   1.432  -4.102  1.00  0.00    -0.047 Br
HETATM   25  C1  UNK     1       4.728   2.320  -3.382  1.00  0.00    -0.006 A 
HETATM   26  C2  UNK     1       5.661   2.930  -2.510  1.00  0.00    -0.024 A 
HETATM   27  C8  UNK     1       5.169   1.811  -4.614  1.00  0.00     0.014 A 
HETATM   28  C10 UNK     1       7.009   3.013  -2.897  1.00  0.00     0.012 A 
HETATM   29  C6  UNK     1       5.220   3.439  -1.278  1.00  0.00     0.015 A 
HETATM   30  C14 UNK     1       7.430   2.501  -4.124  1.00  0.00     0.001 A 
HETATM   31  C13 UNK     1       6.512   1.902  -4.982  1.00  0.00     0.001 A 
HETATM   32  C9  UNK     1       3.877   3.348  -0.911  1.00  0.00     0.039 A 
ENDBRANCH  21  22
ENDBRANCH  20  21
ENDBRANCH   3  20
TORSDOF 5
