REMARK  5 active torsions:
REMARK  status: ('A' for Active; 'I' for Inactive)
REMARK    1  A    between atoms: C12_21  and  O1_2 
REMARK    2  A    between atoms: C9_18  and  O1_2 
REMARK    3  A    between atoms: C17_26  and  N1_8 
REMARK    4  A    between atoms: C20_29  and  N2_9 
REMARK    5  A    between atoms: C5_14  and  C6_15 
ROOT
HETATM    1  C5  UNK     1       0.363   0.517   2.504  1.00  0.00    -0.035 A 
HETATM    2  C9  UNK     1       1.601  -1.956   2.357  1.00  0.00     0.076 A 
HETATM    3  C10 UNK     1      -0.408  -0.615   2.298  1.00  0.00     0.014 A 
HETATM    4  C11 UNK     1       1.739   0.440   2.638  1.00  0.00     0.014 A 
HETATM    5  C13 UNK     1       0.216  -1.860   2.224  1.00  0.00     0.038 A 
HETATM    6  C14 UNK     1       2.363  -0.805   2.564  1.00  0.00     0.038 A 
ENDROOT
BRANCH   2   7
HETATM    7  O1  UNK     1       2.210  -3.171   2.286  1.00  0.00    -0.308 OA
BRANCH   7   8
HETATM    8  C12 UNK     1       1.816  -4.030   1.274  1.00  0.00     0.109 A 
HETATM    9  C17 UNK     1       1.284  -5.270   1.578  1.00  0.00     0.139 A 
HETATM   10  C19 UNK     1       0.894  -6.117   0.540  1.00  0.00     0.075 A 
HETATM   11  C20 UNK     1       1.044  -5.711  -0.786  1.00  0.00     0.105 A 
HETATM   12  C21 UNK     1       1.583  -4.457  -1.074  1.00  0.00     0.039 A 
HETATM   13  C18 UNK     1       1.972  -3.610  -0.037  1.00  0.00     0.042 A 
BRANCH   9  14
HETATM   14  N1  UNK     1       1.124  -5.701   2.923  1.00  0.00    -0.113 N 
HETATM   15  O3  UNK     1       0.635  -6.834   3.143  1.00  0.00    -0.532 OA
HETATM   16  O4  UNK     1       1.476  -4.934   3.851  1.00  0.00    -0.532 OA
ENDBRANCH   9  14
BRANCH  11  17
HETATM   17  N2  UNK     1       0.647  -6.572  -1.843  1.00  0.00    -0.116 N 
HETATM   18  O5  UNK     1       0.790  -6.186  -3.028  1.00  0.00    -0.532 OA
HETATM   19  O6  UNK     1       0.165  -7.696  -1.563  1.00  0.00    -0.532 OA
ENDBRANCH  11  17
ENDBRANCH   7   8
ENDBRANCH   2   7
BRANCH   1  20
HETATM   20  C6  UNK     1      -0.296   1.834   2.582  1.00  0.00     0.034 C 
HETATM   21  C2  UNK     1      -0.517   2.660   1.558  1.00  0.00     0.057 A 
HETATM   22  S1  UNK     1      -0.068   2.347  -0.086  1.00  0.00    -0.086 SA
HETATM   23  C4  UNK     1      -1.191   3.976   1.720  1.00  0.00     0.200 A 
HETATM   24  C3  UNK     1      -0.735   3.903  -0.616  1.00  0.00     0.020 A 
HETATM   25  C1  UNK     1      -1.289   4.652   0.420  1.00  0.00     0.032 A 
HETATM   26  C8  UNK     1      -0.745   4.396  -1.913  1.00  0.00     0.020 A 
HETATM   27  C7  UNK     1      -1.862   5.896   0.202  1.00  0.00     0.017 A 
HETATM   28  C15 UNK     1      -1.873   6.394  -1.101  1.00  0.00     0.001 A 
HETATM   29  C16 UNK     1      -1.318   5.649  -2.152  1.00  0.00     0.001 A 
HETATM   30  O2  UNK     1      -1.606   4.443   2.765  1.00  0.00    -0.286 OA
ENDBRANCH   1  20
TORSDOF 5
