REMARK  5 active torsions:
REMARK  status: ('A' for Active; 'I' for Inactive)
REMARK    1  A    between atoms: C14_20  and  O3_3 
REMARK    2  A    between atoms: C18_24  and  O3_3 
REMARK    3  A    between atoms: C6_12  and  N1_5 
REMARK    4  A    between atoms: C1_7  and  N2_6 
REMARK       I    between atoms: C8_14  and  N2_6 
REMARK    5  A    between atoms: C8_14  and  C9_15 
ROOT
HETATM    1  O2  UNK     1      -1.917  -0.397  -0.072  1.00  0.00    -0.271 OA
HETATM    2  O4  UNK     1      -0.280   0.634  -1.288  1.00  0.00    -0.259 OA
HETATM    3  C9  UNK     1       0.171   0.273   1.010  1.00  0.00     0.108 A 
HETATM    4  C10 UNK     1      -0.253  -0.205   2.186  1.00  0.00     0.037 A 
HETATM    5  C11 UNK     1      -0.665   0.197  -0.209  1.00  0.00     0.304 A 
HETATM    6  C12 UNK     1      -1.567  -0.819   2.296  1.00  0.00     0.002 A 
HETATM    7  C13 UNK     1      -2.370  -0.901   1.163  1.00  0.00     0.123 A 
HETATM    8  C14 UNK     1      -3.638  -1.477   1.201  1.00  0.00     0.103 A 
HETATM    9  C15 UNK     1      -2.052  -1.329   3.503  1.00  0.00     0.014 A 
HETATM   10  C16 UNK     1      -4.113  -1.984   2.408  1.00  0.00     0.040 A 
HETATM   11  C17 UNK     1      -3.322  -1.910   3.557  1.00  0.00     0.004 A 
ENDROOT
BRANCH   3  12
HETATM   12  C8  UNK     1       1.516   0.877   0.999  1.00  0.00     0.258 C 
HETATM   13  O1  UNK     1       1.963   1.425   2.001  1.00  0.00    -0.267 OA
HETATM   14  N2  UNK     1       2.150   0.743  -0.221  1.00  0.00    -0.352 N 
HETATM   15  H12 UNK     1       1.675   0.279  -0.988  1.00  0.00     0.163 HD
BRANCH  14  16
HETATM   16  C1  UNK     1       3.477   1.258  -0.475  1.00  0.00     0.088 C 
HETATM   17  C2  UNK     1       3.422   2.707  -0.965  1.00  0.00     0.055 C 
HETATM   18  C4  UNK     1       2.908   2.810  -2.404  1.00  0.00     0.274 C 
HETATM   19  N1  UNK     1       3.710   1.981  -3.314  1.00  0.00     0.088 N 
HETATM   20  C5  UNK     1       3.681   0.568  -2.912  1.00  0.00     0.274 C 
HETATM   21  C3  UNK     1       4.222   0.388  -1.490  1.00  0.00     0.055 C 
BRANCH  19  22
HETATM   22  C6  UNK     1       3.240   2.131  -4.691  1.00  0.00     0.268 C 
HETATM   23  C7  UNK     1       3.305   3.574  -5.146  1.00  0.00     0.037 C 
ENDBRANCH  19  22
ENDBRANCH  14  16
ENDBRANCH   3  12
BRANCH   8  24
HETATM   24  O3  UNK     1      -4.411  -1.551   0.085  1.00  0.00    -0.349 OA
BRANCH  24  25
HETATM   25  C18 UNK     1      -5.319  -2.648  -0.006  1.00  0.00     0.171 C 
HETATM   26  C19 UNK     1      -5.528  -2.997  -1.464  1.00  0.00     0.034 C 
ENDBRANCH  24  25
ENDBRANCH   8  24
TORSDOF 5
