REMARK  7 active torsions:
REMARK  status: ('A' for Active; 'I' for Inactive)
REMARK    1  A    between atoms: C2_6  and  O1_1 
REMARK    2  A    between atoms: C3_7  and  O1_1 
REMARK    3  A    between atoms: C19_23  and  O2_2 
REMARK    4  A    between atoms: C1_5  and  C2_6 
REMARK    5  A    between atoms: C12_16  and  C4_8 
REMARK    6  A    between atoms: C11_15  and  C19_23 
REMARK    7  A    between atoms: C13_17  and  C15_19 
ROOT
HETATM    1  N1  UNK     1      -3.801  -1.522  -1.136  1.00  0.00    -0.191 NA
HETATM    2  C12 UNK     1      -2.422  -1.343   2.037  1.00  0.00     0.034 C 
HETATM    3  C13 UNK     1      -3.580  -1.720   1.437  1.00  0.00     0.055 C 
HETATM    4  C23 UNK     1      -3.700  -1.610   0.017  1.00  0.00     0.100 C 
ENDROOT
BRANCH   3   5
HETATM    5  C15 UNK     1      -4.729  -2.252   2.195  1.00  0.00    -0.015 A 
HETATM    6  C17 UNK     1      -4.820  -3.615   2.418  1.00  0.00     0.013 A 
HETATM    7  C20 UNK     1      -5.906  -4.117   3.135  1.00  0.00     0.001 A 
HETATM    8  C22 UNK     1      -6.884  -3.249   3.618  1.00  0.00     0.000 A 
HETATM    9  C21 UNK     1      -6.777  -1.878   3.384  1.00  0.00     0.001 A 
HETATM   10  C18 UNK     1      -5.691  -1.376   2.667  1.00  0.00     0.013 A 
ENDBRANCH   3   5
BRANCH   2  11
HETATM   11  C4  UNK     1      -1.232  -0.815   1.386  1.00  0.00    -0.035 A 
HETATM   12  C10 UNK     1      -1.097   0.559   1.189  1.00  0.00     0.014 A 
HETATM   13  C8  UNK     1       0.044   1.065   0.566  1.00  0.00     0.037 A 
HETATM   14  C3  UNK     1       1.049   0.197   0.139  1.00  0.00     0.069 A 
HETATM   15  C7  UNK     1       0.913  -1.177   0.336  1.00  0.00     0.037 A 
HETATM   16  C9  UNK     1      -0.228  -1.683   0.959  1.00  0.00     0.014 A 
BRANCH  14  17
HETATM   17  O1  UNK     1       2.162   0.691  -0.468  1.00  0.00    -0.347 OA
BRANCH  17  18
HETATM   18  C2  UNK     1       2.236   2.106  -0.638  1.00  0.00     0.214 C 
BRANCH  18  19
HETATM   19  C1  UNK     1       3.512   2.448  -1.350  1.00  0.00    -0.033 A 
HETATM   20  C5  UNK     1       3.531   2.506  -2.739  1.00  0.00     0.027 A 
HETATM   21  C11 UNK     1       4.718   2.823  -3.400  1.00  0.00     0.038 A 
HETATM   22  C16 UNK     1       5.877   3.080  -2.668  1.00  0.00     0.018 A 
HETATM   23  C14 UNK     1       5.850   3.019  -1.275  1.00  0.00     0.002 A 
HETATM   24  C6  UNK     1       4.664   2.702  -0.614  1.00  0.00     0.009 A 
BRANCH  21  25
HETATM   25  C19 UNK     1       4.747   2.886  -4.853  1.00  0.00     0.176 C 
HETATM   26  O3  UNK     1       3.783   2.679  -5.598  1.00  0.00    -0.646 OA
BRANCH  25  27
HETATM   27  O2  UNK     1       5.978   3.209  -5.335  1.00  0.00    -0.773 OA
HETATM   28  H17 UNK     1       5.986   3.249  -6.316  1.00  0.00     0.167 HD
ENDBRANCH  25  27
ENDBRANCH  21  25
ENDBRANCH  18  19
ENDBRANCH  17  18
ENDBRANCH  14  17
ENDBRANCH   2  11
TORSDOF 7
