REMARK  6 active torsions:
REMARK  status: ('A' for Active; 'I' for Inactive)
REMARK    1  A    between atoms: C13_21  and  O1_2 
REMARK    2  A    between atoms: C19_27  and  O1_2 
REMARK    3  A    between atoms: C1_9  and  C9_17 
REMARK    4  A    between atoms: C11_19  and  C4_12 
REMARK    5  A    between atoms: C13_21  and  C8_16 
REMARK    6  A    between atoms: C12_20  and  C19_27 
ROOT
HETATM    1  O3  UNK     1       0.329  -2.142   1.167  1.00  0.00    -0.293 OA
HETATM    2  N1  UNK     1      -2.926  -0.210  -1.683  1.00  0.00    -0.362 N 
HETATM    3  C1  UNK     1      -3.176  -1.538   1.825  1.00  0.00     0.031 C 
HETATM    4  C2  UNK     1      -3.664  -1.305   0.387  1.00  0.00     0.067 C 
HETATM    5  C3  UNK     1      -1.241  -1.074  -0.258  1.00  0.00     0.024 C 
HETATM    6  C4  UNK     1      -0.152  -0.557  -1.192  1.00  0.00     0.104 C 
HETATM    7  C5  UNK     1      -2.548  -0.862  -0.524  1.00  0.00     0.021 C 
HETATM    8  C6  UNK     1      -1.946  -2.448   1.820  1.00  0.00     0.093 C 
HETATM    9  C7  UNK     1      -0.852  -1.883   0.939  1.00  0.00     0.159 C 
HETATM   10  C8  UNK     1      -0.714   0.011  -2.497  1.00  0.00     0.052 C 
HETATM   11  C10 UNK     1      -2.044   0.183  -2.678  1.00  0.00     0.018 C 
HETATM   12  C15 UNK     1      -2.689   0.778  -3.900  1.00  0.00     0.069 C 
HETATM   13  H7  UNK     1      -3.916  -0.073  -1.848  1.00  0.00     0.165 HD
ENDROOT
BRANCH   6  14
HETATM   14  C11 UNK     1       0.685   0.480  -0.493  1.00  0.00     0.029 A 
HETATM   15  C20 UNK     1       2.130   0.206  -0.291  1.00  0.00     0.194 A 
HETATM   16  C23 UNK     1       2.904   1.254   0.399  1.00  0.00     0.050 A 
HETATM   17  O6  UNK     1       2.655  -0.831  -0.674  1.00  0.00    -0.287 OA
HETATM   18  C27 UNK     1       2.253   2.416   0.814  1.00  0.00     0.089 A 
HETATM   19  C28 UNK     1       4.271   1.091   0.637  1.00  0.00     0.042 A 
HETATM   20  C30 UNK     1       2.965   3.421   1.469  1.00  0.00     0.040 A 
HETATM   21  O4  UNK     1       0.913   2.629   0.606  1.00  0.00    -0.321 OA
HETATM   22  C32 UNK     1       4.330   3.260   1.707  1.00  0.00     0.026 A 
HETATM   23  C31 UNK     1       4.981   2.097   1.292  1.00  0.00     0.035 A 
HETATM   24 Cl1  UNK     1       6.666   1.906   1.590  1.00  0.00    -0.084 Cl
HETATM   25  C21 UNK     1       0.205   1.645  -0.038  1.00  0.00     0.154 A 
ENDBRANCH   6  14
BRANCH  10  26
HETATM   26  C13 UNK     1       0.261   0.311  -3.558  1.00  0.00     0.292 C 
HETATM   27  O5  UNK     1       0.627  -0.508  -4.380  1.00  0.00    -0.259 OA
BRANCH  26  28
HETATM   28  O1  UNK     1       0.641   1.606  -3.435  1.00  0.00    -0.315 OA
BRANCH  28  29
HETATM   29  C19 UNK     1       1.595   2.052  -4.405  1.00  0.00     0.211 C 
BRANCH  29  30
HETATM   30  C12 UNK     1       2.992   1.810  -3.870  1.00  0.00     0.145 C 
HETATM   31  O2  UNK     1       3.192   2.570  -2.666  1.00  0.00    -0.384 OA
HETATM   32  C22 UNK     1       4.511   3.135  -2.699  1.00  0.00     0.168 C 
HETATM   33  C18 UNK     1       5.229   2.511  -3.877  1.00  0.00     0.029 C 
HETATM   34  C14 UNK     1       4.091   2.239  -4.827  1.00  0.00     0.036 C 
ENDBRANCH  29  30
ENDBRANCH  28  29
ENDBRANCH  26  28
ENDBRANCH  10  26
BRANCH   3  35
HETATM   35  C9  UNK     1      -4.280  -2.068   2.720  1.00  0.00    -0.053 A 
HETATM   36  C16 UNK     1      -4.866  -3.301   2.442  1.00  0.00     0.008 A 
HETATM   37  C24 UNK     1      -5.881  -3.789   3.266  1.00  0.00     0.007 A 
HETATM   38  C26 UNK     1      -6.307  -3.043   4.365  1.00  0.00    -0.062 A 
HETATM   39  C25 UNK     1      -5.718  -1.809   4.640  1.00  0.00     0.007 A 
HETATM   40  C29 UNK     1      -7.391  -3.565   5.245  1.00  0.00     0.048 C 
HETATM   41  C17 UNK     1      -4.703  -1.321   3.817  1.00  0.00     0.008 A 
ENDBRANCH   3  35
TORSDOF 6
