REMARK  6 active torsions:
REMARK  status: ('A' for Active; 'I' for Inactive)
REMARK    1  A    between atoms: C12_21  and  O2_2 
REMARK    2  A    between atoms: C13_22  and  O2_2 
REMARK    3  A    between atoms: C11_20  and  N1_8 
REMARK       I    between atoms: C9_18  and  N1_8 
REMARK    4  A    between atoms: C7_16  and  N2_9 
REMARK    5  A    between atoms: C3_12  and  C9_18 
REMARK    6  A    between atoms: C11_20  and  C12_21 
ROOT
HETATM    1  O1  UNK     1       0.043  -0.399  -2.166  1.00  0.00    -0.274 OA
HETATM    2  O3  UNK     1      -1.624  -1.552  -1.110  1.00  0.00    -0.259 OA
HETATM    3  C1  UNK     1       1.595   0.936  -0.855  1.00  0.00     0.001 A 
HETATM    4  C2  UNK     1       1.156   0.460  -2.086  1.00  0.00     0.089 A 
HETATM    5  C3  UNK     1      -0.171  -0.284   0.268  1.00  0.00     0.108 A 
HETATM    6  C4  UNK     1       0.885   0.533   0.349  1.00  0.00     0.037 A 
HETATM    7  C5  UNK     1       2.703   1.786  -0.817  1.00  0.00     0.050 A 
HETATM    8  C6  UNK     1       1.790   0.809  -3.277  1.00  0.00     0.041 A 
HETATM    9  C7  UNK     1       3.350   2.145  -2.003  1.00  0.00     0.103 A 
HETATM   10  C8  UNK     1      -0.656  -0.803  -1.031  1.00  0.00     0.304 A 
HETATM   11  C10 UNK     1       2.894   1.657  -3.230  1.00  0.00     0.039 A 
ENDROOT
BRANCH   5  12
HETATM   12  C9  UNK     1      -0.820  -0.634   1.537  1.00  0.00     0.258 C 
HETATM   13  O4  UNK     1      -0.812   0.147   2.487  1.00  0.00    -0.267 OA
HETATM   14  N1  UNK     1      -1.404  -1.888   1.515  1.00  0.00    -0.347 N 
HETATM   15  H7  UNK     1      -1.343  -2.466   0.683  1.00  0.00     0.163 HD
BRANCH  14  16
HETATM   16  C11 UNK     1      -2.100  -2.453   2.649  1.00  0.00     0.233 C 
BRANCH  16  17
HETATM   17  C12 UNK     1      -3.574  -2.125   2.666  1.00  0.00     0.276 C 
HETATM   18  O5  UNK     1      -4.322  -2.528   3.551  1.00  0.00    -0.263 OA
BRANCH  17  19
HETATM   19  O2  UNK     1      -3.947  -1.353   1.608  1.00  0.00    -0.321 OA
BRANCH  19  20
HETATM   20  C13 UNK     1      -5.333  -1.001   1.554  1.00  0.00     0.174 C 
HETATM   21  C14 UNK     1      -5.578  -0.149   0.327  1.00  0.00     0.034 C 
ENDBRANCH  19  20
ENDBRANCH  17  19
ENDBRANCH  16  17
ENDBRANCH  14  16
ENDBRANCH   5  12
BRANCH   9  22
HETATM   22  N2  UNK     1       4.475   3.010  -1.960  1.00  0.00    -0.116 N 
HETATM   23  O6  UNK     1       5.043   3.323  -3.035  1.00  0.00    -0.532 OA
HETATM   24  O7  UNK     1       4.870   3.439  -0.849  1.00  0.00    -0.532 OA
ENDBRANCH   9  22
TORSDOF 6
