REMARK  2 active torsions:
REMARK  status: ('A' for Active; 'I' for Inactive)
REMARK       I    between atoms: C7_13  and  N1_5 
REMARK       I    between atoms: C6_12  and  N2_6 
REMARK    1  A    between atoms: C8_14  and  N2_6 
REMARK    2  A    between atoms: C1_7  and  C6_12 
ROOT
HETATM    1  O1  UNK     1      -0.393   0.168   1.343  1.00  0.00    -0.273 OA
HETATM    2  N2  UNK     1      -0.882   0.229  -0.963  1.00  0.00    -0.327 N 
HETATM    3  C6  UNK     1      -1.138  -0.000   0.383  1.00  0.00     0.226 C 
HETATM    4  H10 UNK     1      -1.619   0.028  -1.635  1.00  0.00     0.169 HD
ENDROOT
BRANCH   2   5
HETATM    5  C8  UNK     1       0.314   0.710  -1.501  1.00  0.00     0.037 A 
HETATM    6  C10 UNK     1       1.386   1.005  -0.666  1.00  0.00     0.067 A 
HETATM    7  C13 UNK     1       2.573   1.484  -1.225  1.00  0.00     0.092 A 
HETATM    8  C12 UNK     1       2.724   1.680  -2.598  1.00  0.00     0.004 A 
HETATM    9  O3  UNK     1       3.624   1.764  -0.329  1.00  0.00    -0.275 OA
HETATM   10  C14 UNK     1       1.631   1.377  -3.422  1.00  0.00     0.017 A 
HETATM   11  C15 UNK     1       4.008   2.187  -3.099  1.00  0.00    -0.043 A 
HETATM   12  C11 UNK     1       0.436   0.896  -2.877  1.00  0.00     0.030 A 
HETATM   13  C16 UNK     1       4.990   2.445  -2.224  1.00  0.00     0.090 A 
HETATM   14  C17 UNK     1       4.203   2.408  -4.571  1.00  0.00     0.049 C 
HETATM   15  C18 UNK     1       4.846   2.244  -0.773  1.00  0.00     0.288 A 
HETATM   16  O4  UNK     1       5.767   2.491  -0.002  1.00  0.00    -0.260 OA
ENDBRANCH   2   5
BRANCH   3  17
HETATM   17  C1  UNK     1      -2.530  -0.516   0.580  1.00  0.00     0.081 C 
HETATM   18  C2  UNK     1      -3.071  -0.062   1.939  1.00  0.00     0.034 C 
HETATM   19  C4  UNK     1      -4.438  -0.679   2.223  1.00  0.00     0.126 C 
HETATM   20  N1  UNK     1      -4.387  -2.140   2.089  1.00  0.00    -0.352 N 
HETATM   21  C5  UNK     1      -3.903  -2.620   0.793  1.00  0.00     0.126 C 
HETATM   22  C7  UNK     1      -4.788  -3.054   3.063  1.00  0.00     0.215 C 
HETATM   23  C3  UNK     1      -2.525  -2.044   0.479  1.00  0.00     0.034 C 
HETATM   24  O2  UNK     1      -4.735  -4.279   2.925  1.00  0.00    -0.274 OA
HETATM   25  C9  UNK     1      -5.313  -2.480   4.354  1.00  0.00     0.117 C 
ENDBRANCH   3  17
TORSDOF 2
