REMARK  2 active torsions:
REMARK  status: ('A' for Active; 'I' for Inactive)
REMARK    1  A    between atoms: C8_15  and  N1_6 
REMARK    2  A    between atoms: C1_8  and  C3_10 
ROOT
HETATM    1  O1  UNK     1       1.843  -0.370   1.680  1.00  0.00    -0.269 OA
HETATM    2  O2  UNK     1       2.858   0.415  -0.281  1.00  0.00    -0.286 OA
HETATM    3  O3  UNK     1      -0.593   2.192  -1.501  1.00  0.00    -0.287 OA
HETATM    4  N2  UNK     1      -2.252   0.172   4.161  1.00  0.00    -0.191 NA
HETATM    5  C1  UNK     1      -0.717   0.713   0.979  1.00  0.00     0.108 C 
HETATM    6  C2  UNK     1       0.521   0.855   0.122  1.00  0.00     0.065 A 
HETATM    7  C4  UNK     1      -0.398   0.132   2.350  1.00  0.00     0.086 C 
HETATM    8  C5  UNK     1       1.705   0.325   0.483  1.00  0.00     0.204 A 
HETATM    9  C6  UNK     1       0.436   1.633  -1.143  1.00  0.00     0.197 A 
HETATM   10  C7  UNK     1       1.661   1.701  -1.951  1.00  0.00     0.049 A 
HETATM   11  C8  UNK     1       0.824  -0.374   2.631  1.00  0.00     0.162 C 
HETATM   12  C9  UNK     1       2.813   1.084  -1.475  1.00  0.00     0.092 A 
HETATM   13  C12 UNK     1       1.676   2.375  -3.175  1.00  0.00     0.018 A 
HETATM   14  C13 UNK     1       3.991   1.133  -2.222  1.00  0.00     0.038 A 
HETATM   15  C16 UNK     1      -1.422   0.154   3.350  1.00  0.00     0.100 C 
HETATM   16  C18 UNK     1       2.854   2.424  -3.921  1.00  0.00     0.001 A 
HETATM   17  C19 UNK     1       4.010   1.804  -3.445  1.00  0.00     0.003 A 
ENDROOT
BRANCH   5  18
HETATM   18  C3  UNK     1      -1.744  -0.133   0.284  1.00  0.00    -0.043 A 
HETATM   19  C10 UNK     1      -1.450  -1.456  -0.027  1.00  0.00     0.030 A 
HETATM   20  C14 UNK     1      -2.404  -2.241  -0.674  1.00  0.00     0.050 A 
HETATM   21 Br1  UNK     1      -2.006  -4.041  -1.097  1.00  0.00    -0.048 Br
HETATM   22  C17 UNK     1      -3.645  -1.698  -1.006  1.00  0.00     0.133 A 
HETATM   23  C15 UNK     1      -3.932  -0.370  -0.692  1.00  0.00     0.044 A 
HETATM   24  F1  UNK     1      -4.575  -2.438  -1.628  1.00  0.00    -0.205 F 
HETATM   25  C11 UNK     1      -2.978   0.415  -0.045  1.00  0.00     0.011 A 
ENDBRANCH   5  18
BRANCH  11  26
HETATM   26  N1  UNK     1       1.191  -0.927   3.827  1.00  0.00    -0.379 N 
HETATM   27  H10 UNK     1       2.134  -1.279   3.933  1.00  0.00     0.158 HD
HETATM   28  H9  UNK     1       0.535  -0.989   4.595  1.00  0.00     0.158 HD
ENDBRANCH  11  26
TORSDOF 2
