REMARK  4 active torsions:
REMARK  status: ('A' for Active; 'I' for Inactive)
REMARK    1  A    between atoms: C5_10  and  N1_3 
REMARK    2  A    between atoms: C6_11  and  N2_4 
REMARK    3  A    between atoms: C5_10  and  C7_12 
REMARK    4  A    between atoms: C6_11  and  C8_13 
ROOT
HETATM    1  N3  UNK     1       3.674   1.225  -5.177  1.00  0.00    -0.191 NA
HETATM    2  C8  UNK     1       3.154   2.787  -2.065  1.00  0.00    -0.009 A 
HETATM    3  C12 UNK     1       4.178   2.453  -2.951  1.00  0.00     0.052 A 
HETATM    4  C13 UNK     1       3.450   3.447  -0.873  1.00  0.00     0.010 A 
HETATM    5  C19 UNK     1       5.499   2.780  -2.645  1.00  0.00     0.023 A 
HETATM    6  C20 UNK     1       4.771   3.774  -0.567  1.00  0.00     0.001 A 
HETATM    7  C21 UNK     1       5.795   3.441  -1.452  1.00  0.00     0.002 A 
HETATM    8  C23 UNK     1       3.900   1.775  -4.181  1.00  0.00     0.100 C 
ENDROOT
BRANCH   2   9
HETATM    9  C6  UNK     1       1.723   2.452  -2.361  1.00  0.00     0.312 C 
BRANCH   9  10
HETATM   10  N2  UNK     1       1.410   1.129  -1.823  1.00  0.00     0.096 N 
HETATM   11  C3  UNK     1       1.148   1.201  -0.381  1.00  0.00     0.303 C 
HETATM   12  C1  UNK     1       0.815  -0.185   0.184  1.00  0.00     0.303 C 
HETATM   13  N1  UNK     1      -0.333  -0.773  -0.518  1.00  0.00     0.096 N 
HETATM   14  C2  UNK     1      -0.069  -0.846  -1.960  1.00  0.00     0.303 C 
HETATM   15  C4  UNK     1       0.263   0.540  -2.524  1.00  0.00     0.303 C 
BRANCH  13  16
HETATM   16  C5  UNK     1      -0.648  -2.095   0.020  1.00  0.00     0.312 C 
BRANCH  16  17
HETATM   17  C7  UNK     1      -1.422  -1.864   1.268  1.00  0.00    -0.011 A 
HETATM   18  C10 UNK     1      -0.807  -1.744   2.453  1.00  0.00     0.092 A 
HETATM   19  C15 UNK     1      -1.531  -1.515   3.715  1.00  0.00     0.288 A 
HETATM   20  O1  UNK     1      -2.912  -1.426   3.633  1.00  0.00    -0.275 OA
HETATM   21  O2  UNK     1      -0.934  -1.410   4.780  1.00  0.00    -0.260 OA
HETATM   22  C11 UNK     1      -3.587  -1.548   2.402  1.00  0.00     0.090 A 
HETATM   23  C9  UNK     1      -2.887  -1.765   1.214  1.00  0.00     0.006 A 
HETATM   24  C16 UNK     1      -4.978  -1.441   2.439  1.00  0.00     0.045 A 
HETATM   25  C14 UNK     1      -3.632  -1.876   0.032  1.00  0.00     0.015 A 
HETATM   26  C18 UNK     1      -5.027  -1.771   0.054  1.00  0.00     0.007 A 
HETATM   27  C17 UNK     1      -5.699  -1.554   1.255  1.00  0.00    -0.059 A 
HETATM   28  C22 UNK     1      -7.186  -1.444   1.271  1.00  0.00     0.048 C 
ENDBRANCH  16  17
ENDBRANCH  13  16
ENDBRANCH   9  10
ENDBRANCH   2   9
TORSDOF 4
