REMARK  4 active torsions:
REMARK  status: ('A' for Active; 'I' for Inactive)
REMARK    1  A    between atoms: C6_10  and  O2_2 
REMARK    2  A    between atoms: C12_16  and  O3_3 
REMARK    3  A    between atoms: C16_20  and  O3_3 
REMARK    4  A    between atoms: C1_5  and  C3_7 
ROOT
HETATM    1  O1  UNK     1       2.194   1.110   0.097  1.00  0.00    -0.271 OA
HETATM    2  O4  UNK     1       1.094   0.228   1.890  1.00  0.00    -0.259 OA
HETATM    3  C1  UNK     1      -0.004   0.058  -0.214  1.00  0.00     0.051 A 
HETATM    4  C2  UNK     1       1.205   0.977  -2.116  1.00  0.00     0.002 A 
HETATM    5  C4  UNK     1       2.250   1.365  -1.286  1.00  0.00     0.123 A 
HETATM    6  C5  UNK     1       0.054   0.310  -1.531  1.00  0.00     0.032 A 
HETATM    7  C6  UNK     1       3.380   2.012  -1.781  1.00  0.00     0.102 A 
HETATM    8  C7  UNK     1       1.112   0.460   0.686  1.00  0.00     0.299 A 
HETATM    9  C8  UNK     1       1.296   1.246  -3.484  1.00  0.00     0.014 A 
HETATM   10  C11 UNK     1       3.463   2.277  -3.147  1.00  0.00     0.040 A 
HETATM   11  C13 UNK     1       2.423   1.894  -3.996  1.00  0.00     0.004 A 
ENDROOT
BRANCH   3  12
HETATM   12  C3  UNK     1      -1.200  -0.607   0.335  1.00  0.00    -0.020 A 
HETATM   13  C10 UNK     1      -2.280   0.156   0.777  1.00  0.00     0.015 A 
HETATM   14  C15 UNK     1      -3.412  -0.472   1.295  1.00  0.00     0.037 A 
HETATM   15  C12 UNK     1      -3.463  -1.864   1.372  1.00  0.00     0.068 A 
HETATM   16  C14 UNK     1      -2.383  -2.627   0.930  1.00  0.00     0.037 A 
HETATM   17  C9  UNK     1      -1.251  -1.999   0.411  1.00  0.00     0.015 A 
BRANCH  15  18
HETATM   18  O3  UNK     1      -4.568  -2.478   1.877  1.00  0.00    -0.352 OA
BRANCH  18  19
HETATM   19  C16 UNK     1      -5.310  -1.767   2.868  1.00  0.00     0.171 C 
HETATM   20  C18 UNK     1      -5.978  -2.763   3.792  1.00  0.00     0.034 C 
ENDBRANCH  18  19
ENDBRANCH  15  18
ENDBRANCH   3  12
BRANCH   7  21
HETATM   21  O2  UNK     1       4.395   2.386  -0.957  1.00  0.00    -0.353 OA
HETATM   22  C17 UNK     1       5.512   3.043  -1.556  1.00  0.00     0.210 C 
ENDBRANCH   7  21
TORSDOF 4
