REMARK  3 active torsions:
REMARK  status: ('A' for Active; 'I' for Inactive)
REMARK    1  A    between atoms: C14_21  and  N1_6 
REMARK    2  A    between atoms: C17_24  and  N2_7 
REMARK       I    between atoms: C22_29  and  N2_7 
REMARK    3  A    between atoms: C11_18  and  C4_11 
ROOT
HETATM    1  O1  UNK     1       2.826   1.932   1.474  1.00  0.00    -0.332 OA
HETATM    2  O2  UNK     1       1.052   0.573  -2.849  1.00  0.00    -0.274 OA
HETATM    3  O3  UNK     1       0.763  -0.969   2.072  1.00  0.00    -0.289 OA
HETATM    4  O4  UNK     1       0.311  -0.074  -4.918  1.00  0.00    -0.260 OA
HETATM    5  C1  UNK     1       2.567   0.646   2.039  1.00  0.00     0.125 C 
HETATM    6  C2  UNK     1       1.823   1.258  -0.643  1.00  0.00     0.048 A 
HETATM    7  C3  UNK     1       1.341  -0.071   1.464  1.00  0.00     0.196 C 
HETATM    8  C4  UNK     1       0.917   0.368   0.101  1.00  0.00     0.044 C 
HETATM    9  C5  UNK     1       2.727   2.020   0.109  1.00  0.00     0.084 A 
HETATM   10  C6  UNK     1       3.802  -0.249   1.869  1.00  0.00     0.055 C 
HETATM   11  C7  UNK     1       2.329   0.899   3.533  1.00  0.00     0.055 C 
HETATM   12  C8  UNK     1       1.871   1.399  -2.041  1.00  0.00     0.103 A 
HETATM   13  C9  UNK     1       2.730   2.309  -2.667  1.00  0.00    -0.001 A 
HETATM   14  C10 UNK     1       3.574   2.952  -0.501  1.00  0.00     0.039 A 
HETATM   15  C12 UNK     1       3.573   3.098  -1.886  1.00  0.00     0.017 A 
HETATM   16  C13 UNK     1       2.727   2.413  -4.118  1.00  0.00     0.020 A 
HETATM   17  C15 UNK     1       1.932   1.634  -4.854  1.00  0.00     0.083 A 
HETATM   18  C16 UNK     1       1.034   0.645  -4.238  1.00  0.00     0.288 A 
ENDROOT
BRANCH   8  19
HETATM   19  C11 UNK     1      -0.316   0.011  -0.292  1.00  0.00     0.104 C 
HETATM   20  N1  UNK     1      -1.186  -0.800   0.351  1.00  0.00    -0.363 N 
HETATM   21  H11 UNK     1      -0.899  -1.131   1.263  1.00  0.00     0.165 HD
BRANCH  20  22
HETATM   22  C14 UNK     1      -2.481  -1.189  -0.039  1.00  0.00     0.059 A 
HETATM   23  C17 UNK     1      -3.464  -1.485   0.910  1.00  0.00     0.061 A 
HETATM   24  C19 UNK     1      -4.741  -1.868   0.500  1.00  0.00     0.032 A 
HETATM   25  C21 UNK     1      -5.040  -1.958  -0.859  1.00  0.00     0.002 A 
HETATM   26  C20 UNK     1      -4.063  -1.664  -1.809  1.00  0.00     0.002 A 
HETATM   27  C18 UNK     1      -2.785  -1.281  -1.400  1.00  0.00     0.032 A 
BRANCH  23  28
HETATM   28  N2  UNK     1      -3.187  -1.401   2.277  1.00  0.00    -0.326 N 
HETATM   29  C22 UNK     1      -4.050  -1.660   3.349  1.00  0.00     0.218 C 
HETATM   30  C23 UNK     1      -3.366  -1.454   4.677  1.00  0.00     0.117 C 
HETATM   31  O5  UNK     1      -5.223  -2.015   3.295  1.00  0.00    -0.274 OA
HETATM   32  H16 UNK     1      -2.249  -1.101   2.524  1.00  0.00     0.169 HD
ENDBRANCH  23  28
ENDBRANCH  20  22
ENDBRANCH   8  19
TORSDOF 3
