REMARK  3 active torsions:
REMARK  status: ('A' for Active; 'I' for Inactive)
REMARK    1  A    between atoms: C15_19  and  O3_3 
REMARK    2  A    between atoms: C3_7  and  C6_10 
REMARK    3  A    between atoms: C15_19  and  C6_10 
ROOT
HETATM    1  O1  UNK     1       0.479   0.592  -2.974  1.00  0.00    -0.275 OA
HETATM    2  O2  UNK     1       2.378   1.730  -3.531  1.00  0.00    -0.260 OA
HETATM    3  C1  UNK     1      -0.188   0.339  -0.601  1.00  0.00     0.016 A 
HETATM    4  C2  UNK     1      -1.144  -0.247   0.314  1.00  0.00    -0.012 A 
HETATM    5  C3  UNK     1       1.001   1.178  -0.271  1.00  0.00    -0.029 A 
HETATM    6  C4  UNK     1      -0.393   0.106  -1.975  1.00  0.00     0.091 A 
HETATM    7  C5  UNK     1      -2.240  -0.994  -0.225  1.00  0.00    -0.025 A 
HETATM    8  C7  UNK     1      -1.463  -0.628  -2.479  1.00  0.00     0.039 A 
HETATM    9  C8  UNK     1      -2.382  -1.168  -1.603  1.00  0.00     0.015 A 
HETATM   10  C9  UNK     1      -1.124  -0.175   1.735  1.00  0.00     0.013 A 
HETATM   11  C10 UNK     1       1.809   1.614  -1.252  1.00  0.00     0.091 A 
HETATM   12  C11 UNK     1      -3.210  -1.583   0.605  1.00  0.00     0.012 A 
HETATM   13  C12 UNK     1       1.602   1.328  -2.672  1.00  0.00     0.288 A 
HETATM   14  C13 UNK     1      -2.096  -0.767   2.552  1.00  0.00     0.001 A 
HETATM   15  C14 UNK     1      -3.142  -1.470   1.986  1.00  0.00     0.001 A 
ENDROOT
BRANCH   5  16
HETATM   16  C6  UNK     1       1.355   1.599   1.125  1.00  0.00     0.149 C 
BRANCH  16  17
HETATM   17  C15 UNK     1       2.258   0.577   1.759  1.00  0.00     0.143 C 
HETATM   18  O4  UNK     1       2.674  -0.455   1.254  1.00  0.00    -0.650 OA
BRANCH  17  19
HETATM   19  O3  UNK     1       2.558   0.967   3.026  1.00  0.00    -0.776 OA
HETATM   20  H10 UNK     1       3.144   0.323   3.477  1.00  0.00     0.167 HD
ENDBRANCH  17  19
ENDBRANCH  16  17
ENDBRANCH   5  16
TORSDOF 3
