REMARK  9 active torsions:
REMARK  status: ('A' for Active; 'I' for Inactive)
REMARK    1  A    between atoms: C13_18  and  O2_2 
REMARK    2  A    between atoms: C16_21  and  O2_2 
REMARK    3  A    between atoms: C19_24  and  O4_4 
REMARK    4  A    between atoms: C1_6  and  C2_7 
REMARK    5  A    between atoms: C1_6  and  C3_8 
REMARK    6  A    between atoms: C2_7  and  C4_9 
REMARK    7  A    between atoms: C4_9  and  C7_12 
REMARK    8  A    between atoms: C16_21  and  C17_22 
REMARK    9  A    between atoms: C16_21  and  C19_24 
ROOT
HETATM    1  O1  UNK     1      -0.221  -0.006  -1.680  1.00  0.00    -0.274 OA
HETATM    2  O3  UNK     1       1.081   0.324  -3.510  1.00  0.00    -0.259 OA
HETATM    3  C3  UNK     1       2.140   0.617  -1.397  1.00  0.00     0.024 A 
HETATM    4  C5  UNK     1       2.008   0.628  -0.053  1.00  0.00    -0.037 A 
HETATM    5  C6  UNK     1       0.708   0.270   0.552  1.00  0.00     0.005 A 
HETATM    6  C8  UNK     1      -0.362  -0.034  -0.284  1.00  0.00     0.092 A 
HETATM    7  C9  UNK     1       0.985   0.304  -2.287  1.00  0.00     0.295 A 
HETATM    8  C10 UNK     1       3.120   1.005   0.894  1.00  0.00     0.050 C 
HETATM    9  C11 UNK     1       0.478   0.204   1.935  1.00  0.00     0.017 A 
HETATM   10  C12 UNK     1      -1.624  -0.382   0.205  1.00  0.00     0.075 A 
HETATM   11  C13 UNK     1      -1.831  -0.435   1.578  1.00  0.00     0.072 A 
HETATM   12  C15 UNK     1      -0.780  -0.143   2.443  1.00  0.00     0.038 A 
ENDROOT
BRANCH  11  13
HETATM   13  O2  UNK     1      -3.051  -0.772   2.075  1.00  0.00    -0.335 OA
BRANCH  13  14
HETATM   14  C16 UNK     1      -3.565  -2.056   1.721  1.00  0.00     0.226 C 
BRANCH  14  15
HETATM   15  C17 UNK     1      -3.779  -2.881   2.991  1.00  0.00     0.039 C 
HETATM   16  C18 UNK     1      -4.834  -2.304   3.929  1.00  0.00     0.008 C 
ENDBRANCH  14  15
BRANCH  14  17
HETATM   17  C19 UNK     1      -4.837  -1.872   0.921  1.00  0.00     0.170 C 
HETATM   18  O5  UNK     1      -5.371  -0.800   0.676  1.00  0.00    -0.648 OA
BRANCH  17  19
HETATM   19  O4  UNK     1      -5.340  -3.070   0.528  1.00  0.00    -0.774 OA
HETATM   20  H24 UNK     1      -6.173  -2.968   0.021  1.00  0.00     0.167 HD
ENDBRANCH  17  19
ENDBRANCH  14  17
ENDBRANCH  13  14
ENDBRANCH  11  13
BRANCH   3  21
HETATM   21  C1  UNK     1       3.421   0.899  -2.139  1.00  0.00     0.045 C 
BRANCH  21  22
HETATM   22  C2  UNK     1       3.602   2.375  -2.475  1.00  0.00     0.005 C 
BRANCH  22  23
HETATM   23  C4  UNK     1       4.939   2.679  -3.160  1.00  0.00    -0.000 C 
BRANCH  23  24
HETATM   24  C7  UNK     1       5.084   4.174  -3.448  1.00  0.00    -0.005 C 
HETATM   25  C14 UNK     1       6.426   4.490  -4.090  1.00  0.00     0.005 C 
ENDBRANCH  23  24
ENDBRANCH  22  23
ENDBRANCH  21  22
ENDBRANCH   3  21
TORSDOF 9
