REMARK  4 active torsions:
REMARK  status: ('A' for Active; 'I' for Inactive)
REMARK    1  A    between atoms: C5_14  and  N1_6 
REMARK       I    between atoms: C6_15  and  N2_7 
REMARK    2  A    between atoms: C10_19  and  N3_8 
REMARK       I    between atoms: C6_15  and  N3_8 
REMARK    3  A    between atoms: C9_18  and  N3_8 
REMARK    4  A    between atoms: C8_17  and  N4_9 
ROOT
HETATM    1  O1  UNK     1      -3.753  -1.531   1.778  1.00  0.00    -0.273 OA
HETATM    2  O3  UNK     1      -2.962  -1.341   3.909  1.00  0.00    -0.257 OA
HETATM    3  C5  UNK     1      -1.223  -0.564   0.836  1.00  0.00     0.083 A 
HETATM    4  C7  UNK     1      -2.316  -0.908  -0.110  1.00  0.00     0.027 A 
HETATM    5  C8  UNK     1      -1.506  -0.732   2.139  1.00  0.00     0.205 A 
HETATM    6  C11 UNK     1      -3.535  -1.378   0.394  1.00  0.00     0.092 A 
HETATM    7  C12 UNK     1      -2.215  -0.792  -1.507  1.00  0.00     0.017 A 
HETATM    8  C13 UNK     1      -2.773  -1.217   2.705  1.00  0.00     0.324 A 
HETATM    9  C14 UNK     1      -4.610  -1.724  -0.430  1.00  0.00     0.038 A 
HETATM   10  C17 UNK     1      -3.285  -1.134  -2.345  1.00  0.00     0.001 A 
HETATM   11  C18 UNK     1      -4.481  -1.599  -1.807  1.00  0.00     0.003 A 
ENDROOT
BRANCH   3  12
HETATM   12  N1  UNK     1      -0.044  -0.115   0.318  1.00  0.00    -0.375 N 
HETATM   13  C1  UNK     1       0.217   1.306   0.079  1.00  0.00     0.143 C 
HETATM   14  C3  UNK     1       0.769   1.515  -1.334  1.00  0.00     0.147 C 
HETATM   15  N2  UNK     1       1.908   0.618  -1.580  1.00  0.00    -0.331 N 
HETATM   16  C4  UNK     1       1.622  -0.797  -1.330  1.00  0.00     0.147 C 
HETATM   17  C6  UNK     1       3.233   1.042  -1.745  1.00  0.00     0.320 C 
HETATM   18  C2  UNK     1       1.099  -1.002   0.089  1.00  0.00     0.143 C 
HETATM   19  O2  UNK     1       4.185   0.325  -1.412  1.00  0.00    -0.247 OA
HETATM   20  N3  UNK     1       3.436   2.309  -2.311  1.00  0.00    -0.335 N 
BRANCH  20  21
HETATM   21  C10 UNK     1       2.696   2.822  -3.462  1.00  0.00     0.123 C 
HETATM   22  C16 UNK     1       3.386   2.475  -4.765  1.00  0.00     0.026 C 
ENDBRANCH  20  21
BRANCH  20  23
HETATM   23  C9  UNK     1       4.622   3.069  -1.940  1.00  0.00     0.123 C 
HETATM   24  C15 UNK     1       4.362   3.948  -0.733  1.00  0.00     0.026 C 
ENDBRANCH  20  23
ENDBRANCH   3  12
BRANCH   5  25
HETATM   25  N4  UNK     1      -0.480  -0.411   3.079  1.00  0.00    -0.107 N 
HETATM   26  O4  UNK     1       0.592  -0.002   2.622  1.00  0.00    -0.531 OA
HETATM   27  O5  UNK     1      -0.747  -0.568   4.276  1.00  0.00    -0.531 OA
ENDBRANCH   5  25
TORSDOF 4
