REMARK  3 active torsions:
REMARK  status: ('A' for Active; 'I' for Inactive)
REMARK       I    between atoms: C11_18  and  N2_7 
REMARK    1  A    between atoms: C19_26  and  N2_7 
REMARK    2  A    between atoms: C1_8  and  C10_17 
REMARK    3  A    between atoms: C11_18  and  C6_13 
ROOT
HETATM    1  O1  UNK     1      -3.787   0.905   1.391  1.00  0.00    -0.293 OA
HETATM    2  N1  UNK     1      -0.378  -2.175   2.557  1.00  0.00    -0.362 N 
HETATM    3  C1  UNK     1      -0.953   0.371   1.440  1.00  0.00     0.104 C 
HETATM    4  C2  UNK     1      -2.029  -0.606   1.905  1.00  0.00     0.024 C 
HETATM    5  C3  UNK     1      -1.704  -1.813   2.415  1.00  0.00     0.020 C 
HETATM    6  C4  UNK     1      -2.725  -2.811   2.897  1.00  0.00     0.058 C 
HETATM    7  C5  UNK     1      -4.057  -2.157   3.245  1.00  0.00     0.014 C 
HETATM    8  C6  UNK     1       0.460  -0.097   1.792  1.00  0.00     0.045 C 
HETATM    9  C7  UNK     1      -4.523  -1.245   2.125  1.00  0.00     0.084 C 
HETATM   10  C8  UNK     1      -3.468  -0.213   1.793  1.00  0.00     0.158 C 
HETATM   11  C9  UNK     1       0.691  -1.331   2.298  1.00  0.00     0.018 C 
HETATM   12  C13 UNK     1       2.044  -1.900   2.628  1.00  0.00     0.069 C 
HETATM   13  H8  UNK     1      -0.174  -3.089   2.943  1.00  0.00     0.165 HD
ENDROOT
BRANCH   3  14
HETATM   14  C10 UNK     1      -1.062   0.610  -0.042  1.00  0.00     0.029 A 
HETATM   15  C12 UNK     1      -0.868  -0.540  -0.961  1.00  0.00     0.194 A 
HETATM   16  O4  UNK     1      -0.624  -1.667  -0.551  1.00  0.00    -0.287 OA
HETATM   17  C15 UNK     1      -0.984  -0.251  -2.403  1.00  0.00     0.050 A 
HETATM   18  C16 UNK     1      -1.264   1.053  -2.813  1.00  0.00     0.089 A 
HETATM   19  C17 UNK     1      -0.818  -1.266  -3.349  1.00  0.00     0.042 A 
HETATM   20  O2  UNK     1      -1.437   2.087  -1.928  1.00  0.00    -0.321 OA
HETATM   21  C18 UNK     1      -1.379   1.349  -4.171  1.00  0.00     0.040 A 
HETATM   22  C14 UNK     1      -1.325   1.803  -0.589  1.00  0.00     0.154 A 
HETATM   23  C21 UNK     1      -1.213   0.337  -5.118  1.00  0.00     0.026 A 
HETATM   24  C20 UNK     1      -0.934  -0.967  -4.707  1.00  0.00     0.035 A 
HETATM   25 Cl1  UNK     1      -0.731  -2.210  -5.880  1.00  0.00    -0.084 Cl
ENDBRANCH   3  14
BRANCH   8  26
HETATM   26  C11 UNK     1       1.545   0.881   1.606  1.00  0.00     0.255 C 
HETATM   27  O3  UNK     1       1.824   1.657   2.515  1.00  0.00    -0.268 OA
HETATM   28  N2  UNK     1       2.128   0.777   0.352  1.00  0.00    -0.323 N 
HETATM   29  H13 UNK     1       1.771   0.062  -0.278  1.00  0.00     0.169 HD
BRANCH  28  30
HETATM   30  C19 UNK     1       3.193   1.552  -0.168  1.00  0.00     0.035 A 
HETATM   31  C22 UNK     1       3.646   1.302  -1.453  1.00  0.00     0.029 A 
HETATM   32  C24 UNK     1       4.694   2.065  -1.966  1.00  0.00     0.002 A 
HETATM   33  C26 UNK     1       5.273   3.068  -1.188  1.00  0.00     0.000 A 
HETATM   34  C25 UNK     1       4.804   3.306   0.104  1.00  0.00     0.002 A 
HETATM   35  C23 UNK     1       3.756   2.542   0.618  1.00  0.00     0.029 A 
ENDBRANCH  28  30
ENDBRANCH   8  26
TORSDOF 3
