REMARK  2 active torsions:
REMARK  status: ('A' for Active; 'I' for Inactive)
REMARK    1  A    between atoms: C9_12  and  O2_2 
REMARK    2  A    between atoms: C3_6  and  C6_9 
ROOT
HETATM    1  O1  UNK     1       0.290  -0.017   1.388  1.00  0.00    -0.274 OA
HETATM    2  O3  UNK     1      -1.049  -0.830   3.031  1.00  0.00    -0.259 OA
HETATM    3  C1  UNK     1      -0.426  -0.111  -0.936  1.00  0.00     0.005 A 
HETATM    4  C2  UNK     1      -1.689  -0.744  -0.503  1.00  0.00    -0.037 A 
HETATM    5  C3  UNK     1      -1.883  -1.009   0.807  1.00  0.00     0.024 A 
HETATM    6  C4  UNK     1       0.520   0.232   0.026  1.00  0.00     0.099 A 
HETATM    7  C5  UNK     1       1.739   0.833  -0.298  1.00  0.00     0.006 A 
HETATM    8  C7  UNK     1      -0.104   0.164  -2.275  1.00  0.00     0.017 A 
HETATM    9  C8  UNK     1      -0.871  -0.627   1.834  1.00  0.00     0.295 A 
HETATM   10  C9  UNK     1       2.033   1.101  -1.629  1.00  0.00     0.076 A 
HETATM   11  C10 UNK     1      -2.705  -1.043  -1.577  1.00  0.00     0.050 C 
HETATM   12  C11 UNK     1       1.112   0.765  -2.618  1.00  0.00     0.038 A 
HETATM   13  C12 UNK     1       2.721   1.186   0.772  1.00  0.00     0.054 C 
ENDROOT
BRANCH   5  14
HETATM   14  C6  UNK     1      -3.092  -1.706   1.375  1.00  0.00     0.041 C 
HETATM   15  C13 UNK     1      -4.179  -0.718   1.740  1.00  0.00     0.010 C 
ENDBRANCH   5  14
BRANCH  10  16
HETATM   16  O2  UNK     1       3.210   1.686  -1.984  1.00  0.00    -0.355 OA
HETATM   17  C14 UNK     1       3.236   3.112  -2.041  1.00  0.00     0.210 C 
ENDBRANCH  10  16
TORSDOF 2
