REMARK  2 active torsions:
REMARK  status: ('A' for Active; 'I' for Inactive)
REMARK    1  A    between atoms: C1_5  and  N1_4 
REMARK       I    between atoms: C11_15  and  N1_4 
REMARK    2  A    between atoms: C11_15  and  C5_9 
ROOT
HETATM    1  O2  UNK     1       0.591  -0.332   1.646  1.00  0.00    -0.267 OA
HETATM    2  N1  UNK     1      -1.173  -0.369   0.080  1.00  0.00    -0.323 N 
HETATM    3  C11 UNK     1       0.119  -0.134   0.528  1.00  0.00     0.262 C 
HETATM    4  H5  UNK     1      -1.414  -0.129  -0.878  1.00  0.00     0.169 HD
ENDROOT
BRANCH   3   5
HETATM    5  C5  UNK     1       0.971   0.425  -0.529  1.00  0.00     0.108 A 
HETATM    6  C10 UNK     1       1.957   1.235  -0.127  1.00  0.00     0.037 A 
HETATM    7  C4  UNK     1       2.855   1.837  -1.101  1.00  0.00    -0.001 A 
HETATM    8  C13 UNK     1       3.896   2.690  -0.727  1.00  0.00     0.014 A 
HETATM    9  C9  UNK     1       2.670   1.555  -2.450  1.00  0.00     0.089 A 
HETATM   10  C17 UNK     1       4.731   3.243  -1.701  1.00  0.00     0.001 A 
HETATM   11  C18 UNK     1       4.530   2.948  -3.052  1.00  0.00     0.003 A 
HETATM   12  C16 UNK     1       3.494   2.099  -3.433  1.00  0.00     0.038 A 
HETATM   13  O1  UNK     1       1.630   0.700  -2.867  1.00  0.00    -0.274 OA
HETATM   14  C12 UNK     1       0.756   0.110  -1.959  1.00  0.00     0.304 A 
HETATM   15  O3  UNK     1      -0.146  -0.632  -2.331  1.00  0.00    -0.259 OA
ENDBRANCH   3   5
BRANCH   2  16
HETATM   16  C1  UNK     1      -2.225  -0.894   0.837  1.00  0.00     0.036 A 
HETATM   17  C6  UNK     1      -2.018  -1.233   2.173  1.00  0.00     0.036 A 
HETATM   18  C3  UNK     1      -3.067  -1.758   2.927  1.00  0.00    -0.059 A 
HETATM   19  C15 UNK     1      -2.849  -2.120   4.358  1.00  0.00     0.048 C 
HETATM   20  C8  UNK     1      -4.321  -1.943   2.345  1.00  0.00     0.013 A 
HETATM   21  C2  UNK     1      -4.526  -1.603   1.007  1.00  0.00    -0.059 A 
HETATM   22  C14 UNK     1      -5.866  -1.802   0.385  1.00  0.00     0.048 C 
HETATM   23  C7  UNK     1      -3.477  -1.078   0.253  1.00  0.00     0.036 A 
ENDBRANCH   2  16
TORSDOF 2
