REMARK  3 active torsions:
REMARK  status: ('A' for Active; 'I' for Inactive)
REMARK    1  A    between atoms: C7_12  and  N1_4 
REMARK    2  A    between atoms: C1_6  and  C3_8 
REMARK    3  A    between atoms: C2_7  and  C4_9 
ROOT
HETATM    1  N2  UNK     1      -4.556  -0.708  -1.634  1.00  0.00    -0.191 NA
HETATM    2  C3  UNK     1      -1.168  -0.210  -2.008  1.00  0.00     0.035 C 
HETATM    3  C4  UNK     1      -2.047  -0.452  -0.996  1.00  0.00     0.055 C 
HETATM    4  C15 UNK     1      -3.434  -0.592  -1.360  1.00  0.00     0.100 C 
ENDROOT
BRANCH   3   5
HETATM    5  C2  UNK     1      -1.683  -0.560   0.408  1.00  0.00    -0.015 A 
HETATM    6  C8  UNK     1      -1.353  -1.803   0.949  1.00  0.00     0.014 A 
HETATM    7  C12 UNK     1      -1.005  -1.907   2.296  1.00  0.00     0.024 A 
HETATM    8  C14 UNK     1      -0.987  -0.769   3.102  1.00  0.00     0.034 A 
HETATM    9  C13 UNK     1      -1.317   0.474   2.561  1.00  0.00     0.024 A 
HETATM   10 Cl1  UNK     1      -0.558  -0.897   4.763  1.00  0.00    -0.084 Cl
HETATM   11  C9  UNK     1      -1.665   0.578   1.214  1.00  0.00     0.014 A 
ENDBRANCH   3   5
BRANCH   2  12
HETATM   12  C1  UNK     1       0.240  -0.059  -1.816  1.00  0.00    -0.032 A 
HETATM   13  C5  UNK     1       0.800   1.201  -1.533  1.00  0.00     0.047 A 
HETATM   14  C7  UNK     1       2.175   1.349  -1.346  1.00  0.00     0.103 A 
HETATM   15  C11 UNK     1       3.014   0.238  -1.439  1.00  0.00     0.036 A 
HETATM   16  C10 UNK     1       2.479  -1.019  -1.719  1.00  0.00     0.003 A 
HETATM   17  C6  UNK     1       1.104  -1.166  -1.906  1.00  0.00     0.011 A 
BRANCH  14  18
HETATM   18  N1  UNK     1       2.720   2.628  -1.060  1.00  0.00    -0.116 N 
HETATM   19  O1  UNK     1       3.959   2.738  -0.895  1.00  0.00    -0.532 OA
HETATM   20  O2  UNK     1       1.948   3.614  -0.981  1.00  0.00    -0.532 OA
ENDBRANCH  14  18
ENDBRANCH   2  12
TORSDOF 3
