REMARK  7 active torsions:
REMARK  status: ('A' for Active; 'I' for Inactive)
REMARK    1  A    between atoms: C14_23  and  O2_4 
REMARK    2  A    between atoms: C23_32  and  O2_4 
REMARK    3  A    between atoms: C9_18  and  O3_5 
REMARK       I    between atoms: C11_20  and  N1_9 
REMARK    4  A    between atoms: C5_14  and  N1_9 
REMARK    5  A    between atoms: C1_10  and  C4_13 
REMARK    6  A    between atoms: C2_11  and  C9_18 
REMARK    7  A    between atoms: C10_19  and  C11_20 
ROOT
HETATM    1  S1  UNK     1       0.482   0.416   2.380  1.00  0.00    -0.075 SA
HETATM    2  C1  UNK     1      -1.770  -0.742   1.947  1.00  0.00     0.006 A 
HETATM    3  C2  UNK     1      -1.266  -0.369   0.668  1.00  0.00     0.085 A 
HETATM    4  C3  UNK     1      -0.918  -0.375   2.966  1.00  0.00    -0.007 A 
HETATM    5  C5  UNK     1      -0.066   0.259   0.779  1.00  0.00     0.094 A 
HETATM    6  C8  UNK     1      -1.060  -0.572   4.429  1.00  0.00     0.057 C 
ENDROOT
BRANCH   5   7
HETATM    7  N1  UNK     1       0.776   0.786  -0.205  1.00  0.00    -0.316 N 
HETATM    8  C11 UNK     1       1.994   1.414   0.012  1.00  0.00     0.262 C 
HETATM    9  O5  UNK     1       2.567   1.630   1.078  1.00  0.00    -0.267 OA
HETATM   10  H3  UNK     1       0.442   0.663  -1.156  1.00  0.00     0.169 HD
BRANCH   8  11
HETATM   11  C10 UNK     1       2.617   1.849  -1.245  1.00  0.00     0.108 A 
HETATM   12  C16 UNK     1       3.955   1.878  -1.263  1.00  0.00     0.037 A 
HETATM   13  C15 UNK     1       4.663   2.295  -2.463  1.00  0.00     0.001 A 
HETATM   14  C17 UNK     1       3.927   2.660  -3.586  1.00  0.00     0.089 A 
HETATM   15  C19 UNK     1       6.058   2.342  -2.527  1.00  0.00     0.038 A 
HETATM   16  O1  UNK     1       2.519   2.626  -3.561  1.00  0.00    -0.274 OA
HETATM   17  C20 UNK     1       4.544   3.069  -4.766  1.00  0.00     0.040 A 
HETATM   18  C18 UNK     1       1.814   2.232  -2.427  1.00  0.00     0.304 A 
HETATM   19  O6  UNK     1       0.588   2.206  -2.415  1.00  0.00    -0.259 OA
HETATM   20  C22 UNK     1       5.935   3.113  -4.822  1.00  0.00     0.026 A 
HETATM   21  C21 UNK     1       6.691   2.750  -3.704  1.00  0.00     0.035 A 
HETATM   22 Cl1  UNK     1       8.410   2.805  -3.779  1.00  0.00    -0.084 Cl
ENDBRANCH   8  11
ENDBRANCH   5   7
BRANCH   3  23
HETATM   23  C9  UNK     1      -1.918  -0.609  -0.596  1.00  0.00     0.296 C 
HETATM   24  O4  UNK     1      -3.012  -1.180  -0.710  1.00  0.00    -0.259 OA
BRANCH  23  25
HETATM   25  O3  UNK     1      -1.214  -0.146  -1.685  1.00  0.00    -0.322 OA
HETATM   26  C24 UNK     1      -1.805  -0.352  -2.973  1.00  0.00     0.213 C 
ENDBRANCH  23  25
ENDBRANCH   3  23
BRANCH   2  27
HETATM   27  C4  UNK     1      -3.010  -1.423   2.227  1.00  0.00    -0.024 A 
HETATM   28  C6  UNK     1      -4.169  -0.685   2.450  1.00  0.00     0.015 A 
HETATM   29  C12 UNK     1      -5.368  -1.343   2.722  1.00  0.00     0.037 A 
HETATM   30  C14 UNK     1      -5.404  -2.736   2.768  1.00  0.00     0.068 A 
HETATM   31  C13 UNK     1      -4.240  -3.472   2.544  1.00  0.00     0.037 A 
HETATM   32  C7  UNK     1      -3.040  -2.813   2.273  1.00  0.00     0.015 A 
BRANCH  30  33
HETATM   33  O2  UNK     1      -6.574  -3.379   3.033  1.00  0.00    -0.352 OA
BRANCH  33  34
HETATM   34  C23 UNK     1      -6.749  -4.672   2.457  1.00  0.00     0.171 C 
HETATM   35  C25 UNK     1      -8.225  -4.910   2.218  1.00  0.00     0.034 C 
ENDBRANCH  33  34
ENDBRANCH  30  33
ENDBRANCH   2  27
TORSDOF 7
