REMARK  5 active torsions:
REMARK  status: ('A' for Active; 'I' for Inactive)
REMARK    1  A    between atoms: C5_10  and  O2_2 
REMARK    2  A    between atoms: C8_13  and  O2_2 
REMARK    3  A    between atoms: C14_19  and  O3_3 
REMARK    4  A    between atoms: C15_20  and  O3_3 
REMARK    5  A    between atoms: C14_19  and  C8_13 
ROOT
HETATM    1  O1  UNK     1      -2.049  -1.020  -0.766  1.00  0.00    -0.274 OA
HETATM    2  O4  UNK     1      -4.111  -1.762  -1.356  1.00  0.00    -0.259 OA
HETATM    3  C1  UNK     1      -1.480  -0.713   1.579  1.00  0.00     0.005 A 
HETATM    4  C2  UNK     1      -2.832  -1.179   1.950  1.00  0.00    -0.037 A 
HETATM    5  C3  UNK     1      -1.135  -0.652   0.232  1.00  0.00     0.092 A 
HETATM    6  C4  UNK     1      -3.714  -1.497   0.978  1.00  0.00     0.020 A 
HETATM    7  C5  UNK     1       1.073   0.162   0.734  1.00  0.00     0.072 A 
HETATM    8  C6  UNK     1      -0.506  -0.313   2.508  1.00  0.00     0.017 A 
HETATM    9  C7  UNK     1       0.122  -0.224  -0.204  1.00  0.00     0.075 A 
HETATM   10  C9  UNK     1       0.758   0.119   2.089  1.00  0.00     0.038 A 
HETATM   11  C10 UNK     1      -3.138  -1.283   3.423  1.00  0.00     0.050 C 
HETATM   12  C11 UNK     1      -3.333  -1.442  -0.463  1.00  0.00     0.294 A 
HETATM   13  C12 UNK     1      -5.140  -1.923   1.214  1.00  0.00     0.055 C 
ENDROOT
BRANCH   7  14
HETATM   14  O2  UNK     1       2.301   0.582   0.330  1.00  0.00    -0.336 OA
BRANCH  14  15
HETATM   15  C8  UNK     1       2.350   1.726  -0.522  1.00  0.00     0.224 C 
HETATM   16  C13 UNK     1       3.169   2.799   0.174  1.00  0.00     0.051 C 
BRANCH  15  17
HETATM   17  C14 UNK     1       2.976   1.322  -1.842  1.00  0.00     0.288 C 
HETATM   18  O5  UNK     1       3.403   0.202  -2.093  1.00  0.00    -0.262 OA
BRANCH  17  19
HETATM   19  O3  UNK     1       2.964   2.382  -2.701  1.00  0.00    -0.320 OA
BRANCH  19  20
HETATM   20  C15 UNK     1       3.503   2.129  -4.002  1.00  0.00     0.174 C 
HETATM   21  C16 UNK     1       3.416   3.395  -4.827  1.00  0.00     0.034 C 
ENDBRANCH  19  20
ENDBRANCH  17  19
ENDBRANCH  15  17
ENDBRANCH  14  15
ENDBRANCH   7  14
TORSDOF 5
