REMARK  2 active torsions:
REMARK  status: ('A' for Active; 'I' for Inactive)
REMARK    1  A    between atoms: C11_14  and  O2_2 
REMARK    2  A    between atoms: C1_4  and  C3_6 
ROOT
HETATM    1  O1  UNK     1       0.764  -1.737   1.795  1.00  0.00    -0.309 OA
HETATM    2  O3  UNK     1      -0.064  -3.435  -1.815  1.00  0.00    -0.287 OA
HETATM    3  C1  UNK     1       0.176  -1.014   0.768  1.00  0.00     0.090 A 
HETATM    4  C2  UNK     1       0.800  -3.703   0.368  1.00  0.00     0.048 A 
HETATM    5  C4  UNK     1       1.058  -3.060   1.577  1.00  0.00     0.090 A 
HETATM    6  C5  UNK     1      -0.115  -1.519  -0.442  1.00  0.00     0.093 A 
HETATM    7  C6  UNK     1       0.186  -2.936  -0.727  1.00  0.00     0.187 A 
HETATM    8  C8  UNK     1       1.121  -5.052   0.203  1.00  0.00     0.018 A 
HETATM    9  C10 UNK     1       1.642  -3.763   2.631  1.00  0.00     0.038 A 
HETATM   10  C12 UNK     1       1.704  -5.754   1.259  1.00  0.00     0.001 A 
HETATM   11  C13 UNK     1       1.964  -5.111   2.470  1.00  0.00     0.003 A 
ENDROOT
BRANCH   3  12
HETATM   12  C3  UNK     1      -0.094   0.398   1.106  1.00  0.00     0.001 A 
HETATM   13  C7  UNK     1      -0.055   1.379   0.112  1.00  0.00     0.051 A 
HETATM   14  C11 UNK     1      -0.309   2.712   0.433  1.00  0.00     0.069 A 
HETATM   15  C15 UNK     1      -0.602   3.069   1.749  1.00  0.00     0.037 A 
HETATM   16  C14 UNK     1      -0.642   2.093   2.744  1.00  0.00     0.004 A 
HETATM   17  C9  UNK     1      -0.388   0.760   2.424  1.00  0.00     0.014 A 
BRANCH  14  18
HETATM   18  O2  UNK     1      -0.269   3.666  -0.537  1.00  0.00    -0.356 OA
HETATM   19  C16 UNK     1      -0.536   5.010  -0.138  1.00  0.00     0.210 C 
ENDBRANCH  14  18
ENDBRANCH   3  12
TORSDOF 2
