REMARK  3 active torsions:
REMARK  status: ('A' for Active; 'I' for Inactive)
REMARK       I    between atoms: C10_16  and  N1_4 
REMARK    1  A    between atoms: C8_14  and  N1_4 
REMARK    2  A    between atoms: C10_16  and  C2_8 
REMARK    3  A    between atoms: C18_24  and  C7_13 
ROOT
HETATM    1  N2  UNK     1       3.521   2.091  -1.410  1.00  0.00    -0.247 NA
HETATM    2  C1  UNK     1       2.327   1.066   0.416  1.00  0.00     0.009 A 
HETATM    3  C2  UNK     1       1.436   0.510  -0.501  1.00  0.00     0.047 A 
HETATM    4  C3  UNK     1       3.374   1.864  -0.091  1.00  0.00     0.068 A 
HETATM    5  C4  UNK     1       2.205   0.851   1.799  1.00  0.00     0.021 A 
HETATM    6  C5  UNK     1       1.574   0.734  -1.857  1.00  0.00     0.050 A 
HETATM    7  C7  UNK     1       2.629   1.529  -2.258  1.00  0.00     0.070 A 
HETATM    8  C9  UNK     1       3.114   1.422   2.684  1.00  0.00    -0.061 A 
HETATM    9  C12 UNK     1       4.270   2.423   0.817  1.00  0.00     0.033 A 
HETATM   10  C15 UNK     1       4.148   2.209   2.192  1.00  0.00     0.009 A 
HETATM   11  C19 UNK     1       2.981   1.193   4.152  1.00  0.00     0.048 C 
ENDROOT
BRANCH   3  12
HETATM   12  C10 UNK     1       0.307  -0.339  -0.083  1.00  0.00     0.257 C 
HETATM   13  O2  UNK     1       0.445  -1.553   0.049  1.00  0.00    -0.267 OA
HETATM   14  N1  UNK     1      -0.894   0.349   0.182  1.00  0.00    -0.323 N 
HETATM   15  H4  UNK     1      -0.878   1.357   0.039  1.00  0.00     0.169 HD
BRANCH  14  16
HETATM   16  C8  UNK     1      -2.112  -0.168   0.624  1.00  0.00     0.037 A 
HETATM   17  C13 UNK     1      -2.246  -1.532   0.861  1.00  0.00     0.067 A 
HETATM   18  C11 UNK     1      -3.473  -2.028   1.304  1.00  0.00     0.092 A 
HETATM   19  O1  UNK     1      -3.548  -3.418   1.527  1.00  0.00    -0.275 OA
HETATM   20  C6  UNK     1      -4.578  -1.203   1.520  1.00  0.00     0.004 A 
HETATM   21  C22 UNK     1      -4.717  -4.020   1.968  1.00  0.00     0.288 A 
HETATM   22  C20 UNK     1      -5.873  -3.135   2.191  1.00  0.00     0.090 A 
HETATM   23  O3  UNK     1      -4.793  -5.227   2.166  1.00  0.00    -0.260 OA
HETATM   24  C14 UNK     1      -5.831  -1.811   1.987  1.00  0.00    -0.043 A 
HETATM   25  C21 UNK     1      -7.036  -0.950   2.228  1.00  0.00     0.049 C 
HETATM   26  C16 UNK     1      -4.422   0.168   1.275  1.00  0.00     0.017 A 
HETATM   27  C17 UNK     1      -3.198   0.681   0.831  1.00  0.00     0.030 A 
ENDBRANCH  14  16
ENDBRANCH   3  12
BRANCH   7  28
HETATM   28  C18 UNK     1       2.854   1.819  -3.654  1.00  0.00     0.010 A 
HETATM   29  C23 UNK     1       4.136   2.049  -4.142  1.00  0.00     0.017 A 
HETATM   30  C25 UNK     1       4.321   2.326  -5.491  1.00  0.00     0.020 A 
HETATM   31  C26 UNK     1       3.201   2.362  -6.306  1.00  0.00     0.116 A 
HETATM   32  N3  UNK     1       1.940   2.144  -5.869  1.00  0.00    -0.272 NA
HETATM   33  C24 UNK     1       1.799   1.878  -4.551  1.00  0.00     0.130 A 
ENDBRANCH   7  28
TORSDOF 3
