REMARK  7 active torsions:
REMARK  status: ('A' for Active; 'I' for Inactive)
REMARK    1  A    between atoms: C21_27  and  O2_2 
REMARK    2  A    between atoms: C8_14  and  O2_2 
REMARK    3  A    between atoms: C10_16  and  O3_3 
REMARK    4  A    between atoms: C22_28  and  O3_3 
REMARK    5  A    between atoms: C1_7  and  C7_13 
REMARK    6  A    between atoms: C5_11  and  C9_15 
REMARK    7  A    between atoms: C14_20  and  C9_15 
ROOT
HETATM    1  O1  UNK     1      -1.629   0.058   0.233  1.00  0.00    -0.339 OA
HETATM    2  O4  UNK     1       0.034   2.399   3.163  1.00  0.00    -0.292 OA
HETATM    3  C1  UNK     1      -1.631  -0.370   1.603  1.00  0.00     0.169 C 
HETATM    4  C2  UNK     1      -1.672   0.827   2.551  1.00  0.00     0.121 C 
HETATM    5  C3  UNK     1      -0.600   0.917  -0.056  1.00  0.00     0.095 A 
HETATM    6  C4  UNK     1       0.022   1.724   0.901  1.00  0.00     0.078 A 
HETATM    7  C5  UNK     1      -0.195   0.985  -1.390  1.00  0.00     0.014 A 
HETATM    8  C6  UNK     1      -0.472   1.700   2.293  1.00  0.00     0.167 C 
HETATM    9  C8  UNK     1       1.069   2.573   0.535  1.00  0.00     0.098 A 
HETATM   10  C10 UNK     1       0.850   1.834  -1.758  1.00  0.00     0.091 A 
HETATM   11  C11 UNK     1       1.483   2.622  -0.797  1.00  0.00     0.076 A 
ENDROOT
BRANCH   3  12
HETATM   12  C7  UNK     1      -2.824  -1.278   1.819  1.00  0.00    -0.029 A 
HETATM   13  C12 UNK     1      -3.999  -1.068   1.098  1.00  0.00     0.010 A 
HETATM   14  C15 UNK     1      -5.097  -1.905   1.297  1.00  0.00     0.001 A 
HETATM   15  C18 UNK     1      -5.019  -2.952   2.215  1.00  0.00     0.000 A 
HETATM   16  C16 UNK     1      -3.844  -3.161   2.936  1.00  0.00     0.001 A 
HETATM   17  C13 UNK     1      -2.746  -2.325   2.738  1.00  0.00     0.010 A 
ENDBRANCH   3  12
BRANCH   7  18
HETATM   18  C9  UNK     1      -0.866   0.144  -2.429  1.00  0.00     0.072 C 
BRANCH  18  19
HETATM   19  C14 UNK     1      -0.207  -1.200  -2.607  1.00  0.00    -0.020 C 
HETATM   20  C17 UNK     1      -0.117  -1.939  -3.730  1.00  0.00    -0.091 C 
HETATM   21  C19 UNK     1      -0.730  -1.448  -5.015  1.00  0.00     0.042 C 
HETATM   22  C20 UNK     1       0.557  -3.277  -3.837  1.00  0.00     0.042 C 
ENDBRANCH  18  19
ENDBRANCH   7  18
BRANCH  10  23
HETATM   23  O3  UNK     1       1.266   1.906  -3.054  1.00  0.00    -0.279 OA
BRANCH  23  24
HETATM   24  C22 UNK     1       2.283   0.995  -3.380  1.00  0.00     0.260 C 
HETATM   25  O6  UNK     1       2.792   0.186  -2.616  1.00  0.00    -0.265 OA
HETATM   26  C24 UNK     1       2.669   1.153  -4.820  1.00  0.00     0.126 C 
ENDBRANCH  23  24
ENDBRANCH  10  23
BRANCH   9  27
HETATM   27  O2  UNK     1       1.712   3.376   1.428  1.00  0.00    -0.278 OA
BRANCH  27  28
HETATM   28  C21 UNK     1       2.830   2.780   2.034  1.00  0.00     0.260 C 
HETATM   29  O5  UNK     1       3.239   1.646   1.821  1.00  0.00    -0.265 OA
HETATM   30  C23 UNK     1       3.465   3.739   2.996  1.00  0.00     0.126 C 
ENDBRANCH  27  28
ENDBRANCH   9  27
TORSDOF 7
