REMARK  1 active torsions:
REMARK  status: ('A' for Active; 'I' for Inactive)
REMARK    1  A    between atoms: C6_12  and  N1_5 
ROOT
HETATM    1  O1  UNK     1      -1.868  -0.579  -1.296  1.00  0.00    -0.274 OA
HETATM    2  O2  UNK     1      -3.627  -1.523  -0.208  1.00  0.00    -0.258 OA
HETATM    3  N2  UNK     1      -3.022  -1.641   3.273  1.00  0.00    -0.191 NA
HETATM    4  C1  UNK     1       0.076   0.184  -0.042  1.00  0.00     0.008 A 
HETATM    5  C2  UNK     1      -0.576  -0.263   1.206  1.00  0.00    -0.022 A 
HETATM    6  C3  UNK     1      -0.594   0.011  -1.250  1.00  0.00     0.090 A 
HETATM    7  C4  UNK     1       1.344   0.783  -0.091  1.00  0.00     0.051 A 
HETATM    8  C5  UNK     1      -1.800  -0.826   1.142  1.00  0.00     0.126 A 
HETATM    9  C6  UNK     1       1.906   1.186  -1.309  1.00  0.00     0.103 A 
HETATM   10  C7  UNK     1      -0.049   0.407  -2.474  1.00  0.00     0.041 A 
HETATM   11  C8  UNK     1       0.182  -0.058   2.497  1.00  0.00     0.051 C 
HETATM   12  C9  UNK     1       1.209   0.998  -2.500  1.00  0.00     0.039 A 
HETATM   13  C10 UNK     1      -2.514  -1.010  -0.149  1.00  0.00     0.309 A 
HETATM   14  C11 UNK     1      -2.475  -1.276   2.318  1.00  0.00     0.106 C 
ENDROOT
BRANCH   9  15
HETATM   15  N1  UNK     1       3.191   1.789  -1.329  1.00  0.00    -0.116 N 
HETATM   16  O3  UNK     1       3.678   2.144  -2.430  1.00  0.00    -0.532 OA
HETATM   17  O4  UNK     1       3.804   1.951  -0.247  1.00  0.00    -0.532 OA
ENDBRANCH   9  15
TORSDOF 1
