REMARK  7 active torsions:
REMARK  status: ('A' for Active; 'I' for Inactive)
REMARK    1  A    between atoms: C10_15  and  N1_4 
REMARK    2  A    between atoms: C8_13  and  N1_4 
REMARK    3  A    between atoms: C9_14  and  N1_4 
REMARK    4  A    between atoms: C3_8  and  N2_5 
REMARK    5  A    between atoms: C8_13  and  N2_5 
REMARK    6  A    between atoms: C14_19  and  C9_14 
REMARK    7  A    between atoms: C10_15  and  C15_20 
ROOT
HETATM    1  O1  UNK     1      -3.573  -1.025   0.170  1.00  0.00    -0.275 OA
HETATM    2  O2  UNK     1      -5.248  -2.403   0.894  1.00  0.00    -0.260 OA
HETATM    3  C1  UNK     1      -1.517  -0.855   1.477  1.00  0.00     0.004 A 
HETATM    4  C2  UNK     1      -2.285  -0.489   0.371  1.00  0.00     0.092 A 
HETATM    5  C3  UNK     1      -0.564   0.977  -0.445  1.00  0.00     0.036 A 
HETATM    6  C4  UNK     1      -2.077  -1.814   2.438  1.00  0.00    -0.043 A 
HETATM    7  C5  UNK     1      -1.828   0.415  -0.589  1.00  0.00     0.067 A 
HETATM    8  C6  UNK     1      -0.246  -0.278   1.604  1.00  0.00     0.017 A 
HETATM    9  C7  UNK     1       0.226   0.630   0.650  1.00  0.00     0.030 A 
HETATM   10  C11 UNK     1      -3.305  -2.307   2.222  1.00  0.00     0.090 A 
HETATM   11  C12 UNK     1      -1.276  -2.227   3.638  1.00  0.00     0.049 C 
HETATM   12  C13 UNK     1      -4.128  -1.932   1.059  1.00  0.00     0.288 A 
ENDROOT
BRANCH   5  13
HETATM   13  N2  UNK     1      -0.087   1.882  -1.393  1.00  0.00    -0.333 N 
HETATM   14  H4  UNK     1      -0.813   2.397  -1.885  1.00  0.00     0.168 HD
BRANCH  13  15
HETATM   15  C8  UNK     1       1.219   2.282  -1.681  1.00  0.00     0.174 C 
HETATM   16  S1  UNK     1       1.463   3.899  -2.112  1.00  0.00    -0.041 SA
BRANCH  15  17
HETATM   17  N1  UNK     1       2.229   1.318  -1.670  1.00  0.00    -0.351 N 
BRANCH  17  18
HETATM   18  C10 UNK     1       2.037  -0.007  -2.263  1.00  0.00     0.152 C 
BRANCH  18  19
HETATM   19  C15 UNK     1       2.447   0.037  -3.697  1.00  0.00    -0.017 C 
HETATM   20  C17 UNK     1       3.438  -0.700  -4.212  1.00  0.00     0.008 C 
ENDBRANCH  18  19
ENDBRANCH  17  18
BRANCH  17  21
HETATM   21  C9  UNK     1       3.612   1.635  -1.320  1.00  0.00     0.152 C 
BRANCH  21  22
HETATM   22  C14 UNK     1       3.794   1.465   0.152  1.00  0.00    -0.017 C 
HETATM   23  C16 UNK     1       4.199   2.443   0.970  1.00  0.00     0.008 C 
ENDBRANCH  21  22
ENDBRANCH  17  21
ENDBRANCH  15  17
ENDBRANCH  13  15
ENDBRANCH   5  13
TORSDOF 7
