REMARK  3 active torsions:
REMARK  status: ('A' for Active; 'I' for Inactive)
REMARK    1  A    between atoms: C11_16  and  O2_4 
REMARK    2  A    between atoms: C13_18  and  O2_4 
REMARK    3  A    between atoms: C13_18  and  C14_19 
ROOT
HETATM    1 Cl1  UNK     1       0.126   0.604   2.706  1.00  0.00    -0.081 Cl
HETATM    2  O1  UNK     1       1.285   1.174  -3.060  1.00  0.00    -0.274 OA
HETATM    3  O3  UNK     1       2.748   1.656  -4.763  1.00  0.00    -0.259 OA
HETATM    4  C1  UNK     1       4.539   2.059  -0.439  1.00  0.00     0.040 C 
HETATM    5  C2  UNK     1       3.329   1.724  -1.241  1.00  0.00    -0.033 A 
HETATM    6  C3  UNK     1       5.453   2.713  -1.483  1.00  0.00     0.009 C 
HETATM    7  C4  UNK     1       4.951   2.249  -2.854  1.00  0.00     0.046 C 
HETATM    8  C5  UNK     1       3.555   1.831  -2.552  1.00  0.00     0.025 A 
HETATM    9  C6  UNK     1       2.035   1.315  -0.735  1.00  0.00     0.007 A 
HETATM   10  C7  UNK     1       1.033   1.049  -1.672  1.00  0.00     0.093 A 
HETATM   11  C8  UNK     1       2.530   1.557  -3.562  1.00  0.00     0.295 A 
HETATM   12  C9  UNK     1       1.738   1.171   0.622  1.00  0.00     0.041 A 
HETATM   13  C10 UNK     1      -0.246   0.650  -1.288  1.00  0.00     0.076 A 
HETATM   14  C11 UNK     1      -0.530   0.512   0.068  1.00  0.00     0.093 A 
HETATM   15  C12 UNK     1       0.458   0.771   1.020  1.00  0.00     0.068 A 
ENDROOT
BRANCH  14  16
HETATM   16  O2  UNK     1      -1.783   0.120   0.438  1.00  0.00    -0.345 OA
BRANCH  16  17
HETATM   17  C13 UNK     1      -2.232  -1.147  -0.037  1.00  0.00     0.214 C 
BRANCH  17  18
HETATM   18  C14 UNK     1      -3.210  -1.720   0.945  1.00  0.00    -0.034 A 
HETATM   19  C15 UNK     1      -2.753  -2.524   1.982  1.00  0.00     0.012 A 
HETATM   20  C17 UNK     1      -3.664  -3.057   2.895  1.00  0.00     0.043 A 
HETATM   21  C19 UNK     1      -5.025  -2.782   2.765  1.00  0.00     0.116 A 
HETATM   22  C18 UNK     1      -5.476  -1.974   1.721  1.00  0.00     0.043 A 
HETATM   23  F1  UNK     1      -5.899  -3.294   3.641  1.00  0.00    -0.206 F 
HETATM   24  C16 UNK     1      -4.566  -1.441   0.808  1.00  0.00     0.012 A 
ENDBRANCH  17  18
ENDBRANCH  16  17
ENDBRANCH  14  16
TORSDOF 3
