REMARK  1 active torsions:
REMARK  status: ('A' for Active; 'I' for Inactive)
REMARK    1  A    between atoms: C3_7  and  C4_8 
ROOT
HETATM    1 Br1  UNK     1      -4.833  -2.024   3.426  1.00  0.00    -0.051 Br
HETATM    2  O1  UNK     1      -0.259   0.759   0.607  1.00  0.00    -0.309 OA
HETATM    3  O2  UNK     1      -2.177  -2.231  -1.387  1.00  0.00    -0.287 OA
HETATM    4  C1  UNK     1      -2.000  -0.935   0.580  1.00  0.00     0.049 A 
HETATM    5  C2  UNK     1      -1.302   0.098   1.204  1.00  0.00     0.090 A 
HETATM    6  C3  UNK     1       0.119   0.378  -0.671  1.00  0.00     0.090 A 
HETATM    7  C5  UNK     1      -1.607  -1.337  -0.779  1.00  0.00     0.187 A 
HETATM    8  C6  UNK     1      -0.479  -0.595  -1.378  1.00  0.00     0.093 A 
HETATM    9  C7  UNK     1      -3.055  -1.573   1.237  1.00  0.00     0.037 A 
HETATM   10  C8  UNK     1      -1.656   0.499   2.493  1.00  0.00     0.039 A 
HETATM   11  C11 UNK     1      -3.407  -1.169   2.526  1.00  0.00     0.012 A 
HETATM   12  C12 UNK     1      -2.709  -0.136   3.152  1.00  0.00     0.022 A 
ENDROOT
BRANCH   6  13
HETATM   13  C4  UNK     1       1.245   1.158  -1.222  1.00  0.00    -0.002 A 
HETATM   14  C10 UNK     1       2.224   1.674  -0.370  1.00  0.00     0.015 A 
HETATM   15  C14 UNK     1       3.289   2.410  -0.890  1.00  0.00     0.020 A 
HETATM   16  C15 UNK     1       3.378   2.633  -2.264  1.00  0.00     0.011 A 
HETATM   17 Br2  UNK     1       4.821   3.629  -2.969  1.00  0.00    -0.051 Br
HETATM   18  C13 UNK     1       2.401   2.119  -3.118  1.00  0.00     0.020 A 
HETATM   19  C9  UNK     1       1.337   1.383  -2.598  1.00  0.00     0.015 A 
ENDBRANCH   6  13
TORSDOF 1
