REMARK  8 active torsions:
REMARK  status: ('A' for Active; 'I' for Inactive)
REMARK    1  A    between atoms: C12_18  and  O2_2 
REMARK    2  A    between atoms: C2_8  and  O2_2 
REMARK    3  A    between atoms: C15_21  and  O3_3 
REMARK    4  A    between atoms: C16_22  and  O5_5 
REMARK    5  A    between atoms: C1_7  and  C4_10 
REMARK    6  A    between atoms: C6_12  and  C8_14 
REMARK    7  A    between atoms: C6_12  and  C9_15 
REMARK    8  A    between atoms: C12_18  and  C8_14 
ROOT
HETATM    1  O1  UNK     1      -2.673  -0.908   1.893  1.00  0.00    -0.306 OA
HETATM    2  O4  UNK     1      -1.984  -2.690  -1.706  1.00  0.00    -0.284 OA
HETATM    3  C1  UNK     1      -1.527  -0.640   1.161  1.00  0.00     0.124 A 
HETATM    4  C2  UNK     1      -1.234  -1.197  -0.028  1.00  0.00     0.164 A 
HETATM    5  C3  UNK     1      -3.417  -2.421   0.147  1.00  0.00     0.051 A 
HETATM    6  C5  UNK     1      -3.592  -1.782   1.373  1.00  0.00     0.090 A 
HETATM    7  C7  UNK     1      -2.196  -2.153  -0.627  1.00  0.00     0.221 A 
HETATM    8  C13 UNK     1      -4.388  -3.303  -0.333  1.00  0.00     0.018 A 
HETATM    9  C14 UNK     1      -4.741  -2.022   2.127  1.00  0.00     0.038 A 
HETATM   10  C18 UNK     1      -5.537  -3.541   0.423  1.00  0.00     0.001 A 
HETATM   11  C19 UNK     1      -5.713  -2.902   1.651  1.00  0.00     0.003 A 
ENDROOT
BRANCH   4  12
HETATM   12  O2  UNK     1      -0.069  -0.933  -0.715  1.00  0.00    -0.272 OA
BRANCH  12  13
HETATM   13  C12 UNK     1      -0.153   0.131  -1.582  1.00  0.00     0.264 C 
HETATM   14  O6  UNK     1      -1.131   0.841  -1.781  1.00  0.00    -0.265 OA
BRANCH  13  15
HETATM   15  C8  UNK     1       1.189   0.302  -2.261  1.00  0.00     0.116 C 
BRANCH  15  16
HETATM   16  C6  UNK     1       1.201   1.495  -3.215  1.00  0.00     0.048 C 
BRANCH  16  17
HETATM   17  C9  UNK     1       2.541   1.662  -3.883  1.00  0.00    -0.058 A 
HETATM   18  C20 UNK     1       3.508   2.456  -3.284  1.00  0.00     0.007 A 
HETATM   19  C22 UNK     1       4.749   2.611  -3.902  1.00  0.00     0.001 A 
HETATM   20  C24 UNK     1       5.009   1.970  -5.113  1.00  0.00     0.000 A 
HETATM   21  C23 UNK     1       4.029   1.175  -5.706  1.00  0.00     0.001 A 
HETATM   22  C21 UNK     1       2.788   1.020  -5.088  1.00  0.00     0.007 A 
ENDBRANCH  16  17
ENDBRANCH  15  16
ENDBRANCH  13  15
ENDBRANCH  12  13
ENDBRANCH   4  12
BRANCH   3  23
HETATM   23  C4  UNK     1      -0.627   0.314   1.831  1.00  0.00     0.004 A 
HETATM   24  C10 UNK     1      -0.750   1.682   1.585  1.00  0.00     0.054 A 
HETATM   25  C15 UNK     1       0.103   2.585   2.219  1.00  0.00     0.102 A 
HETATM   26  C16 UNK     1       1.079   2.121   3.100  1.00  0.00     0.101 A 
HETATM   27  C17 UNK     1       1.203   0.754   3.347  1.00  0.00     0.040 A 
HETATM   28  C11 UNK     1       0.350  -0.149   2.713  1.00  0.00     0.017 A 
BRANCH  25  29
HETATM   29  O3  UNK     1      -0.028   3.918   1.970  1.00  0.00    -0.353 OA
HETATM   30  C25 UNK     1       0.732   4.453   0.888  1.00  0.00     0.210 C 
ENDBRANCH  25  29
BRANCH  26  31
HETATM   31  O5  UNK     1       1.918   2.993   3.726  1.00  0.00    -0.353 OA
HETATM   32  C26 UNK     1       1.494   3.507   4.988  1.00  0.00     0.210 C 
ENDBRANCH  26  31
ENDBRANCH   3  23
TORSDOF 8
