REMARK  4 active torsions:
REMARK  status: ('A' for Active; 'I' for Inactive)
REMARK    1  A    between atoms: C7_15  and  O3_3 
REMARK    2  A    between atoms: C8_16  and  O4_4 
REMARK    3  A    between atoms: C13_21  and  O5_5 
REMARK    4  A    between atoms: C14_22  and  O6_6 
ROOT
HETATM    1  O1  UNK     1      -0.983   2.320   0.000  1.00  0.00    -0.271 OA
HETATM    2  O2  UNK     1       0.983  -2.320  -0.000  1.00  0.00    -0.271 OA
HETATM    3  O7  UNK     1       0.848   3.699   0.001  1.00  0.00    -0.259 OA
HETATM    4  O8  UNK     1      -0.848  -3.699   0.002  1.00  0.00    -0.259 OA
HETATM    5  C1  UNK     1      -0.711  -0.091  -0.000  1.00  0.00     0.031 A 
HETATM    6  C2  UNK     1       0.711   0.091   0.000  1.00  0.00     0.031 A 
HETATM    7  C3  UNK     1       1.274   1.367   0.000  1.00  0.00     0.056 A 
HETATM    8  C4  UNK     1      -1.274  -1.366  -0.000  1.00  0.00     0.056 A 
HETATM    9  C5  UNK     1      -1.543   1.022   0.000  1.00  0.00     0.127 A 
HETATM   10  C6  UNK     1       1.543  -1.022  -0.000  1.00  0.00     0.127 A 
HETATM   11  C7  UNK     1      -2.929   0.897  -0.000  1.00  0.00     0.134 A 
HETATM   12  C8  UNK     1       2.929  -0.897  -0.000  1.00  0.00     0.134 A 
HETATM   13  C9  UNK     1       2.666   1.514   0.000  1.00  0.00     0.058 A 
HETATM   14  C10 UNK     1      -2.666  -1.514  -0.001  1.00  0.00     0.058 A 
HETATM   15  C11 UNK     1       0.394   2.562   0.000  1.00  0.00     0.299 A 
HETATM   16  C12 UNK     1      -0.395  -2.562  -0.000  1.00  0.00     0.299 A 
HETATM   17  C13 UNK     1      -3.488  -0.381  -0.001  1.00  0.00     0.102 A 
HETATM   18  C14 UNK     1       3.488   0.381  -0.000  1.00  0.00     0.102 A 
ENDROOT
BRANCH  11  19
HETATM   19  O3  UNK     1      -3.725   2.000  -0.000  1.00  0.00    -0.356 OA
HETATM   20  H3  UNK     1      -4.653   1.708  -0.000  1.00  0.00     0.218 HD
ENDBRANCH  11  19
BRANCH  17  21
HETATM   21  O5  UNK     1      -4.841  -0.541  -0.000  1.00  0.00    -0.358 OA
HETATM   22  H5  UNK     1      -5.049  -1.492  -0.001  1.00  0.00     0.217 HD
ENDBRANCH  17  21
BRANCH  12  23
HETATM   23  O4  UNK     1       3.725  -2.000  -0.000  1.00  0.00    -0.356 OA
HETATM   24  H4  UNK     1       4.602  -1.771   0.349  1.00  0.00     0.218 HD
ENDBRANCH  12  23
BRANCH  18  25
HETATM   25  O6  UNK     1       4.841   0.541  -0.000  1.00  0.00    -0.358 OA
HETATM   26  H6  UNK     1       5.265  -0.259  -0.351  1.00  0.00     0.217 HD
ENDBRANCH  18  25
TORSDOF 4
