REMARK  8 active torsions:
REMARK  status: ('A' for Active; 'I' for Inactive)
REMARK    1  A    between atoms: C1_5  and  S1_1 
REMARK    2  A    between atoms: C7_11  and  S1_1 
REMARK    3  A    between atoms: C23_27  and  O2_3 
REMARK    4  A    between atoms: C8_12  and  N1_4 
REMARK       I    between atoms: C9_13  and  N1_4 
REMARK    5  A    between atoms: C7_11  and  C8_12 
REMARK    6  A    between atoms: C10_14  and  C9_13 
REMARK    7  A    between atoms: C10_14  and  C11_15 
REMARK    8  A    between atoms: C12_16  and  C13_17 
ROOT
HETATM    1  C10 UNK     1      -0.119   1.226  -1.199  1.00  0.00     0.043 C 
HETATM    2  C12 UNK     1       0.601   2.347  -0.988  1.00  0.00     0.029 C 
ENDROOT
BRANCH   1   3
HETATM    3  C9  UNK     1      -1.604   1.338  -0.964  1.00  0.00     0.252 C 
HETATM    4  O1  UNK     1      -2.120   2.385  -0.579  1.00  0.00    -0.268 OA
HETATM    5  N1  UNK     1      -2.316   0.170  -1.212  1.00  0.00    -0.356 N 
HETATM    6  H16 UNK     1      -1.842  -0.673  -1.517  1.00  0.00     0.162 HD
BRANCH   5   7
HETATM    7  C8  UNK     1      -3.740   0.082  -1.036  1.00  0.00     0.133 C 
BRANCH   7   8
HETATM    8  C7  UNK     1      -4.141  -0.352   0.368  1.00  0.00     0.094 C 
BRANCH   8   9
HETATM    9  S1  UNK     1      -3.516  -1.995   0.780  1.00  0.00    -0.163 SA
BRANCH   9  10
HETATM   10  C1  UNK     1      -4.270  -2.150   2.434  1.00  0.00     0.047 C 
HETATM   11  C2  UNK     1      -3.481  -1.318   3.450  1.00  0.00     0.015 C 
HETATM   12  C4  UNK     1      -4.057  -1.477   4.857  1.00  0.00     0.001 C 
HETATM   13  C6  UNK     1      -4.135  -2.943   5.272  1.00  0.00     0.000 C 
HETATM   14  C5  UNK     1      -4.909  -3.777   4.255  1.00  0.00     0.001 C 
HETATM   15  C3  UNK     1      -4.335  -3.623   2.846  1.00  0.00     0.015 C 
ENDBRANCH   9  10
ENDBRANCH   8   9
ENDBRANCH   7   8
ENDBRANCH   5   7
ENDBRANCH   1   3
BRANCH   1  16
HETATM   16  C11 UNK     1       0.505  -0.032  -1.654  1.00  0.00    -0.021 A 
HETATM   17  C14 UNK     1       0.976  -0.955  -0.720  1.00  0.00     0.012 A 
HETATM   18  C18 UNK     1       1.565  -2.144  -1.150  1.00  0.00     0.001 A 
HETATM   19  C20 UNK     1       1.684  -2.410  -2.514  1.00  0.00     0.000 A 
HETATM   20  C19 UNK     1       1.214  -1.487  -3.448  1.00  0.00     0.001 A 
HETATM   21  C15 UNK     1       0.625  -0.298  -3.018  1.00  0.00     0.012 A 
ENDBRANCH   1  16
BRANCH   2  22
HETATM   22  C13 UNK     1       2.052   2.486  -1.182  1.00  0.00    -0.035 A 
HETATM   23  C16 UNK     1       2.926   2.201  -0.133  1.00  0.00     0.014 A 
HETATM   24  C21 UNK     1       4.303   2.333  -0.317  1.00  0.00     0.037 A 
HETATM   25  C23 UNK     1       4.805   2.751  -1.549  1.00  0.00     0.068 A 
HETATM   26  C22 UNK     1       3.931   3.037  -2.598  1.00  0.00     0.037 A 
HETATM   27  C17 UNK     1       2.554   2.904  -2.414  1.00  0.00     0.014 A 
BRANCH  25  28
HETATM   28  O2  UNK     1       6.148   2.880  -1.729  1.00  0.00    -0.356 OA
HETATM   29  C24 UNK     1       6.984   2.571  -0.615  1.00  0.00     0.210 C 
ENDBRANCH  25  28
ENDBRANCH   2  22
TORSDOF 8
