REMARK  7 active torsions:
REMARK  status: ('A' for Active; 'I' for Inactive)
REMARK    1  A    between atoms: C19_26  and  O3_4 
REMARK    2  A    between atoms: C12_19  and  N1_6 
REMARK    3  A    between atoms: C4_11  and  N1_6 
REMARK    4  A    between atoms: C12_19  and  N2_7 
REMARK    5  A    between atoms: C8_15  and  N2_7 
REMARK    6  A    between atoms: C8_15  and  C9_16 
REMARK    7  A    between atoms: C16_23  and  C19_26 
ROOT
HETATM    1  S1  UNK     1       1.261  -1.224   1.595  1.00  0.00    -0.041 SA
HETATM    2  C12 UNK     1       0.687  -0.291   0.322  1.00  0.00     0.172 C 
ENDROOT
BRANCH   2   3
HETATM    3  N1  UNK     1      -0.637  -0.185  -0.139  1.00  0.00    -0.333 N 
HETATM    4  H6  UNK     1      -0.714   0.203  -1.076  1.00  0.00     0.168 HD
BRANCH   3   5
HETATM    5  C4  UNK     1      -1.837  -0.749   0.296  1.00  0.00     0.036 A 
HETATM    6  C5  UNK     1      -2.056  -0.962   1.653  1.00  0.00     0.067 A 
HETATM    7  C2  UNK     1      -3.264  -1.527   2.067  1.00  0.00     0.092 A 
HETATM    8  C1  UNK     1      -4.266  -1.887   1.165  1.00  0.00     0.004 A 
HETATM    9  O1  UNK     1      -3.429  -1.718   3.453  1.00  0.00    -0.275 OA
HETATM   10  C3  UNK     1      -5.506  -2.475   1.689  1.00  0.00    -0.043 A 
HETATM   11  C6  UNK     1      -4.026  -1.664  -0.198  1.00  0.00     0.017 A 
HETATM   12  C10 UNK     1      -5.635  -2.646   3.012  1.00  0.00     0.090 A 
HETATM   13  C11 UNK     1      -6.603  -2.874   0.745  1.00  0.00     0.049 C 
HETATM   14  C13 UNK     1      -4.587  -2.270   3.976  1.00  0.00     0.288 A 
HETATM   15  O2  UNK     1      -4.741  -2.441   5.181  1.00  0.00    -0.260 OA
HETATM   16  C7  UNK     1      -2.820  -1.099  -0.628  1.00  0.00     0.030 A 
ENDBRANCH   3   5
ENDBRANCH   2   3
BRANCH   2  17
HETATM   17  N2  UNK     1       1.626   0.441  -0.394  1.00  0.00    -0.363 N 
HETATM   18  H11 UNK     1       2.586   0.362  -0.070  1.00  0.00     0.162 HD
BRANCH  17  19
HETATM   19  C8  UNK     1       1.383   1.286  -1.547  1.00  0.00     0.160 C 
BRANCH  19  20
HETATM   20  C9  UNK     1       2.655   1.892  -2.077  1.00  0.00    -0.041 A 
HETATM   21  C14 UNK     1       3.084   3.118  -1.588  1.00  0.00     0.010 A 
HETATM   22  C17 UNK     1       4.263   3.679  -2.079  1.00  0.00     0.019 A 
HETATM   23  C16 UNK     1       5.002   3.008  -3.053  1.00  0.00     0.037 A 
HETATM   24  C18 UNK     1       4.561   1.776  -3.537  1.00  0.00     0.019 A 
HETATM   25  C15 UNK     1       3.382   1.215  -3.047  1.00  0.00     0.010 A 
BRANCH  23  26
HETATM   26  C19 UNK     1       6.231   3.593  -3.566  1.00  0.00     0.176 C 
HETATM   27  O4  UNK     1       6.711   4.674  -3.211  1.00  0.00    -0.646 OA
BRANCH  26  28
HETATM   28  O3  UNK     1       6.826   2.810  -4.507  1.00  0.00    -0.773 OA
HETATM   29  H16 UNK     1       7.654   3.213  -4.846  1.00  0.00     0.167 HD
ENDBRANCH  26  28
ENDBRANCH  23  26
ENDBRANCH  19  20
ENDBRANCH  17  19
ENDBRANCH   2  17
TORSDOF 7
