REMARK  10 active torsions:
REMARK  status: ('A' for Active; 'I' for Inactive)
REMARK    1  A    between atoms: C5_16  and  S1_1 
REMARK    2  A    between atoms: N1_10  and  S1_1 
REMARK    3  A    between atoms: C4_15  and  O1_2 
REMARK    4  A    between atoms: C9_20  and  O1_2 
REMARK    5  A    between atoms: C1_12  and  N1_10 
REMARK    6  A    between atoms: C32_43  and  N2_11 
REMARK    7  A    between atoms: C1_12  and  C2_13 
REMARK    8  A    between atoms: C1_12  and  C4_15 
REMARK    9  A    between atoms: C2_13  and  C3_14 
REMARK   10  A    between atoms: C19_30  and  C8_19 
ROOT
HETATM    1  O1  UNK     1       0.625   1.740  -0.016  1.00  0.00    -0.277 OA
ENDROOT
BRANCH   1   2
HETATM    2  C4  UNK     1       1.808   1.004  -0.222  1.00  0.00     0.287 C 
HETATM    3  O5  UNK     1       2.023  -0.117   0.222  1.00  0.00    -0.262 OA
BRANCH   2   4
HETATM    4  C1  UNK     1       2.779   1.814  -1.056  1.00  0.00     0.197 C 
BRANCH   4   5
HETATM    5  N1  UNK     1       3.517   0.829  -1.886  1.00  0.00    -0.301 N 
HETATM    6  H4  UNK     1       4.167   0.205  -1.392  1.00  0.00     0.173 HD
BRANCH   5   7
HETATM    7  S1  UNK     1       2.884   0.346  -3.385  1.00  0.00     0.259 S 
HETATM    8  O3  UNK     1       1.447   0.543  -3.388  1.00  0.00    -0.201 OA
HETATM    9  O4  UNK     1       3.444  -0.945  -3.734  1.00  0.00    -0.201 OA
BRANCH   7  10
HETATM   10  C5  UNK     1       3.599   1.533  -4.483  1.00  0.00     0.079 A 
HETATM   11  C15 UNK     1       2.931   2.728  -4.750  1.00  0.00     0.026 A 
HETATM   12  C21 UNK     1       3.495   3.663  -5.617  1.00  0.00     0.008 A 
HETATM   13  C20 UNK     1       4.728   3.404  -6.217  1.00  0.00    -0.062 A 
HETATM   14  C22 UNK     1       5.395   2.209  -5.950  1.00  0.00     0.008 A 
HETATM   15  C29 UNK     1       5.332   4.404  -7.144  1.00  0.00     0.048 C 
HETATM   16  C16 UNK     1       4.831   1.273  -5.083  1.00  0.00     0.026 A 
ENDBRANCH   7  10
ENDBRANCH   5   7
ENDBRANCH   4   5
BRANCH   4  17
HETATM   17  C2  UNK     1       3.780   2.576  -0.185  1.00  0.00     0.074 C 
BRANCH  17  18
HETATM   18  C3  UNK     1       4.513   3.667  -0.927  1.00  0.00    -0.056 A 
HETATM   19  C10 UNK     1       3.987   4.958  -0.967  1.00  0.00     0.007 A 
HETATM   20  C23 UNK     1       4.664   5.967  -1.653  1.00  0.00     0.001 A 
HETATM   21  C25 UNK     1       5.867   5.683  -2.300  1.00  0.00     0.000 A 
HETATM   22  C24 UNK     1       6.393   4.392  -2.261  1.00  0.00     0.001 A 
HETATM   23  C11 UNK     1       5.715   3.384  -1.575  1.00  0.00     0.007 A 
ENDBRANCH  17  18
ENDBRANCH   4  17
ENDBRANCH   2   4
ENDBRANCH   1   2
BRANCH   1  24
HETATM   24  C9  UNK     1      -0.318   1.097   0.726  1.00  0.00     0.082 A 
HETATM   25  C13 UNK     1      -1.271   0.296   0.098  1.00  0.00     0.075 A 
HETATM   26  C7  UNK     1      -2.237  -0.362   0.861  1.00  0.00     0.092 A 
HETATM   27  C6  UNK     1      -2.249  -0.217   2.244  1.00  0.00     0.049 A 
HETATM   28  O2  UNK     1      -3.146  -1.134   0.188  1.00  0.00    -0.313 OA
HETATM   29  C12 UNK     1      -3.277  -0.922   3.021  1.00  0.00     0.198 A 
HETATM   30  C17 UNK     1      -1.296   0.585   2.877  1.00  0.00     0.021 A 
HETATM   31  O6  UNK     1      -3.329  -0.826   4.241  1.00  0.00    -0.286 OA
HETATM   32  C8  UNK     1      -4.245  -1.755   2.251  1.00  0.00     0.054 A 
HETATM   33  C14 UNK     1      -4.123  -1.809   0.907  1.00  0.00     0.065 A 
HETATM   34  C26 UNK     1      -5.021  -2.602  -0.002  1.00  0.00     0.077 C 
HETATM   35  C18 UNK     1      -0.331   1.242   2.113  1.00  0.00     0.038 A 
BRANCH  32  36
HETATM   36  C19 UNK     1      -5.287  -2.480   2.966  1.00  0.00    -0.019 A 
HETATM   37  C27 UNK     1      -6.522  -1.875   3.202  1.00  0.00     0.015 A 
HETATM   38  C30 UNK     1      -7.520  -2.570   3.885  1.00  0.00     0.037 A 
HETATM   39  C32 UNK     1      -7.283  -3.871   4.331  1.00  0.00     0.102 A 
HETATM   40  C31 UNK     1      -6.049  -4.476   4.095  1.00  0.00     0.037 A 
HETATM   41  C28 UNK     1      -5.051  -3.781   3.412  1.00  0.00     0.015 A 
BRANCH  39  42
HETATM   42  N2  UNK     1      -8.299  -4.579   5.026  1.00  0.00    -0.116 N 
HETATM   43  O7  UNK     1      -9.403  -4.017   5.228  1.00  0.00    -0.532 OA
HETATM   44  O8  UNK     1      -8.066  -5.747   5.419  1.00  0.00    -0.532 OA
ENDBRANCH  39  42
ENDBRANCH  32  36
ENDBRANCH   1  24
TORSDOF 10
