REMARK  3 active torsions:
REMARK  status: ('A' for Active; 'I' for Inactive)
REMARK    1  A    between atoms: C5_8  and  N1_2 
REMARK    2  A    between atoms: C12_15  and  C9_12 
REMARK    3  A    between atoms: C13_16  and  C14_17 
ROOT
HETATM    1  N2  UNK     1       2.340   2.188  -4.697  1.00  0.00    -0.191 NA
HETATM    2  C12 UNK     1       0.015   0.784  -2.600  1.00  0.00     0.035 C 
HETATM    3  C13 UNK     1       1.257   1.280  -2.525  1.00  0.00     0.055 C 
HETATM    4  C17 UNK     1       1.853   1.781  -3.725  1.00  0.00     0.100 C 
ENDROOT
BRANCH   3   5
HETATM    5  C14 UNK     1       2.040   1.361  -1.276  1.00  0.00    -0.015 A 
HETATM    6  C15 UNK     1       1.931   2.489  -0.482  1.00  0.00     0.014 A 
HETATM    7  C18 UNK     1       2.672   2.565   0.697  1.00  0.00     0.024 A 
HETATM    8  C20 UNK     1       3.510   1.513   1.064  1.00  0.00     0.034 A 
HETATM    9  C19 UNK     1       3.608   0.384   0.251  1.00  0.00     0.024 A 
HETATM   10 Cl1  UNK     1       4.424   1.607   2.519  1.00  0.00    -0.084 Cl
HETATM   11  C16 UNK     1       2.867   0.307  -0.929  1.00  0.00     0.014 A 
ENDBRANCH   3   5
BRANCH   2  12
HETATM   12  C9  UNK     1      -0.776   0.207  -1.521  1.00  0.00    -0.029 A 
HETATM   13  C10 UNK     1      -1.575   1.052  -0.751  1.00  0.00     0.014 A 
HETATM   14  C7  UNK     1      -2.343   0.529   0.289  1.00  0.00     0.030 A 
HETATM   15  C5  UNK     1      -2.342  -0.860   0.601  1.00  0.00     0.030 A 
HETATM   16  C6  UNK     1      -1.513  -1.684  -0.210  1.00  0.00     0.037 A 
HETATM   17  C8  UNK     1      -0.745  -1.161  -1.251  1.00  0.00    -0.050 A 
HETATM   18  C11 UNK     1       0.100  -2.096  -2.055  1.00  0.00     0.049 C 
BRANCH  15  19
HETATM   19  N1  UNK     1      -3.101  -1.376   1.630  1.00  0.00    -0.381 N 
HETATM   20  C3  UNK     1      -3.967  -0.576   2.492  1.00  0.00     0.123 C 
HETATM   21  C1  UNK     1      -4.798  -1.617   3.240  1.00  0.00     0.021 C 
HETATM   22  C2  UNK     1      -3.855  -2.804   3.339  1.00  0.00     0.021 C 
HETATM   23  C4  UNK     1      -3.138  -2.791   1.991  1.00  0.00     0.123 C 
ENDBRANCH  15  19
ENDBRANCH   2  12
TORSDOF 3
