REMARK  3 active torsions:
REMARK  status: ('A' for Active; 'I' for Inactive)
REMARK    1  A    between atoms: C3_9  and  N1_6 
REMARK       I    between atoms: C7_13  and  N1_6 
REMARK    2  A    between atoms: C1_7  and  C3_9 
REMARK    3  A    between atoms: C7_13  and  C8_14 
ROOT
HETATM    1 Cl1  UNK     1       4.121   4.147  -3.405  1.00  0.00    -0.084 Cl
HETATM    2  O3  UNK     1       2.269  -0.185   0.143  1.00  0.00    -0.274 OA
HETATM    3  O4  UNK     1       0.625  -1.606   0.848  1.00  0.00    -0.259 OA
HETATM    4  C8  UNK     1       0.061  -0.115  -0.905  1.00  0.00     0.108 A 
HETATM    5  C9  UNK     1       0.451   0.869  -1.724  1.00  0.00     0.037 A 
HETATM    6  C10 UNK     1       1.807   1.391  -1.650  1.00  0.00     0.001 A 
HETATM    7  C11 UNK     1       0.978  -0.705   0.096  1.00  0.00     0.304 A 
HETATM    8  C12 UNK     1       2.686   0.850  -0.716  1.00  0.00     0.089 A 
HETATM    9  C13 UNK     1       2.257   2.416  -2.485  1.00  0.00     0.038 A 
HETATM   10  C14 UNK     1       3.998   1.304  -0.595  1.00  0.00     0.040 A 
HETATM   11  C15 UNK     1       3.570   2.882  -2.374  1.00  0.00     0.035 A 
HETATM   12  C16 UNK     1       4.438   2.327  -1.431  1.00  0.00     0.026 A 
ENDROOT
BRANCH   4  13
HETATM   13  C7  UNK     1      -1.326  -0.573  -1.055  1.00  0.00     0.258 C 
HETATM   14  O2  UNK     1      -1.894  -0.518  -2.144  1.00  0.00    -0.267 OA
HETATM   15  N1  UNK     1      -1.868  -1.044   0.127  1.00  0.00    -0.350 N 
HETATM   16  H12 UNK     1      -1.302  -1.071   0.970  1.00  0.00     0.163 HD
BRANCH  15  17
HETATM   17  C3  UNK     1      -3.219  -1.547   0.229  1.00  0.00     0.109 C 
HETATM   18  C6  UNK     1      -3.250  -3.037  -0.087  1.00  0.00     0.035 C 
BRANCH  17  19
HETATM   19  C1  UNK     1      -3.792  -1.264   1.604  1.00  0.00     0.143 C 
HETATM   20  O1  UNK     1      -3.012  -1.938   2.606  1.00  0.00    -0.384 OA
HETATM   21  C5  UNK     1      -2.844  -1.052   3.723  1.00  0.00     0.168 C 
HETATM   22  C4  UNK     1      -3.749   0.138   3.482  1.00  0.00     0.029 C 
HETATM   23  C2  UNK     1      -3.776   0.209   1.976  1.00  0.00     0.036 C 
ENDBRANCH  17  19
ENDBRANCH  15  17
ENDBRANCH   4  13
TORSDOF 3
