REMARK  4 active torsions:
REMARK  status: ('A' for Active; 'I' for Inactive)
REMARK    1  A    between atoms: C20_27  and  O4_4 
REMARK    2  A    between atoms: C5_12  and  N1_6 
REMARK       I    between atoms: C6_13  and  N2_7 
REMARK    3  A    between atoms: C6_13  and  C7_14 
REMARK    4  A    between atoms: C13_20  and  C18_25 
ROOT
HETATM    1  O1  UNK     1      -0.745   1.208  -3.804  1.00  0.00    -0.267 OA
HETATM    2  N1  UNK     1      -2.476  -1.038   0.378  1.00  0.00    -0.378 N 
HETATM    3  N2  UNK     1      -0.895   0.104  -1.760  1.00  0.00    -0.345 N 
HETATM    4  C1  UNK     1      -1.091  -1.468   0.175  1.00  0.00     0.143 C 
HETATM    5  C2  UNK     1      -3.069  -0.127  -0.604  1.00  0.00     0.143 C 
HETATM    6  C3  UNK     1      -0.278  -0.374  -0.519  1.00  0.00     0.146 C 
HETATM    7  C4  UNK     1      -2.315  -0.197  -1.930  1.00  0.00     0.146 C 
HETATM    8  C6  UNK     1      -0.227   0.808  -2.760  1.00  0.00     0.260 C 
ENDROOT
BRANCH   8   9
HETATM    9  C7  UNK     1       1.205   1.099  -2.538  1.00  0.00     0.108 A 
HETATM   10  C12 UNK     1       1.484   2.251  -1.917  1.00  0.00     0.037 A 
HETATM   11  C15 UNK     1       2.865   2.626  -1.654  1.00  0.00    -0.001 A 
HETATM   12  C16 UNK     1       3.883   1.769  -2.058  1.00  0.00     0.092 A 
HETATM   13  C17 UNK     1       3.202   3.818  -1.009  1.00  0.00     0.017 A 
HETATM   14  O2  UNK     1       3.583   0.558  -2.712  1.00  0.00    -0.274 OA
HETATM   15  C19 UNK     1       5.226   2.070  -1.836  1.00  0.00     0.075 A 
HETATM   16  C14 UNK     1       2.272   0.172  -2.977  1.00  0.00     0.304 A 
HETATM   17  O3  UNK     1       2.020  -0.883  -3.548  1.00  0.00    -0.259 OA
HETATM   18  C20 UNK     1       5.554   3.260  -1.192  1.00  0.00     0.070 A 
HETATM   19  C21 UNK     1       4.545   4.133  -0.779  1.00  0.00     0.038 A 
BRANCH  18  20
HETATM   20  O4  UNK     1       6.859   3.574  -0.964  1.00  0.00    -0.356 OA
HETATM   21  C23 UNK     1       7.839   2.638  -1.411  1.00  0.00     0.210 C 
ENDBRANCH  18  20
ENDBRANCH   8   9
BRANCH   2  22
HETATM   22  C5  UNK     1      -3.237  -1.528   1.438  1.00  0.00     0.030 A 
HETATM   23  C8  UNK     1      -2.978  -2.798   2.006  1.00  0.00     0.030 A 
HETATM   24  C10 UNK     1      -3.738  -3.288   3.067  1.00  0.00     0.017 A 
HETATM   25  C13 UNK     1      -4.780  -2.522   3.591  1.00  0.00     0.009 A 
HETATM   26  C11 UNK     1      -5.060  -1.266   3.053  1.00  0.00     0.017 A 
HETATM   27  C9  UNK     1      -4.300  -0.776   1.991  1.00  0.00     0.030 A 
BRANCH  25  28
HETATM   28  C18 UNK     1      -5.572  -3.033   4.698  1.00  0.00     0.155 C 
HETATM   29  O5  UNK     1      -6.509  -2.371   5.188  1.00  0.00    -0.293 OA
HETATM   30  C22 UNK     1      -5.269  -4.405   5.292  1.00  0.00     0.096 C 
ENDBRANCH  25  28
ENDBRANCH   2  22
TORSDOF 4
