REMARK  1 active torsions:
REMARK  status: ('A' for Active; 'I' for Inactive)
REMARK    1  A    between atoms: C10_17  and  N2_6 
ROOT
HETATM    1  O1  UNK     1       2.197   0.680   0.821  1.00  0.00    -0.291 OA
HETATM    2  O2  UNK     1       0.482   1.198  -2.951  1.00  0.00    -0.274 OA
HETATM    3  O3  UNK     1      -1.622   2.328   1.055  1.00  0.00    -0.271 OA
HETATM    4  O4  UNK     1      -1.552   0.591  -2.151  1.00  0.00    -0.259 OA
HETATM    5  N1  UNK     1      -2.962   0.435   0.684  1.00  0.00    -0.325 N 
HETATM    6  N3  UNK     1      -1.071  -0.691   4.066  1.00  0.00    -0.191 NA
HETATM    7  C1  UNK     1      -0.604   0.109   0.586  1.00  0.00     0.147 A 
HETATM    8  C2  UNK     1      -1.376  -1.163   0.296  1.00  0.00    -0.003 A 
HETATM    9  C3  UNK     1       0.251   0.581  -0.579  1.00  0.00     0.080 A 
HETATM   10  C4  UNK     1      -1.754   1.138   0.810  1.00  0.00     0.246 A 
HETATM   11  C5  UNK     1      -2.745  -0.906   0.382  1.00  0.00     0.049 A 
HETATM   12  C6  UNK     1       0.171   0.018   1.901  1.00  0.00     0.100 A 
HETATM   13  C7  UNK     1       1.560   0.827  -0.396  1.00  0.00     0.105 A 
HETATM   14  C8  UNK     1      -0.917  -2.433  -0.007  1.00  0.00     0.011 A 
HETATM   15  C9  UNK     1      -3.698  -1.883   0.175  1.00  0.00    -0.035 A 
HETATM   16  C10 UNK     1       1.493   0.296   1.956  1.00  0.00     0.160 A 
HETATM   17  C11 UNK     1      -0.361   0.779  -1.927  1.00  0.00     0.299 A 
HETATM   18  C12 UNK     1       2.419   1.272  -1.492  1.00  0.00     0.033 A 
HETATM   19  C13 UNK     1      -1.864  -3.439  -0.222  1.00  0.00     0.001 A 
HETATM   20  C14 UNK     1      -3.242  -3.166  -0.131  1.00  0.00     0.009 A 
HETATM   21  C15 UNK     1       1.850   1.444  -2.747  1.00  0.00     0.092 A 
HETATM   22  C16 UNK     1      -5.156  -1.600   0.265  1.00  0.00     0.050 C 
HETATM   23  C17 UNK     1      -0.516  -0.374   3.098  1.00  0.00     0.101 C 
HETATM   24  C18 UNK     1       3.788   1.534  -1.348  1.00  0.00     0.017 A 
HETATM   25  C19 UNK     1       2.594   1.863  -3.850  1.00  0.00     0.038 A 
HETATM   26  C20 UNK     1       4.549   1.955  -2.443  1.00  0.00     0.001 A 
HETATM   27  C21 UNK     1       3.953   2.119  -3.693  1.00  0.00     0.003 A 
HETATM   28  H1  UNK     1      -3.882   0.847   0.786  1.00  0.00     0.169 HD
ENDROOT
BRANCH  16  29
HETATM   29  N2  UNK     1       2.265   0.236   3.083  1.00  0.00    -0.379 N 
HETATM   30  H10 UNK     1       1.869  -0.032   3.974  1.00  0.00     0.158 HD
HETATM   31  H9  UNK     1       3.249   0.465   3.013  1.00  0.00     0.158 HD
ENDBRANCH  16  29
TORSDOF 1
