REMARK  1 active torsions:
REMARK  status: ('A' for Active; 'I' for Inactive)
REMARK    1  A    between atoms: C12_14  and  C5_7 
ROOT
HETATM    1  S1  UNK     1      -0.134   0.257  -1.147  1.00  0.00    -0.088 SA
HETATM    2  O1  UNK     1       1.550   0.544   2.921  1.00  0.00    -0.287 OA
HETATM    3  C1  UNK     1      -0.913  -0.308   0.368  1.00  0.00     0.031 A 
HETATM    4  C2  UNK     1      -2.216  -0.914   0.289  1.00  0.00    -0.008 A 
HETATM    5  C3  UNK     1      -0.285  -0.172   1.619  1.00  0.00     0.032 A 
HETATM    6  C4  UNK     1      -2.839  -1.361   1.484  1.00  0.00    -0.025 A 
HETATM    7  C5  UNK     1       1.378   0.871  -0.623  1.00  0.00     0.019 A 
HETATM    8  C6  UNK     1      -0.928  -0.623   2.777  1.00  0.00     0.018 A 
HETATM    9  C7  UNK     1      -2.187  -1.209   2.709  1.00  0.00     0.013 A 
HETATM   10  C8  UNK     1       1.054   0.435   1.803  1.00  0.00     0.184 A 
HETATM   11  C9  UNK     1      -2.953  -1.108  -0.912  1.00  0.00     0.013 A 
HETATM   12  C10 UNK     1       1.816   0.917   0.636  1.00  0.00     0.075 A 
HETATM   13  C11 UNK     1      -4.111  -1.959   1.454  1.00  0.00     0.012 A 
HETATM   14  C13 UNK     1      -4.217  -1.705  -0.928  1.00  0.00     0.001 A 
HETATM   15  C14 UNK     1      -4.796  -2.130   0.256  1.00  0.00     0.001 A 
ENDROOT
BRANCH   7  16
HETATM   16  C12 UNK     1       2.242   1.388  -1.695  1.00  0.00    -0.019 A 
HETATM   17  C16 UNK     1       2.160   2.729  -2.073  1.00  0.00     0.013 A 
HETATM   18  C18 UNK     1       2.980   3.220  -3.090  1.00  0.00     0.001 A 
HETATM   19  C19 UNK     1       3.883   2.371  -3.729  1.00  0.00     0.000 A 
HETATM   20  C17 UNK     1       3.966   1.030  -3.352  1.00  0.00     0.001 A 
HETATM   21  C15 UNK     1       3.147   0.539  -2.336  1.00  0.00     0.013 A 
ENDBRANCH   7  16
TORSDOF 1
