REMARK  5 active torsions:
REMARK  status: ('A' for Active; 'I' for Inactive)
REMARK    1  A    between atoms: C1_5  and  O1_1 
REMARK    2  A    between atoms: C4_8  and  O1_1 
REMARK    3  A    between atoms: C1_5  and  C2_6 
REMARK    4  A    between atoms: C1_5  and  C3_7 
REMARK    5  A    between atoms: C2_6  and  C6_10 
ROOT
HETATM    1  O1  UNK     1      -0.170  -0.592  -0.492  1.00  0.00    -0.340 OA
ENDROOT
BRANCH   1   2
HETATM    2  C1  UNK     1      -1.226   0.177   0.049  1.00  0.00     0.168 C 
BRANCH   2   3
HETATM    3  C2  UNK     1      -2.380   0.259  -0.957  1.00  0.00     0.115 C 
BRANCH   3   4
HETATM    4  C6  UNK     1      -2.956  -1.103  -1.316  1.00  0.00     0.125 C 
HETATM    5  C14 UNK     1      -4.424  -1.295  -1.033  1.00  0.00     0.091 C 
HETATM    6  O3  UNK     1      -2.284  -2.004  -1.815  1.00  0.00    -0.298 OA
ENDBRANCH   3   4
ENDBRANCH   2   3
BRANCH   2   7
HETATM    7  C3  UNK     1      -1.663  -0.467   1.345  1.00  0.00    -0.029 A 
HETATM    8  C7  UNK     1      -2.162   0.329   2.363  1.00  0.00     0.010 A 
HETATM    9  C12 UNK     1      -2.565  -0.265   3.559  1.00  0.00     0.001 A 
HETATM   10  C16 UNK     1      -2.462  -1.647   3.720  1.00  0.00     0.000 A 
HETATM   11  C13 UNK     1      -1.958  -2.434   2.685  1.00  0.00     0.001 A 
HETATM   12  C8  UNK     1      -1.555  -1.840   1.489  1.00  0.00     0.010 A 
ENDBRANCH   2   7
ENDBRANCH   1   2
BRANCH   1  13
HETATM   13  C4  UNK     1       0.714   0.210  -1.185  1.00  0.00     0.088 A 
HETATM   14  C10 UNK     1       0.516   0.436  -2.487  1.00  0.00     0.120 A 
HETATM   15  C17 UNK     1       1.406   1.297  -3.283  1.00  0.00     0.290 A 
HETATM   16  O2  UNK     1       2.466   1.885  -2.608  1.00  0.00    -0.275 OA
HETATM   17  O4  UNK     1       1.209   1.486  -4.478  1.00  0.00    -0.260 OA
HETATM   18  C9  UNK     1       2.700   1.645  -1.237  1.00  0.00     0.092 A 
HETATM   19  C15 UNK     1       3.816   2.273  -0.680  1.00  0.00     0.038 A 
HETATM   20  C5  UNK     1       1.858   0.814  -0.493  1.00  0.00     0.031 A 
HETATM   21  C19 UNK     1       4.110   2.066   0.663  1.00  0.00     0.003 A 
HETATM   22  C18 UNK     1       3.294   1.235   1.429  1.00  0.00     0.001 A 
HETATM   23  C11 UNK     1       2.178   0.613   0.856  1.00  0.00     0.017 A 
ENDBRANCH   1  13
TORSDOF 5
