REMARK  2 active torsions:
REMARK  status: ('A' for Active; 'I' for Inactive)
REMARK    1  A    between atoms: C9_14  and  O3_3 
REMARK    2  A    between atoms: C13_18  and  O4_4 
ROOT
HETATM    1  O1  UNK     1      -1.239  -1.201   0.318  1.00  0.00    -0.306 OA
HETATM    2  O2  UNK     1       1.738   0.880  -3.263  1.00  0.00    -0.275 OA
HETATM    3  O5  UNK     1       0.251   0.018  -4.771  1.00  0.00    -0.260 OA
HETATM    4  C1  UNK     1      -0.163   0.326  -1.229  1.00  0.00     0.017 A 
HETATM    5  C2  UNK     1      -1.179   0.007  -0.302  1.00  0.00     0.088 A 
HETATM    6  C3  UNK     1       1.133   0.940  -0.901  1.00  0.00     0.011 A 
HETATM    7  C4  UNK     1      -2.969   0.057   1.044  1.00  0.00     0.003 A 
HETATM    8  C5  UNK     1      -2.328  -1.174   1.138  1.00  0.00     0.119 A 
HETATM    9  C6  UNK     1      -2.216   0.815   0.109  1.00  0.00     0.052 A 
HETATM   10  C7  UNK     1       2.042   1.198  -1.926  1.00  0.00     0.093 A 
HETATM   11  C8  UNK     1      -0.422   0.035  -2.514  1.00  0.00     0.097 A 
HETATM   12  C9  UNK     1      -2.754  -2.216   1.959  1.00  0.00     0.102 A 
HETATM   13  C10 UNK     1       1.503   1.281   0.406  1.00  0.00     0.018 A 
HETATM   14  C11 UNK     1      -4.120   0.276   1.822  1.00  0.00     0.014 A 
HETATM   15  C12 UNK     1       3.287   1.779  -1.684  1.00  0.00     0.075 A 
HETATM   16  C13 UNK     1       3.639   2.113  -0.380  1.00  0.00     0.070 A 
HETATM   17  C14 UNK     1       2.748   1.864   0.664  1.00  0.00     0.038 A 
HETATM   18  C15 UNK     1      -3.900  -1.978   2.723  1.00  0.00     0.040 A 
HETATM   19  C16 UNK     1       0.528   0.300  -3.610  1.00  0.00     0.289 A 
HETATM   20  C17 UNK     1      -4.573  -0.755   2.657  1.00  0.00     0.004 A 
ENDROOT
BRANCH  12  21
HETATM   21  O3  UNK     1      -2.100  -3.411   2.024  1.00  0.00    -0.353 OA
HETATM   22  C18 UNK     1      -1.066  -3.530   2.999  1.00  0.00     0.210 C 
ENDBRANCH  12  21
BRANCH  16  23
HETATM   23  O4  UNK     1       4.848   2.681  -0.123  1.00  0.00    -0.356 OA
HETATM   24  C19 UNK     1       5.709   2.908  -1.238  1.00  0.00     0.210 C 
ENDBRANCH  16  23
TORSDOF 2
