REMARK  3 active torsions:
REMARK  status: ('A' for Active; 'I' for Inactive)
REMARK    1  A    between atoms: C5_9  and  O2_2 
REMARK    2  A    between atoms: C13_17  and  O4_4 
REMARK    3  A    between atoms: C1_5  and  C4_8 
ROOT
HETATM    1  O1  UNK     1       0.123  -1.509  -0.077  1.00  0.00    -0.306 OA
HETATM    2  O3  UNK     1       1.439  -2.906   3.518  1.00  0.00    -0.284 OA
HETATM    3  C1  UNK     1       0.184  -0.689   1.039  1.00  0.00     0.123 A 
HETATM    4  C2  UNK     1       0.996  -3.349   1.244  1.00  0.00     0.051 A 
HETATM    5  C3  UNK     1       0.533  -2.811   0.045  1.00  0.00     0.090 A 
HETATM    6  C5  UNK     1       0.602  -1.086   2.255  1.00  0.00     0.152 A 
HETATM    7  C6  UNK     1       1.049  -2.488   2.436  1.00  0.00     0.220 A 
HETATM    8  C7  UNK     1       1.401  -4.684   1.309  1.00  0.00     0.018 A 
HETATM    9  C8  UNK     1       0.471  -3.608  -1.099  1.00  0.00     0.038 A 
HETATM   10  C11 UNK     1       1.338  -5.479   0.164  1.00  0.00     0.001 A 
HETATM   11  C12 UNK     1       0.874  -4.942  -1.038  1.00  0.00     0.003 A 
ENDROOT
BRANCH   3  12
HETATM   12  C4  UNK     1      -0.283   0.682   0.771  1.00  0.00     0.003 A 
HETATM   13  C10 UNK     1      -1.632   1.002   0.924  1.00  0.00     0.014 A 
HETATM   14  C14 UNK     1      -2.075   2.300   0.672  1.00  0.00     0.004 A 
HETATM   15  C15 UNK     1      -1.168   3.280   0.266  1.00  0.00     0.036 A 
HETATM   16  C13 UNK     1       0.181   2.961   0.113  1.00  0.00     0.066 A 
HETATM   17  C9  UNK     1       0.624   1.662   0.366  1.00  0.00     0.051 A 
BRANCH  16  18
HETATM   18  O4  UNK     1       1.065   3.918  -0.281  1.00  0.00    -0.361 OA
HETATM   19  H10 UNK     1       0.587   4.755  -0.410  1.00  0.00     0.217 HD
ENDBRANCH  16  18
ENDBRANCH   3  12
BRANCH   6  20
HETATM   20  O2  UNK     1       0.619  -0.253   3.353  1.00  0.00    -0.355 OA
HETATM   21  H9  UNK     1       0.301   0.630   3.102  1.00  0.00     0.218 HD
ENDBRANCH   6  20
TORSDOF 3
