REMARK  2 active torsions:
REMARK  status: ('A' for Active; 'I' for Inactive)
REMARK    1  A    between atoms: C8_15  and  N1_6 
REMARK    2  A    between atoms: C1_8  and  C4_11 
ROOT
HETATM    1  O1  UNK     1       1.402   1.300   1.108  1.00  0.00    -0.291 OA
HETATM    2  O2  UNK     1       1.360  -0.186  -2.803  1.00  0.00    -0.274 OA
HETATM    3  O3  UNK     1      -0.004  -1.890  -2.144  1.00  0.00    -0.259 OA
HETATM    4  N2  UNK     1      -0.915  -1.771   4.007  1.00  0.00    -0.191 NA
HETATM    5  C1  UNK     1      -0.234  -1.000   0.584  1.00  0.00     0.112 C 
HETATM    6  C2  UNK     1       0.603  -0.308  -0.476  1.00  0.00     0.066 A 
HETATM    7  C3  UNK     1       1.339   0.771  -0.169  1.00  0.00     0.104 A 
HETATM    8  C5  UNK     1       0.064  -0.477   1.986  1.00  0.00     0.086 C 
HETATM    9  C6  UNK     1       2.125   1.463  -1.186  1.00  0.00     0.033 A 
HETATM   10  C7  UNK     1       0.614  -0.872  -1.851  1.00  0.00     0.298 A 
HETATM   11  C8  UNK     1       0.834   0.617   2.182  1.00  0.00     0.159 C 
HETATM   12  C9  UNK     1       2.108   0.963  -2.485  1.00  0.00     0.092 A 
HETATM   13  C12 UNK     1       2.893   2.605  -0.928  1.00  0.00     0.017 A 
HETATM   14  C13 UNK     1       2.825   1.563  -3.520  1.00  0.00     0.038 A 
HETATM   15  C16 UNK     1       3.618   3.218  -1.955  1.00  0.00     0.001 A 
HETATM   16  C17 UNK     1      -0.477  -1.192   3.102  1.00  0.00     0.100 C 
HETATM   17  C18 UNK     1       3.583   2.698  -3.249  1.00  0.00     0.003 A 
ENDROOT
BRANCH   5  18
HETATM   18  C4  UNK     1      -1.697  -0.850   0.279  1.00  0.00    -0.004 A 
HETATM   19  C10 UNK     1      -2.263   0.419   0.241  1.00  0.00     0.030 A 
HETATM   20  C14 UNK     1      -3.622   0.560  -0.040  1.00  0.00     0.011 A 
HETATM   21 Br1  UNK     1      -4.401   2.281  -0.096  1.00  0.00    -0.051 Br
HETATM   22  C19 UNK     1      -4.405  -0.569  -0.281  1.00  0.00     0.022 A 
HETATM   23  C15 UNK     1      -3.830  -1.839  -0.241  1.00  0.00     0.044 A 
HETATM   24  C11 UNK     1      -2.471  -1.980   0.039  1.00  0.00     0.123 A 
HETATM   25  F1  UNK     1      -1.926  -3.204   0.076  1.00  0.00    -0.206 F 
ENDBRANCH   5  18
BRANCH  11  26
HETATM   26  N1  UNK     1       1.139   1.159   3.401  1.00  0.00    -0.379 N 
HETATM   27  H8  UNK     1       1.727   1.982   3.436  1.00  0.00     0.158 HD
HETATM   28  H9  UNK     1       0.783   0.751   4.255  1.00  0.00     0.158 HD
ENDBRANCH  11  26
TORSDOF 2
