REMARK  5 active torsions:
REMARK  status: ('A' for Active; 'I' for Inactive)
REMARK    1  A    between atoms: C1_11  and  S1_1 
REMARK    2  A    between atoms: N2_9  and  S1_1 
REMARK       I    between atoms: C11_21  and  N1_8 
REMARK    3  A    between atoms: C2_12  and  N1_8 
REMARK    4  A    between atoms: C16_26  and  N2_9 
REMARK    5  A    between atoms: C11_21  and  C8_18 
ROOT
HETATM    1  C1  UNK     1      -2.050  -1.887   0.968  1.00  0.00     0.075 A 
HETATM    2  C2  UNK     1      -0.120  -0.427  -0.376  1.00  0.00     0.035 A 
HETATM    3  C3  UNK     1      -1.220  -1.014   1.671  1.00  0.00     0.027 A 
HETATM    4  C4  UNK     1      -1.907  -2.025  -0.413  1.00  0.00     0.027 A 
HETATM    5  C6  UNK     1      -0.248  -0.278   0.994  1.00  0.00     0.031 A 
HETATM    6  C7  UNK     1      -0.934  -1.289  -1.090  1.00  0.00     0.031 A 
ENDROOT
BRANCH   2   7
HETATM    7  N1  UNK     1       0.868   0.320  -1.064  1.00  0.00    -0.323 N 
HETATM    8  C11 UNK     1       1.772   1.226  -0.525  1.00  0.00     0.262 C 
HETATM    9  O4  UNK     1       1.898   1.564   0.650  1.00  0.00    -0.267 OA
HETATM   10  H5  UNK     1       0.907   0.133  -2.063  1.00  0.00     0.169 HD
BRANCH   8  11
HETATM   11  C8  UNK     1       2.648   1.808  -1.549  1.00  0.00     0.108 A 
HETATM   12  C10 UNK     1       3.874   2.163  -1.145  1.00  0.00     0.037 A 
HETATM   13  C5  UNK     1       4.815   2.749  -2.087  1.00  0.00    -0.001 A 
HETATM   14  C13 UNK     1       6.104   3.134  -1.709  1.00  0.00     0.014 A 
HETATM   15  C9  UNK     1       4.420   2.932  -3.408  1.00  0.00     0.089 A 
HETATM   16  C15 UNK     1       6.971   3.693  -2.652  1.00  0.00     0.001 A 
HETATM   17  C17 UNK     1       6.556   3.869  -3.974  1.00  0.00     0.003 A 
HETATM   18  C14 UNK     1       5.273   3.488  -4.359  1.00  0.00     0.038 A 
HETATM   19  O1  UNK     1       3.129   2.556  -3.827  1.00  0.00    -0.274 OA
HETATM   20  C12 UNK     1       2.206   1.993  -2.949  1.00  0.00     0.304 A 
HETATM   21  O5  UNK     1       1.084   1.670  -3.323  1.00  0.00    -0.259 OA
ENDBRANCH   8  11
ENDBRANCH   2   7
BRANCH   1  22
HETATM   22  S1  UNK     1      -3.266  -2.809   1.815  1.00  0.00     0.247 S 
HETATM   23  O2  UNK     1      -3.573  -4.000   1.033  1.00  0.00    -0.205 OA
HETATM   24  O3  UNK     1      -2.830  -2.952   3.199  1.00  0.00    -0.205 OA
BRANCH  22  25
HETATM   25  N2  UNK     1      -4.609  -1.737   1.738  1.00  0.00    -0.159 NA
HETATM   26  H7  UNK     1      -4.986  -1.550   0.799  1.00  0.00     0.148 HD
BRANCH  25  27
HETATM   27  C16 UNK     1      -5.689  -1.982   2.719  1.00  0.00     0.158 A 
HETATM   28  S2  UNK     1      -7.329  -1.833   2.279  1.00  0.00    -0.068 SA
HETATM   29  C18 UNK     1      -7.754  -2.258   3.885  1.00  0.00     0.072 A 
HETATM   30  C19 UNK     1      -6.610  -2.477   4.624  1.00  0.00     0.126 A 
HETATM   31  N3  UNK     1      -5.416  -2.317   3.949  1.00  0.00    -0.240 NA
ENDBRANCH  25  27
ENDBRANCH  22  25
ENDBRANCH   1  22
TORSDOF 5
