REMARK  3 active torsions:
REMARK  status: ('A' for Active; 'I' for Inactive)
REMARK    1  A    between atoms: C16_20  and  O2_2 
REMARK    2  A    between atoms: C7_11  and  N1_4 
REMARK    3  A    between atoms: C7_11  and  C8_12 
ROOT
HETATM    1  O1  UNK     1      -1.038  -0.201   2.577  1.00  0.00    -0.275 OA
HETATM    2  O3  UNK     1       0.696   0.458   3.915  1.00  0.00    -0.260 OA
HETATM    3  C8  UNK     1       0.827  -0.485   0.469  1.00  0.00    -0.011 A 
HETATM    4  C9  UNK     1      -0.595  -0.782   0.246  1.00  0.00     0.006 A 
HETATM    5  C10 UNK     1       1.223  -0.080   1.684  1.00  0.00     0.092 A 
HETATM    6  C11 UNK     1      -1.484  -0.629   1.311  1.00  0.00     0.093 A 
HETATM    7  C12 UNK     1      -1.118  -1.212  -0.980  1.00  0.00     0.017 A 
HETATM    8  C13 UNK     1       0.297   0.085   2.817  1.00  0.00     0.288 A 
HETATM    9  C14 UNK     1      -2.850  -0.889   1.185  1.00  0.00     0.075 A 
HETATM   10  C15 UNK     1      -2.485  -1.477  -1.122  1.00  0.00     0.038 A 
HETATM   11  C16 UNK     1      -3.350  -1.316  -0.041  1.00  0.00     0.070 A 
ENDROOT
BRANCH   3  12
HETATM   12  C7  UNK     1       1.801  -0.637  -0.648  1.00  0.00     0.312 C 
BRANCH  12  13
HETATM   13  N1  UNK     1       1.949   0.596  -1.423  1.00  0.00     0.092 N 
HETATM   14  C1  UNK     1       2.426   1.677  -0.553  1.00  0.00     0.272 C 
HETATM   15  C3  UNK     1       2.894   2.969  -1.229  1.00  0.00     0.030 C 
HETATM   16  C5  UNK     1       2.061   3.397  -2.433  1.00  0.00     0.002 C 
HETATM   17  C6  UNK     1       2.516   2.711  -3.718  1.00  0.00     0.002 C 
HETATM   18  C4  UNK     1       2.240   1.212  -3.789  1.00  0.00     0.030 C 
HETATM   19  C2  UNK     1       2.767   0.379  -2.617  1.00  0.00     0.272 C 
ENDBRANCH  12  13
ENDBRANCH   3  12
BRANCH  11  20
HETATM   20  O2  UNK     1      -4.677  -1.576  -0.184  1.00  0.00    -0.356 OA
HETATM   21  C17 UNK     1      -5.504  -1.389   0.963  1.00  0.00     0.210 C 
ENDBRANCH  11  20
TORSDOF 3
