REMARK  2 active torsions:
REMARK  status: ('A' for Active; 'I' for Inactive)
REMARK       I    between atoms: C11_19  and  N1_5 
REMARK    1  A    between atoms: C3_11  and  N1_5 
REMARK    2  A    between atoms: C11_19  and  C8_16 
ROOT
HETATM    1  O2  UNK     1      -0.651   0.039  -2.046  1.00  0.00    -0.266 OA
HETATM    2  N1  UNK     1       0.228   0.182   0.115  1.00  0.00    -0.322 N 
HETATM    3  C11 UNK     1       0.255   0.356  -1.280  1.00  0.00     0.276 C 
HETATM    4  H4  UNK     1       1.049   0.498   0.628  1.00  0.00     0.169 HD
ENDROOT
BRANCH   2   5
HETATM    5  C3  UNK     1      -0.789  -0.364   0.899  1.00  0.00     0.037 A 
HETATM    6  C5  UNK     1      -1.960  -0.821   0.304  1.00  0.00     0.067 A 
HETATM    7  C2  UNK     1      -2.964  -1.365   1.107  1.00  0.00     0.092 A 
HETATM    8  C1  UNK     1      -2.836  -1.468   2.493  1.00  0.00     0.004 A 
HETATM    9  O1  UNK     1      -4.127  -1.811   0.447  1.00  0.00    -0.275 OA
HETATM   10  C4  UNK     1      -3.944  -2.054   3.260  1.00  0.00    -0.043 A 
HETATM   11  C6  UNK     1      -1.649  -1.002   3.073  1.00  0.00     0.017 A 
HETATM   12  C12 UNK     1      -5.038  -2.470   2.606  1.00  0.00     0.090 A 
HETATM   13  C13 UNK     1      -3.838  -2.179   4.752  1.00  0.00     0.049 C 
HETATM   14  C14 UNK     1      -5.187  -2.369   1.144  1.00  0.00     0.288 A 
HETATM   15  O3  UNK     1      -6.203  -2.760   0.580  1.00  0.00    -0.260 OA
HETATM   16  C7  UNK     1      -0.633  -0.454   2.281  1.00  0.00     0.030 A 
ENDBRANCH   2   5
BRANCH   3  17
HETATM   17  C8  UNK     1       1.468   1.007  -1.802  1.00  0.00     0.149 A 
HETATM   18  C10 UNK     1       1.735   1.290  -3.125  1.00  0.00     0.091 A 
HETATM   19  C9  UNK     1       2.975   1.885  -3.086  1.00  0.00     0.152 A 
HETATM   20  N2  UNK     1       3.354   1.914  -1.743  1.00  0.00    -0.225 N 
HETATM   21  N4  UNK     1       3.780   2.387  -4.064  1.00  0.00    -0.240 NA
HETATM   22  C15 UNK     1       4.575   2.460  -1.354  1.00  0.00     0.141 A 
HETATM   23  N3  UNK     1       2.402   1.361  -0.947  1.00  0.00    -0.161 NA
HETATM   24  C16 UNK     1       5.409   2.968  -2.269  1.00  0.00     0.046 A 
HETATM   25 Br1  UNK     1       7.056   3.726  -1.918  1.00  0.00    -0.048 Br
HETATM   26  C17 UNK     1       4.912   2.889  -3.670  1.00  0.00     0.139 A 
ENDBRANCH   3  17
TORSDOF 2
