REMARK  2 active torsions:
REMARK  status: ('A' for Active; 'I' for Inactive)
REMARK       I    between atoms: C6_11  and  N1_5 
REMARK    1  A    between atoms: C9_14  and  N1_5 
REMARK    2  A    between atoms: C2_7  and  C6_11 
ROOT
HETATM    1  O1  UNK     1       1.405   0.815  -2.804  1.00  0.00    -0.274 OA
HETATM    2  O3  UNK     1      -0.425  -0.465  -2.318  1.00  0.00    -0.259 OA
HETATM    3  C1  UNK     1       2.771   1.691  -0.994  1.00  0.00    -0.001 A 
HETATM    4  C2  UNK     1       0.831   0.335  -0.475  1.00  0.00     0.108 A 
HETATM    5  C3  UNK     1       2.511   1.562  -2.354  1.00  0.00     0.089 A 
HETATM    6  C4  UNK     1       1.881   1.043  -0.043  1.00  0.00     0.037 A 
HETATM    7  C5  UNK     1       3.878   2.440  -0.587  1.00  0.00     0.014 A 
HETATM    8  C7  UNK     1       0.536   0.183  -1.918  1.00  0.00     0.304 A 
HETATM    9  C8  UNK     1       3.323   2.158  -3.317  1.00  0.00     0.038 A 
HETATM   10  C10 UNK     1       4.702   3.044  -1.541  1.00  0.00     0.001 A 
HETATM   11  C11 UNK     1       4.425   2.903  -2.903  1.00  0.00     0.003 A 
ENDROOT
BRANCH   4  12
HETATM   12  C6  UNK     1      -0.007  -0.281   0.560  1.00  0.00     0.262 C 
HETATM   13  O2  UNK     1       0.501  -0.621   1.628  1.00  0.00    -0.267 OA
HETATM   14  N1  UNK     1      -1.329  -0.396   0.156  1.00  0.00    -0.323 N 
HETATM   15  H4  UNK     1      -1.596  -0.044  -0.761  1.00  0.00     0.169 HD
BRANCH  14  16
HETATM   16  C9  UNK     1      -2.377  -0.937   0.906  1.00  0.00     0.035 A 
HETATM   17  C12 UNK     1      -2.133  -1.423   2.189  1.00  0.00     0.031 A 
HETATM   18  C14 UNK     1      -3.179  -1.963   2.938  1.00  0.00     0.021 A 
HETATM   19  C16 UNK     1      -4.466  -2.015   2.403  1.00  0.00     0.011 A 
HETATM   20 Br1  UNK     1      -5.883  -2.747   3.418  1.00  0.00    -0.051 Br
HETATM   21  C15 UNK     1      -4.707  -1.527   1.119  1.00  0.00     0.021 A 
HETATM   22  C13 UNK     1      -3.662  -0.988   0.370  1.00  0.00     0.031 A 
ENDBRANCH  14  16
ENDBRANCH   4  12
TORSDOF 2
