REMARK  2 active torsions:
REMARK  status: ('A' for Active; 'I' for Inactive)
REMARK    1  A    between atoms: C2_4  and  C7_9 
REMARK    2  A    between atoms: C10_12  and  C11_13 
ROOT
HETATM    1  N1  UNK     1      -1.518   2.568  -0.787  1.00  0.00    -0.191 NA
HETATM    2  C7  UNK     1       0.025  -0.522  -0.652  1.00  0.00     0.036 C 
HETATM    3  C10 UNK     1       0.333   0.763  -0.941  1.00  0.00     0.055 C 
HETATM    4  C19 UNK     1      -0.690   1.758  -0.856  1.00  0.00     0.100 C 
ENDROOT
BRANCH   3   5
HETATM    5  C11 UNK     1       1.689   1.190  -1.337  1.00  0.00    -0.015 A 
HETATM    6  C14 UNK     1       2.590   1.573  -0.358  1.00  0.00     0.014 A 
HETATM    7  C16 UNK     1       3.872   1.977  -0.732  1.00  0.00     0.020 A 
HETATM    8  C18 UNK     1       4.233   1.991  -2.079  1.00  0.00     0.011 A 
HETATM    9 Br1  UNK     1       5.970   2.537  -2.585  1.00  0.00    -0.051 Br
HETATM   10  C17 UNK     1       3.313   1.601  -3.052  1.00  0.00     0.020 A 
HETATM   11  C15 UNK     1       2.031   1.198  -2.678  1.00  0.00     0.014 A 
ENDBRANCH   3   5
BRANCH   2  12
HETATM   12  C2  UNK     1      -1.282  -1.037  -0.247  1.00  0.00    -0.024 A 
HETATM   13  C1  UNK     1      -1.683  -1.127   1.096  1.00  0.00    -0.016 A 
HETATM   14  C3  UNK     1      -2.967  -1.638   1.402  1.00  0.00    -0.025 A 
HETATM   15  C5  UNK     1      -0.838  -0.721   2.142  1.00  0.00     0.013 A 
HETATM   16  C6  UNK     1      -3.812  -2.043   0.356  1.00  0.00     0.012 A 
HETATM   17  C8  UNK     1      -3.368  -1.728   2.745  1.00  0.00     0.012 A 
HETATM   18  C9  UNK     1      -3.397  -1.947  -0.973  1.00  0.00     0.002 A 
HETATM   19  C4  UNK     1      -2.134  -1.445  -1.273  1.00  0.00     0.012 A 
HETATM   20  C13 UNK     1      -2.515  -1.320   3.771  1.00  0.00     0.001 A 
HETATM   21  C12 UNK     1      -1.253  -0.818   3.470  1.00  0.00     0.001 A 
ENDBRANCH   2  12
TORSDOF 2
