REMARK  7 active torsions:
REMARK  status: ('A' for Active; 'I' for Inactive)
REMARK    1  A    between atoms: C7_13  and  O2_3 
REMARK    2  A    between atoms: C13_19  and  O3_4 
REMARK    3  A    between atoms: C15_21  and  O3_4 
REMARK    4  A    between atoms: C1_7  and  N1_6 
REMARK    5  A    between atoms: C3_9  and  N1_6 
REMARK    6  A    between atoms: C4_10  and  N1_6 
REMARK    7  A    between atoms: C1_7  and  C2_8 
ROOT
HETATM    1  O1  UNK     1      -0.017   1.083  -0.733  1.00  0.00    -0.318 OA
HETATM    2  O4  UNK     1       0.579   0.008   3.161  1.00  0.00    -0.284 OA
HETATM    3  C2  UNK     1       2.280   1.555  -1.027  1.00  0.00     0.038 A 
HETATM    4  C5  UNK     1       1.246   1.131  -0.193  1.00  0.00     0.100 A 
HETATM    5  C6  UNK     1       1.515   0.777   1.131  1.00  0.00     0.051 A 
HETATM    6  C7  UNK     1       3.584   1.624  -0.533  1.00  0.00     0.076 A 
HETATM    7  C10 UNK     1       2.819   0.845   1.627  1.00  0.00     0.021 A 
HETATM    8  C11 UNK     1       3.852   1.269   0.790  1.00  0.00     0.038 A 
HETATM    9  C12 UNK     1       0.405   0.332   1.995  1.00  0.00     0.220 A 
HETATM   10  C13 UNK     1      -0.933   0.300   1.363  1.00  0.00     0.149 A 
HETATM   11  C14 UNK     1      -1.041   0.668   0.083  1.00  0.00     0.184 A 
ENDROOT
BRANCH  10  12
HETATM   12  O3  UNK     1      -2.020  -0.104   2.101  1.00  0.00    -0.303 OA
BRANCH  12  13
HETATM   13  C15 UNK     1      -2.707  -1.197   1.649  1.00  0.00     0.093 A 
HETATM   14  C16 UNK     1      -4.054  -1.115   1.308  1.00  0.00     0.044 A 
HETATM   15 Br1  UNK     1      -5.010   0.515   1.451  1.00  0.00    -0.048 Br
HETATM   16  C18 UNK     1      -4.724  -2.250   0.850  1.00  0.00     0.022 A 
HETATM   17  C20 UNK     1      -4.044  -3.463   0.735  1.00  0.00     0.002 A 
HETATM   18  C19 UNK     1      -2.695  -3.541   1.077  1.00  0.00     0.003 A 
HETATM   19  C17 UNK     1      -2.024  -2.406   1.535  1.00  0.00     0.039 A 
ENDBRANCH  12  13
ENDBRANCH  10  12
BRANCH   3  20
HETATM   20  C1  UNK     1       2.002   1.936  -2.446  1.00  0.00     0.316 C 
BRANCH  20  21
HETATM   21  N1  UNK     1       1.136   0.993  -3.102  1.00  0.00     0.092 N 
BRANCH  21  22
HETATM   22  C3  UNK     1       1.730  -0.352  -3.124  1.00  0.00     0.268 C 
HETATM   23  C8  UNK     1       0.813  -1.346  -3.818  1.00  0.00     0.037 C 
ENDBRANCH  21  22
BRANCH  21  24
HETATM   24  C4  UNK     1       0.828   1.417  -4.476  1.00  0.00     0.268 C 
HETATM   25  C9  UNK     1       0.134   2.768  -4.491  1.00  0.00     0.037 C 
ENDBRANCH  21  24
ENDBRANCH  20  21
ENDBRANCH   3  20
BRANCH   6  26
HETATM   26  O2  UNK     1       4.610   2.034  -1.330  1.00  0.00    -0.360 OA
HETATM   27  H16 UNK     1       5.437   2.017  -0.818  1.00  0.00     0.217 HD
ENDBRANCH   6  26
TORSDOF 7
