REMARK  4 active torsions:
REMARK  status: ('A' for Active; 'I' for Inactive)
REMARK    1  A    between atoms: C11_17  and  N1_5 
REMARK    2  A    between atoms: C4_10  and  N1_5 
REMARK    3  A    between atoms: C11_17  and  N2_6 
REMARK    4  A    between atoms: C12_18  and  N2_6 
ROOT
HETATM    1  N1  UNK     1       0.488   0.215  -0.947  1.00  0.00    -0.333 N 
HETATM    2  H8  UNK     1       1.427   0.360  -0.590  1.00  0.00     0.168 HD
ENDROOT
BRANCH   1   3
HETATM    3  C11 UNK     1       0.441   0.131  -2.341  1.00  0.00     0.176 C 
HETATM    4  S1  UNK     1      -0.638  -0.800  -3.242  1.00  0.00    -0.041 SA
BRANCH   3   5
HETATM    5  N2  UNK     1       1.443   0.778  -3.048  1.00  0.00    -0.333 N 
HETATM    6  H9  UNK     1       1.472   0.537  -4.036  1.00  0.00     0.168 HD
BRANCH   5   7
HETATM    7  C12 UNK     1       2.553   1.542  -2.607  1.00  0.00     0.034 A 
HETATM    8  C13 UNK     1       3.689   1.597  -3.395  1.00  0.00     0.031 A 
HETATM    9  C15 UNK     1       4.782   2.349  -2.962  1.00  0.00     0.020 A 
HETATM   10  C17 UNK     1       4.721   3.032  -1.747  1.00  0.00     0.006 A 
HETATM   11  C16 UNK     1       3.567   2.964  -0.966  1.00  0.00     0.020 A 
HETATM   12  I1  UNK     1       6.348   4.150  -1.102  1.00  0.00    -0.045 I 
HETATM   13  C14 UNK     1       2.475   2.213  -1.399  1.00  0.00     0.031 A 
ENDBRANCH   5   7
ENDBRANCH   3   5
ENDBRANCH   1   3
BRANCH   1  14
HETATM   14  C4  UNK     1      -0.343  -0.308   0.044  1.00  0.00     0.036 A 
HETATM   15  C5  UNK     1      -1.718  -0.367  -0.158  1.00  0.00     0.067 A 
HETATM   16  C2  UNK     1      -2.531  -0.895   0.847  1.00  0.00     0.092 A 
HETATM   17  C1  UNK     1      -2.014  -1.368   2.054  1.00  0.00     0.004 A 
HETATM   18  O1  UNK     1      -3.915  -0.929   0.584  1.00  0.00    -0.275 OA
HETATM   19  C3  UNK     1      -2.944  -1.906   3.055  1.00  0.00    -0.043 A 
HETATM   20  C6  UNK     1      -0.626  -1.299   2.238  1.00  0.00     0.017 A 
HETATM   21  C8  UNK     1      -4.256  -1.927   2.779  1.00  0.00     0.090 A 
HETATM   22  C9  UNK     1      -2.419  -2.423   4.363  1.00  0.00     0.049 C 
HETATM   23  C10 UNK     1      -4.817  -1.432   1.510  1.00  0.00     0.288 A 
HETATM   24  O2  UNK     1      -6.023  -1.466   1.292  1.00  0.00    -0.260 OA
HETATM   25  C7  UNK     1       0.202  -0.773   1.240  1.00  0.00     0.030 A 
ENDBRANCH   1  14
TORSDOF 4
