REMARK  10 active torsions:
REMARK  status: ('A' for Active; 'I' for Inactive)
REMARK    1  A    between atoms: C4_15  and  O2_2 
REMARK    2  A    between atoms: C7_18  and  O2_2 
REMARK    3  A    between atoms: C1_12  and  O3_3 
REMARK    4  A    between atoms: C2_13  and  O4_4 
REMARK    5  A    between atoms: C3_14  and  O5_5 
REMARK    6  A    between atoms: C6_17  and  O7_7 
REMARK    7  A    between atoms: C15_26  and  O9_9 
REMARK    8  A    between atoms: C17_28  and  O11_11 
REMARK    9  A    between atoms: C5_16  and  C6_17 
REMARK   10  A    between atoms: C16_27  and  C8_19 
ROOT
HETATM    1  O6  UNK     1      -1.604  -0.681   1.166  1.00  0.00    -0.340 OA
HETATM    2  O10 UNK     1      -3.302  -3.705  -1.026  1.00  0.00    -0.292 OA
HETATM    3  C7  UNK     1       0.266  -0.291  -1.933  1.00  0.00     0.077 A 
HETATM    4  C8  UNK     1      -2.949  -1.112   1.429  1.00  0.00     0.172 C 
HETATM    5  C9  UNK     1      -3.125  -2.592   1.092  1.00  0.00     0.121 C 
HETATM    6  C10 UNK     1      -1.211  -0.915  -0.126  1.00  0.00     0.089 A 
HETATM    7  C11 UNK     1      -1.765  -1.914  -0.931  1.00  0.00     0.076 A 
HETATM    8  C12 UNK     1      -0.183  -0.113  -0.624  1.00  0.00     0.074 A 
HETATM    9  C13 UNK     1      -2.796  -2.808  -0.362  1.00  0.00     0.167 C 
HETATM   10  C14 UNK     1      -0.304  -1.275  -2.742  1.00  0.00     0.074 A 
HETATM   11  C15 UNK     1      -1.318  -2.093  -2.243  1.00  0.00     0.085 A 
ENDROOT
BRANCH   3  12
HETATM   12  O2  UNK     1       1.266   0.503  -2.426  1.00  0.00    -0.318 OA
BRANCH  12  13
HETATM   13  C4  UNK     1       1.015   1.906  -2.454  1.00  0.00     0.298 C 
HETATM   14  C2  UNK     1       1.741   2.567  -3.631  1.00  0.00     0.205 C 
HETATM   15  C1  UNK     1       3.261   2.554  -3.447  1.00  0.00     0.183 C 
HETATM   16  C3  UNK     1       3.604   3.157  -2.081  1.00  0.00     0.188 C 
HETATM   17  C5  UNK     1       2.792   2.499  -0.965  1.00  0.00     0.255 C 
HETATM   18  O1  UNK     1       1.389   2.542  -1.229  1.00  0.00    -0.340 OA
BRANCH  14  19
HETATM   19  O4  UNK     1       1.372   1.933  -4.848  1.00  0.00    -0.388 OA
HETATM   20  H7  UNK     1       1.846   2.382  -5.568  1.00  0.00     0.210 HD
ENDBRANCH  14  19
BRANCH  15  21
HETATM   21  O3  UNK     1       3.770   1.223  -3.546  1.00  0.00    -0.390 OA
HETATM   22  H6  UNK     1       3.477   0.864  -4.400  1.00  0.00     0.210 HD
ENDBRANCH  15  21
BRANCH  16  23
HETATM   23  O5  UNK     1       4.994   3.003  -1.814  1.00  0.00    -0.390 OA
HETATM   24  H8  UNK     1       5.206   3.525  -1.022  1.00  0.00     0.210 HD
ENDBRANCH  16  23
BRANCH  17  25
HETATM   25  C6  UNK     1       2.913   3.275   0.306  1.00  0.00     0.290 C 
HETATM   26  O8  UNK     1       1.975   3.831   0.862  1.00  0.00    -0.262 OA
BRANCH  25  27
HETATM   27  O7  UNK     1       4.210   3.260   0.728  1.00  0.00    -0.324 OA
HETATM   28  C19 UNK     1       4.470   3.971   1.943  1.00  0.00     0.213 C 
ENDBRANCH  25  27
ENDBRANCH  17  25
ENDBRANCH  12  13
ENDBRANCH   3  12
BRANCH  11  29
HETATM   29  O9  UNK     1      -1.827  -3.048  -3.070  1.00  0.00    -0.360 OA
HETATM   30  H20 UNK     1      -2.566  -3.508  -2.644  1.00  0.00     0.217 HD
ENDBRANCH  11  29
BRANCH   4  31
HETATM   31  C16 UNK     1      -3.262  -0.843   2.885  1.00  0.00     0.005 A 
HETATM   32  C17 UNK     1      -4.553  -0.493   3.284  1.00  0.00     0.074 A 
HETATM   33  C20 UNK     1      -4.824  -0.249   4.630  1.00  0.00     0.037 A 
HETATM   34  C22 UNK     1      -3.806  -0.353   5.578  1.00  0.00     0.003 A 
HETATM   35  C21 UNK     1      -2.516  -0.702   5.179  1.00  0.00     0.001 A 
HETATM   36  C18 UNK     1      -2.244  -0.947   3.833  1.00  0.00     0.012 A 
BRANCH  32  37
HETATM   37  O11 UNK     1      -5.559  -0.387   2.372  1.00  0.00    -0.360 OA
HETATM   38  H22 UNK     1      -6.379  -0.137   2.832  1.00  0.00     0.217 HD
ENDBRANCH  32  37
ENDBRANCH   4  31
TORSDOF 10
