REMARK  3 active torsions:
REMARK  status: ('A' for Active; 'I' for Inactive)
REMARK    1  A    between atoms: C5_14  and  N1_7 
REMARK       I    between atoms: C7_16  and  N1_7 
REMARK       I    between atoms: C14_23  and  N2_8 
REMARK       I    between atoms: C16_25  and  N2_8 
REMARK       I    between atoms: C16_25  and  N3_9 
REMARK    2  A    between atoms: C2_11  and  C7_16 
REMARK    3  A    between atoms: C14_23  and  C6_15 
ROOT
HETATM    1  O2  UNK     1       1.707   0.969   1.987  1.00  0.00    -0.267 OA
HETATM    2  N1  UNK     1      -0.193   0.050   0.943  1.00  0.00    -0.316 N 
HETATM    3  C7  UNK     1       1.026   0.712   0.996  1.00  0.00     0.262 C 
HETATM    4  H2  UNK     1      -0.629  -0.108   0.038  1.00  0.00     0.169 HD
ENDROOT
BRANCH   2   5
HETATM    5  C5  UNK     1      -0.934  -0.483   2.025  1.00  0.00     0.092 A 
HETATM    6  C6  UNK     1      -2.115  -1.130   2.026  1.00  0.00     0.066 A 
HETATM    7  C11 UNK     1      -2.487  -1.490   3.354  1.00  0.00     0.027 A 
HETATM    8  C15 UNK     1      -1.552  -1.085   4.281  1.00  0.00     0.053 A 
HETATM    9  S1  UNK     1      -0.232  -0.276   3.550  1.00  0.00    -0.083 SA
BRANCH   6  10
HETATM   10  C14 UNK     1      -2.889  -1.417   0.846  1.00  0.00     0.262 C 
HETATM   11  O4  UNK     1      -2.501  -1.111  -0.297  1.00  0.00    -0.267 OA
HETATM   12  N2  UNK     1      -4.104  -2.106   1.045  1.00  0.00    -0.275 N 
HETATM   13  C16 UNK     1      -4.993  -2.519   0.046  1.00  0.00     0.320 C 
HETATM   14  H9  UNK     1      -4.389  -2.343   1.989  1.00  0.00     0.173 HD
HETATM   15  O5  UNK     1      -4.843  -2.340  -1.161  1.00  0.00    -0.247 OA
HETATM   16  N3  UNK     1      -6.094  -3.168   0.578  1.00  0.00    -0.352 N 
HETATM   17  H10 UNK     1      -6.202  -3.307   1.577  1.00  0.00     0.160 HD
HETATM   18  H11 UNK     1      -6.831  -3.527  -0.020  1.00  0.00     0.160 HD
ENDBRANCH   6  10
ENDBRANCH   2   5
BRANCH   3  19
HETATM   19  C2  UNK     1       1.492   1.121  -0.334  1.00  0.00     0.108 A 
HETATM   20  C4  UNK     1       2.819   1.180  -0.504  1.00  0.00     0.037 A 
HETATM   21  C1  UNK     1       3.377   1.574  -1.788  1.00  0.00    -0.001 A 
HETATM   22  C3  UNK     1       2.511   1.888  -2.831  1.00  0.00     0.089 A 
HETATM   23  C8  UNK     1       4.754   1.649  -2.010  1.00  0.00     0.014 A 
HETATM   24  C10 UNK     1       2.981   2.274  -4.084  1.00  0.00     0.038 A 
HETATM   25  O1  UNK     1       1.116   1.825  -2.646  1.00  0.00    -0.274 OA
HETATM   26  C13 UNK     1       4.356   2.346  -4.297  1.00  0.00     0.003 A 
HETATM   27  C12 UNK     1       5.241   2.034  -3.263  1.00  0.00     0.001 A 
HETATM   28  C9  UNK     1       0.552   1.451  -1.429  1.00  0.00     0.304 A 
HETATM   29  O3  UNK     1      -0.663   1.398  -1.277  1.00  0.00    -0.259 OA
ENDBRANCH   3  19
TORSDOF 3
