REMARK  4 active torsions:
REMARK  status: ('A' for Active; 'I' for Inactive)
REMARK    1  A    between atoms: C2_9  and  N1_5 
REMARK       I    between atoms: C6_13  and  N1_5 
REMARK    2  A    between atoms: C5_12  and  N2_6 
REMARK    3  A    between atoms: C1_8  and  C2_9 
REMARK    4  A    between atoms: C6_13  and  C7_14 
ROOT
HETATM    1  O2  UNK     1       0.792  -1.738   1.211  1.00  0.00    -0.267 OA
HETATM    2  N1  UNK     1      -0.444   0.163   1.742  1.00  0.00    -0.348 N 
HETATM    3  C6  UNK     1       0.590  -0.524   1.098  1.00  0.00     0.259 C 
HETATM    4  C8  UNK     1      -0.644   1.600   1.579  1.00  0.00     0.153 C 
ENDROOT
BRANCH   3   5
HETATM    5  C7  UNK     1       1.498   0.256   0.249  1.00  0.00     0.108 A 
HETATM    6  C11 UNK     1       1.148   0.376  -1.037  1.00  0.00     0.037 A 
HETATM    7  C10 UNK     1       1.984   1.130  -1.958  1.00  0.00     0.000 A 
HETATM    8  C13 UNK     1       3.148   1.722  -1.479  1.00  0.00     0.089 A 
HETATM    9  C15 UNK     1       1.658   1.281  -3.308  1.00  0.00     0.033 A 
HETATM   10  O1  UNK     1       3.511   1.593  -0.124  1.00  0.00    -0.274 OA
HETATM   11  C16 UNK     1       3.993   2.457  -2.308  1.00  0.00     0.039 A 
HETATM   12  C14 UNK     1       2.732   0.877   0.781  1.00  0.00     0.304 A 
HETATM   13  O3  UNK     1       3.056   0.770   1.958  1.00  0.00    -0.259 OA
HETATM   14  C18 UNK     1       3.660   2.602  -3.653  1.00  0.00     0.022 A 
HETATM   15  C17 UNK     1       2.495   2.016  -4.152  1.00  0.00     0.011 A 
HETATM   16 Br1  UNK     1       2.049   2.217  -5.979  1.00  0.00    -0.051 Br
ENDBRANCH   3   5
BRANCH   2  17
HETATM   17  C2  UNK     1      -1.394  -0.510   2.620  1.00  0.00     0.167 C 
BRANCH  17  18
HETATM   18  C1  UNK     1      -2.562  -0.982   1.825  1.00  0.00     0.003 A 
HETATM   19  C3  UNK     1      -3.744  -0.289   1.552  1.00  0.00     0.060 A 
HETATM   20  N3  UNK     1      -4.588  -1.007   0.807  1.00  0.00    -0.177 NA
HETATM   21  C9  UNK     1      -4.127   1.069   1.978  1.00  0.00     0.073 C 
HETATM   22  N2  UNK     1      -3.922  -2.159   0.615  1.00  0.00    -0.281 N 
HETATM   23  C4  UNK     1      -2.695  -2.191   1.210  1.00  0.00     0.123 A 
BRANCH  22  24
HETATM   24  C5  UNK     1      -4.523  -3.214  -0.165  1.00  0.00     0.146 C 
HETATM   25  C12 UNK     1      -5.342  -4.166   0.690  1.00  0.00     0.028 C 
ENDBRANCH  22  24
ENDBRANCH  17  18
ENDBRANCH   2  17
TORSDOF 4
