REMARK  3 active torsions:
REMARK  status: ('A' for Active; 'I' for Inactive)
REMARK    1  A    between atoms: C12_17  and  O2_3 
REMARK    2  A    between atoms: C6_11  and  O2_3 
REMARK    3  A    between atoms: C11_16  and  C12_17 
ROOT
HETATM    1  O1  UNK     1      -3.451  -1.364  -0.175  1.00  0.00    -0.275 OA
HETATM    2  O3  UNK     1      -5.639  -2.009  -0.025  1.00  0.00    -0.260 OA
HETATM    3  C1  UNK     1      -2.090  -1.273   1.852  1.00  0.00     0.004 A 
HETATM    4  C2  UNK     1      -2.225  -1.109   0.473  1.00  0.00     0.092 A 
HETATM    5  C3  UNK     1      -3.258  -1.718   2.626  1.00  0.00    -0.043 A 
HETATM    6  C4  UNK     1      -0.839  -1.000   2.420  1.00  0.00     0.017 A 
HETATM    7  C5  UNK     1      -1.167  -0.690  -0.335  1.00  0.00     0.075 A 
HETATM    8  C6  UNK     1       0.068  -0.425   0.247  1.00  0.00     0.082 A 
HETATM    9  C7  UNK     1       0.232  -0.580   1.623  1.00  0.00     0.038 A 
HETATM   10  C8  UNK     1      -4.411  -1.953   1.983  1.00  0.00     0.090 A 
HETATM   11  C9  UNK     1      -3.146  -1.902   4.111  1.00  0.00     0.049 C 
HETATM   12  C10 UNK     1      -4.568  -1.786   0.529  1.00  0.00     0.288 A 
ENDROOT
BRANCH   8  13
HETATM   13  O2  UNK     1       1.113  -0.017  -0.523  1.00  0.00    -0.275 OA
BRANCH  13  14
HETATM   14  C12 UNK     1       1.213   1.369  -0.671  1.00  0.00     0.298 C 
HETATM   15  O4  UNK     1       0.462   2.194  -0.171  1.00  0.00    -0.259 OA
BRANCH  14  16
HETATM   16  C11 UNK     1       2.373   1.737  -1.522  1.00  0.00     0.040 A 
HETATM   17  C13 UNK     1       3.013   2.938  -1.293  1.00  0.00     0.020 A 
HETATM   18  C15 UNK     1       4.103   3.283  -2.092  1.00  0.00     0.043 A 
HETATM   19  C17 UNK     1       4.530   2.420  -3.101  1.00  0.00     0.116 A 
HETATM   20  C16 UNK     1       3.865   1.211  -3.312  1.00  0.00     0.043 A 
HETATM   21  F1  UNK     1       5.576   2.752  -3.869  1.00  0.00    -0.206 F 
HETATM   22  C14 UNK     1       2.775   0.866  -2.514  1.00  0.00     0.020 A 
ENDBRANCH  14  16
ENDBRANCH  13  14
ENDBRANCH   8  13
TORSDOF 3
