REMARK  2 active torsions:
REMARK  status: ('A' for Active; 'I' for Inactive)
REMARK    1  A    between atoms: C11_16  and  N1_4 
REMARK       I    between atoms: C7_12  and  N1_4 
REMARK    2  A    between atoms: C3_8  and  C7_12 
ROOT
HETATM    1  O1  UNK     1       2.536   0.982   0.261  1.00  0.00    -0.274 OA
HETATM    2  O3  UNK     1       1.134  -0.190   1.633  1.00  0.00    -0.259 OA
HETATM    3  C1  UNK     1       1.891   1.393  -2.046  1.00  0.00    -0.001 A 
HETATM    4  C2  UNK     1       2.805   1.532  -1.007  1.00  0.00     0.089 A 
HETATM    5  C3  UNK     1       0.401   0.151  -0.595  1.00  0.00     0.108 A 
HETATM    6  C4  UNK     1       0.652   0.671  -1.802  1.00  0.00     0.037 A 
HETATM    7  C5  UNK     1       2.193   1.953  -3.290  1.00  0.00     0.014 A 
HETATM    8  C6  UNK     1       1.359   0.286   0.525  1.00  0.00     0.304 A 
HETATM    9  C8  UNK     1       4.010   2.211  -1.176  1.00  0.00     0.038 A 
HETATM   10  C9  UNK     1       3.398   2.638  -3.474  1.00  0.00     0.001 A 
HETATM   11  C10 UNK     1       4.305   2.766  -2.419  1.00  0.00     0.003 A 
ENDROOT
BRANCH   5  12
HETATM   12  C7  UNK     1      -0.875  -0.560  -0.447  1.00  0.00     0.262 C 
HETATM   13  O2  UNK     1      -1.372  -1.129  -1.417  1.00  0.00    -0.267 OA
HETATM   14  N1  UNK     1      -1.370  -0.482   0.847  1.00  0.00    -0.323 N 
HETATM   15  H4  UNK     1      -0.844   0.051   1.536  1.00  0.00     0.169 HD
BRANCH  14  16
HETATM   16  C11 UNK     1      -2.570  -1.044   1.348  1.00  0.00     0.037 A 
HETATM   17  C13 UNK     1      -2.900  -0.861   2.675  1.00  0.00     0.049 A 
HETATM   18  C15 UNK     1      -4.084  -1.431   3.116  1.00  0.00     0.118 A 
HETATM   19  N2  UNK     1      -4.918  -2.147   2.330  1.00  0.00    -0.273 NA
HETATM   20  C14 UNK     1      -4.546  -2.296   1.039  1.00  0.00     0.118 A 
HETATM   21  C12 UNK     1      -3.384  -1.766   0.500  1.00  0.00     0.049 A 
ENDBRANCH  14  16
ENDBRANCH   5  12
TORSDOF 2
