REMARK  4 active torsions:
REMARK  status: ('A' for Active; 'I' for Inactive)
REMARK    1  A    between atoms: C11_16  and  O3_3 
REMARK    2  A    between atoms: C12_17  and  O4_4 
REMARK    3  A    between atoms: C14_19  and  O5_5 
REMARK    4  A    between atoms: C1_6  and  C3_8 
ROOT
HETATM    1  O1  UNK     1       0.004   0.309  -1.006  1.00  0.00    -0.340 OA
HETATM    2  O2  UNK     1       2.502   2.626   1.279  1.00  0.00    -0.292 OA
HETATM    3  C1  UNK     1       0.234  -0.003   0.376  1.00  0.00     0.169 C 
HETATM    4  C2  UNK     1       0.532   1.260   1.182  1.00  0.00     0.121 C 
HETATM    5  C4  UNK     1       1.748   1.936   0.603  1.00  0.00     0.165 C 
HETATM    6  C5  UNK     1       1.943   1.780  -0.853  1.00  0.00     0.046 A 
HETATM    7  C6  UNK     1       1.045   0.993  -1.580  1.00  0.00     0.083 A 
HETATM    8  C9  UNK     1       2.985   2.446  -1.504  1.00  0.00     0.054 A 
HETATM    9  C10 UNK     1       1.170   0.898  -2.966  1.00  0.00     0.040 A 
HETATM   10  C12 UNK     1       3.117   2.330  -2.888  1.00  0.00     0.069 A 
HETATM   11  C15 UNK     1       2.210   1.562  -3.618  1.00  0.00     0.039 A 
ENDROOT
BRANCH   3  12
HETATM   12  C3  UNK     1      -0.987  -0.719   0.915  1.00  0.00    -0.026 A 
HETATM   13  C7  UNK     1      -2.215  -0.061   0.963  1.00  0.00     0.049 A 
HETATM   14  C11 UNK     1      -3.340  -0.720   1.460  1.00  0.00     0.102 A 
HETATM   15  C14 UNK     1      -3.235  -2.036   1.909  1.00  0.00     0.101 A 
HETATM   16  C13 UNK     1      -2.006  -2.694   1.861  1.00  0.00     0.040 A 
HETATM   17  C8  UNK     1      -0.881  -2.035   1.364  1.00  0.00     0.012 A 
BRANCH  14  18
HETATM   18  O3  UNK     1      -4.535  -0.068   1.501  1.00  0.00    -0.353 OA
HETATM   19  C16 UNK     1      -4.835   0.663   2.688  1.00  0.00     0.210 C 
ENDBRANCH  14  18
BRANCH  15  20
HETATM   20  O5  UNK     1      -4.326  -2.691   2.395  1.00  0.00    -0.353 OA
HETATM   21  C18 UNK     1      -5.114  -3.422   1.458  1.00  0.00     0.210 C 
ENDBRANCH  15  20
ENDBRANCH   3  12
BRANCH  10  22
HETATM   22  O4  UNK     1       4.129   2.977  -3.529  1.00  0.00    -0.356 OA
HETATM   23  C17 UNK     1       4.201   2.826  -4.946  1.00  0.00     0.210 C 
ENDBRANCH  10  22
TORSDOF 4
