REMARK  5 active torsions:
REMARK  status: ('A' for Active; 'I' for Inactive)
REMARK    1  A    between atoms: C5_13  and  O1_2 
REMARK    2  A    between atoms: C8_16  and  O1_2 
REMARK       I    between atoms: C12_20  and  N1_7 
REMARK    3  A    between atoms: C3_11  and  N1_7 
REMARK    4  A    between atoms: C2_10  and  C8_16 
REMARK    5  A    between atoms: C12_20  and  C6_14 
ROOT
HETATM    1  S1  UNK     1      -0.923  -1.210   1.718  1.00  0.00    -0.064 SA
HETATM    2  N2  UNK     1      -2.658   0.400  -2.790  1.00  0.00    -0.191 NA
HETATM    3  C1  UNK     1      -3.052  -1.421   0.296  1.00  0.00    -0.015 A 
HETATM    4  C2  UNK     1      -2.510  -1.814   1.500  1.00  0.00     0.089 A 
HETATM    5  C3  UNK     1      -0.981  -0.433   0.208  1.00  0.00     0.099 A 
HETATM    6  C4  UNK     1      -2.152  -0.612  -0.456  1.00  0.00     0.086 A 
HETATM    7  C9  UNK     1      -4.415  -1.799  -0.157  1.00  0.00     0.051 C 
HETATM    8  C20 UNK     1      -2.431  -0.054  -1.744  1.00  0.00     0.103 C 
ENDROOT
BRANCH   5   9
HETATM    9  N1  UNK     1       0.168   0.279  -0.149  1.00  0.00    -0.316 N 
HETATM   10  C12 UNK     1       0.630   0.493  -1.440  1.00  0.00     0.262 C 
HETATM   11  O4  UNK     1       0.141   0.113  -2.503  1.00  0.00    -0.267 OA
HETATM   12  H2  UNK     1       0.798   0.459   0.629  1.00  0.00     0.170 HD
BRANCH  10  13
HETATM   13  C6  UNK     1       1.868   1.282  -1.455  1.00  0.00     0.108 A 
HETATM   14  C10 UNK     1       2.710   1.043  -2.467  1.00  0.00     0.037 A 
HETATM   15  C7  UNK     1       3.962   1.776  -2.567  1.00  0.00    -0.001 A 
HETATM   16  C11 UNK     1       4.267   2.724  -1.597  1.00  0.00     0.089 A 
HETATM   17  C16 UNK     1       4.871   1.559  -3.606  1.00  0.00     0.014 A 
HETATM   18  O2  UNK     1       3.376   2.972  -0.534  1.00  0.00    -0.274 OA
HETATM   19  C17 UNK     1       5.450   3.460  -1.635  1.00  0.00     0.038 A 
HETATM   20  C15 UNK     1       2.170   2.287  -0.411  1.00  0.00     0.304 A 
HETATM   21  O5  UNK     1       1.402   2.509   0.518  1.00  0.00    -0.259 OA
HETATM   22  C19 UNK     1       6.351   3.237  -2.674  1.00  0.00     0.003 A 
HETATM   23  C18 UNK     1       6.062   2.289  -3.658  1.00  0.00     0.001 A 
ENDBRANCH  10  13
ENDBRANCH   5   9
BRANCH   4  24
HETATM   24  C8  UNK     1      -3.083  -2.622   2.529  1.00  0.00     0.301 C 
HETATM   25  O3  UNK     1      -2.465  -3.371   3.312  1.00  0.00    -0.259 OA
BRANCH  24  26
HETATM   26  O1  UNK     1      -4.457  -2.496   2.587  1.00  0.00    -0.312 OA
BRANCH  26  27
HETATM   27  C5  UNK     1      -5.079  -2.668   3.865  1.00  0.00     0.124 C 
HETATM   28  C13 UNK     1      -4.508  -1.651   4.841  1.00  0.00     0.040 C 
HETATM   29  C14 UNK     1      -6.586  -2.524   3.713  1.00  0.00     0.040 C 
ENDBRANCH  26  27
ENDBRANCH  24  26
ENDBRANCH   4  24
TORSDOF 5
