REMARK  5 active torsions:
REMARK  status: ('A' for Active; 'I' for Inactive)
REMARK    1  A    between atoms: C1_6  and  N1_4 
REMARK    2  A    between atoms: C8_13  and  N1_4 
REMARK    3  A    between atoms: C12_17  and  N2_5 
REMARK    4  A    between atoms: C2_7  and  C9_14 
REMARK    5  A    between atoms: C13_18  and  C14_19 
ROOT
HETATM    1  C1  UNK     1      -0.333  -0.087  -0.098  1.00  0.00     0.031 A 
HETATM    2  C2  UNK     1       1.799   1.029  -1.588  1.00  0.00    -0.036 A 
HETATM    3  C4  UNK     1       0.889   0.273   0.519  1.00  0.00     0.030 A 
HETATM    4  C5  UNK     1      -0.444   0.135  -1.492  1.00  0.00     0.030 A 
HETATM    5  C6  UNK     1       1.940   0.823  -0.216  1.00  0.00     0.013 A 
HETATM    6  C7  UNK     1       0.607   0.685  -2.226  1.00  0.00     0.013 A 
ENDROOT
BRANCH   1   7
HETATM    7  N1  UNK     1      -1.365  -0.627   0.623  1.00  0.00    -0.365 N 
HETATM    8  H3  UNK     1      -1.167  -0.736   1.611  1.00  0.00     0.165 HD
BRANCH   7   9
HETATM    9  C8  UNK     1      -2.592  -1.029   0.218  1.00  0.00     0.103 C 
HETATM   10  C3  UNK     1      -3.571  -1.554   0.967  1.00  0.00     0.032 A 
HETATM   11  C10 UNK     1      -3.432  -1.771   2.396  1.00  0.00     0.053 A 
HETATM   12  C11 UNK     1      -4.862  -1.930   0.294  1.00  0.00     0.183 A 
HETATM   13  C12 UNK     1      -4.455  -2.298   3.076  1.00  0.00     0.103 A 
HETATM   14  C16 UNK     1      -5.706  -2.671   2.483  1.00  0.00     0.040 A 
HETATM   15  C15 UNK     1      -5.923  -2.507   1.171  1.00  0.00     0.058 A 
HETATM   16  O1  UNK     1      -5.065  -1.784  -0.906  1.00  0.00    -0.288 OA
BRANCH  13  17
HETATM   17  N2  UNK     1      -4.246  -2.481   4.470  1.00  0.00    -0.116 N 
HETATM   18  O2  UNK     1      -4.846  -3.418   5.016  1.00  0.00    -0.532 OA
HETATM   19  O3  UNK     1      -3.480  -1.691   5.039  1.00  0.00    -0.532 OA
ENDBRANCH  13  17
ENDBRANCH   7   9
ENDBRANCH   1   7
BRANCH   2  20
HETATM   20  C9  UNK     1       2.894   1.603  -2.354  1.00  0.00     0.012 C 
HETATM   21  C14 UNK     1       3.920   2.317  -1.833  1.00  0.00     0.012 C 
BRANCH  21  22
HETATM   22  C13 UNK     1       5.041   2.882  -2.606  1.00  0.00    -0.036 A 
HETATM   23  C17 UNK     1       5.327   2.367  -3.860  1.00  0.00     0.011 A 
HETATM   24  C19 UNK     1       6.388   2.901  -4.592  1.00  0.00     0.001 A 
HETATM   25  C21 UNK     1       7.147   3.943  -4.060  1.00  0.00     0.000 A 
HETATM   26  C20 UNK     1       6.846   4.451  -2.796  1.00  0.00     0.001 A 
HETATM   27  C18 UNK     1       5.785   3.916  -2.064  1.00  0.00     0.011 A 
ENDBRANCH  21  22
ENDBRANCH   2  20
TORSDOF 5
