REMARK  3 active torsions:
REMARK  status: ('A' for Active; 'I' for Inactive)
REMARK    1  A    between atoms: N1_6  and  N2_7 
REMARK       I    between atoms: C13_20  and  N2_7 
REMARK    2  A    between atoms: C2_9  and  C5_12 
REMARK    3  A    between atoms: C12_19  and  C13_20 
ROOT
HETATM    1  N1  UNK     1      -0.898   0.273   0.008  1.00  0.00    -0.176 NA
HETATM    2  C5  UNK     1       0.075  -0.159  -0.748  1.00  0.00     0.067 C 
HETATM    3  C11 UNK     1       0.156  -1.673  -0.871  1.00  0.00     0.073 C 
ENDROOT
BRANCH   2   4
HETATM    4  C2  UNK     1       1.083   0.607  -1.491  1.00  0.00     0.066 A 
HETATM    5  C4  UNK     1       2.219   0.878  -0.839  1.00  0.00     0.034 A 
HETATM    6  C1  UNK     1       3.278   1.632  -1.493  1.00  0.00     0.000 A 
HETATM    7  C3  UNK     1       3.088   2.064  -2.801  1.00  0.00     0.089 A 
HETATM    8  C6  UNK     1       4.480   1.938  -0.850  1.00  0.00     0.033 A 
HETATM    9  O1  UNK     1       1.889   1.775  -3.483  1.00  0.00    -0.274 OA
HETATM   10  C8  UNK     1       4.061   2.790  -3.484  1.00  0.00     0.039 A 
HETATM   11  C7  UNK     1       0.858   1.056  -2.884  1.00  0.00     0.300 A 
HETATM   12  O2  UNK     1      -0.182   0.809  -3.485  1.00  0.00    -0.259 OA
HETATM   13  C10 UNK     1       5.257   3.091  -2.836  1.00  0.00     0.022 A 
HETATM   14  C9  UNK     1       5.467   2.666  -1.522  1.00  0.00     0.011 A 
HETATM   15 Br1  UNK     1       7.093   3.077  -0.649  1.00  0.00    -0.051 Br
ENDBRANCH   2   4
BRANCH   1  16
HETATM   16  N2  UNK     1      -1.704  -0.641   0.592  1.00  0.00    -0.243 N 
HETATM   17  C13 UNK     1      -2.735  -0.186   1.394  1.00  0.00     0.271 C 
HETATM   18  O3  UNK     1      -2.980   0.996   1.621  1.00  0.00    -0.266 OA
HETATM   19  H8  UNK     1      -1.505  -1.626   0.508  1.00  0.00     0.192 HD
BRANCH  17  20
HETATM   20  C12 UNK     1      -3.573  -1.238   2.026  1.00  0.00     0.033 A 
HETATM   21  C14 UNK     1      -4.212  -0.955   3.215  1.00  0.00     0.019 A 
HETATM   22  C16 UNK     1      -5.000  -1.942   3.808  1.00  0.00     0.025 A 
HETATM   23  C18 UNK     1      -5.130  -3.190   3.198  1.00  0.00     0.034 A 
HETATM   24  C17 UNK     1      -4.474  -3.450   1.995  1.00  0.00     0.025 A 
HETATM   25 Cl1  UNK     1      -6.102  -4.407   3.928  1.00  0.00    -0.084 Cl
HETATM   26  C15 UNK     1      -3.686  -2.463   1.402  1.00  0.00     0.019 A 
ENDBRANCH  17  20
ENDBRANCH   1  16
TORSDOF 3
