REMARK  3 active torsions:
REMARK  status: ('A' for Active; 'I' for Inactive)
REMARK       I    between atoms: C19_24  and  N1_4 
REMARK    1  A    between atoms: N1_4  and  N2_5 
REMARK    2  A    between atoms: C19_24  and  C8_13 
REMARK    3  A    between atoms: C11_16  and  C20_25 
ROOT
HETATM    1  N2  UNK     1       0.198   0.341  -0.209  1.00  0.00    -0.183 NA
HETATM    2  C20 UNK     1       0.103  -0.006   1.034  1.00  0.00     0.156 C 
ENDROOT
BRANCH   1   3
HETATM    3  N1  UNK     1       1.378   0.923  -0.530  1.00  0.00    -0.243 N 
HETATM    4  C19 UNK     1       1.593   1.300  -1.843  1.00  0.00     0.271 C 
HETATM    5  O3  UNK     1       0.786   1.149  -2.757  1.00  0.00    -0.266 OA
HETATM    6  H18 UNK     1       2.074   1.001   0.204  1.00  0.00     0.192 HD
BRANCH   4   7
HETATM    7  C8  UNK     1       2.916   1.911  -2.132  1.00  0.00     0.034 A 
HETATM    8  C14 UNK     1       3.580   2.570  -1.118  1.00  0.00     0.017 A 
HETATM    9  C13 UNK     1       4.822   3.144  -1.389  1.00  0.00     0.008 A 
HETATM   10  C4  UNK     1       5.372   3.047  -2.667  1.00  0.00    -0.056 A 
HETATM   11  C17 UNK     1       6.703   3.670  -2.933  1.00  0.00     0.049 C 
HETATM   12  C3  UNK     1       4.679   2.376  -3.675  1.00  0.00    -0.055 A 
HETATM   13  C15 UNK     1       5.247   2.259  -5.051  1.00  0.00     0.049 C 
HETATM   14  C9  UNK     1       3.437   1.801  -3.404  1.00  0.00     0.024 A 
ENDBRANCH   4   7
ENDBRANCH   1   3
BRANCH   2  15
HETATM   15  C11 UNK     1      -1.092  -0.650   1.580  1.00  0.00     0.056 A 
HETATM   16  C7  UNK     1      -2.294  -0.962   0.776  1.00  0.00     0.198 A 
HETATM   17  C1  UNK     1      -3.403  -1.612   1.499  1.00  0.00     0.049 A 
HETATM   18  O2  UNK     1      -2.367  -0.697  -0.416  1.00  0.00    -0.286 OA
HETATM   19  C2  UNK     1      -3.257  -1.886   2.861  1.00  0.00     0.089 A 
HETATM   20  C6  UNK     1      -4.585  -1.950   0.835  1.00  0.00     0.025 A 
HETATM   21  C10 UNK     1      -4.294  -2.500   3.564  1.00  0.00     0.039 A 
HETATM   22  O1  UNK     1      -2.119  -1.577   3.564  1.00  0.00    -0.321 OA
HETATM   23  C12 UNK     1      -5.475  -2.839   2.903  1.00  0.00     0.009 A 
HETATM   24  C5  UNK     1      -5.620  -2.564   1.542  1.00  0.00    -0.061 A 
HETATM   25  C18 UNK     1      -6.885  -2.929   0.841  1.00  0.00     0.048 C 
HETATM   26  C16 UNK     1      -1.092  -0.971   2.878  1.00  0.00     0.159 A 
ENDBRANCH   2  15
TORSDOF 3
