REMARK  1 active torsions:
REMARK  status: ('A' for Active; 'I' for Inactive)
REMARK       I    between atoms: C5_9  and  N1_4 
REMARK    1  A    between atoms: C5_9  and  C8_12 
ROOT
HETATM    1  O1  UNK     1      -1.215  -1.781   2.129  1.00  0.00    -0.274 OA
HETATM    2  O3  UNK     1       0.952  -1.059   2.186  1.00  0.00    -0.259 OA
HETATM    3  C8  UNK     1      -0.529   0.136   0.775  1.00  0.00     0.108 A 
HETATM    4  C11 UNK     1      -1.770   0.275   0.293  1.00  0.00     0.037 A 
HETATM    5  C12 UNK     1      -2.826  -0.632   0.716  1.00  0.00    -0.001 A 
HETATM    6  C13 UNK     1      -0.184  -0.929   1.743  1.00  0.00     0.304 A 
HETATM    7  C14 UNK     1      -2.523  -1.641   1.625  1.00  0.00     0.089 A 
HETATM    8  C15 UNK     1      -4.135  -0.525   0.240  1.00  0.00     0.014 A 
HETATM    9  C16 UNK     1      -3.488  -2.542   2.070  1.00  0.00     0.038 A 
HETATM   10  C17 UNK     1      -5.114  -1.422   0.677  1.00  0.00     0.001 A 
HETATM   11  C18 UNK     1      -4.791  -2.428   1.590  1.00  0.00     0.003 A 
ENDROOT
BRANCH   3  12
HETATM   12  C5  UNK     1       0.474   1.107   0.285  1.00  0.00     0.264 C 
HETATM   13  O2  UNK     1       0.614   2.149   0.921  1.00  0.00    -0.267 OA
HETATM   14  N1  UNK     1       1.166   0.739  -0.858  1.00  0.00    -0.313 N 
HETATM   15  C1  UNK     1       1.001  -0.515  -1.628  1.00  0.00     0.137 A 
HETATM   16  C4  UNK     1       2.163   1.514  -1.494  1.00  0.00     0.043 A 
HETATM   17  C2  UNK     1       1.978  -0.476  -2.808  1.00  0.00     0.061 A 
HETATM   18  C3  UNK     1       2.649   0.843  -2.617  1.00  0.00    -0.030 A 
HETATM   19  C6  UNK     1       3.639   1.396  -3.416  1.00  0.00     0.009 A 
HETATM   20  C9  UNK     1       4.146   2.649  -3.074  1.00  0.00     0.001 A 
HETATM   21  C10 UNK     1       3.661   3.326  -1.947  1.00  0.00     0.002 A 
HETATM   22  C7  UNK     1       2.663   2.761  -1.147  1.00  0.00     0.030 A 
ENDBRANCH   3  12
TORSDOF 1
