REMARK  5 active torsions:
REMARK  status: ('A' for Active; 'I' for Inactive)
REMARK    1  A    between atoms: C6_10  and  O1_1 
REMARK       I    between atoms: C7_11  and  N1_4 
REMARK    2  A    between atoms: C1_5  and  C6_10 
REMARK    3  A    between atoms: C7_11  and  C8_12 
REMARK    4  A    between atoms: C8_12  and  C9_13 
REMARK    5  A    between atoms: C10_14  and  C12_16 
ROOT
HETATM    1  C8  UNK     1       1.411   0.811  -1.022  1.00  0.00     0.043 C 
HETATM    2  C10 UNK     1       0.895   1.403  -2.113  1.00  0.00     0.029 C 
ENDROOT
BRANCH   1   3
HETATM    3  C7  UNK     1       0.850  -0.518  -0.707  1.00  0.00     0.254 C 
HETATM    4  O3  UNK     1       1.404  -1.502  -1.201  1.00  0.00    -0.267 OA
HETATM    5  N1  UNK     1      -0.261  -0.572   0.129  1.00  0.00    -0.348 N 
HETATM    6  C4  UNK     1      -0.844  -1.870   0.470  1.00  0.00     0.127 C 
HETATM    7  C5  UNK     1      -0.961   0.569   0.732  1.00  0.00     0.127 C 
HETATM    8  C2  UNK     1      -0.831  -2.078   1.984  1.00  0.00     0.034 C 
HETATM    9  C1  UNK     1      -1.466  -0.909   2.747  1.00  0.00     0.088 C 
HETATM   10  C3  UNK     1      -0.959   0.452   2.256  1.00  0.00     0.034 C 
BRANCH   9  11
HETATM   11  C6  UNK     1      -2.963  -0.990   2.664  1.00  0.00     0.262 C 
HETATM   12  O2  UNK     1      -3.673  -0.099   2.218  1.00  0.00    -0.265 OA
BRANCH  11  13
HETATM   13  O1  UNK     1      -3.383  -2.190   3.157  1.00  0.00    -0.326 OA
HETATM   14  C11 UNK     1      -4.798  -2.401   3.138  1.00  0.00     0.213 C 
ENDBRANCH  11  13
ENDBRANCH   9  11
ENDBRANCH   1   3
BRANCH   1  15
HETATM   15  C9  UNK     1       2.457   1.378  -0.158  1.00  0.00    -0.021 A 
HETATM   16  C13 UNK     1       2.554   2.755  -0.019  1.00  0.00     0.012 A 
HETATM   17  C15 UNK     1       3.546   3.293   0.801  1.00  0.00     0.001 A 
HETATM   18  C19 UNK     1       4.430   2.448   1.472  1.00  0.00     0.000 A 
HETATM   19  C16 UNK     1       4.322   1.065   1.324  1.00  0.00     0.001 A 
HETATM   20  C14 UNK     1       3.330   0.527   0.505  1.00  0.00     0.012 A 
ENDBRANCH   1  15
BRANCH   2  21
HETATM   21  C12 UNK     1      -0.151   0.843  -2.982  1.00  0.00    -0.035 A 
HETATM   22  C17 UNK     1       0.213   0.070  -4.075  1.00  0.00     0.011 A 
HETATM   23  C20 UNK     1      -0.779  -0.460  -4.900  1.00  0.00     0.001 A 
HETATM   24  C22 UNK     1      -2.123  -0.212  -4.622  1.00  0.00     0.000 A 
HETATM   25  C21 UNK     1      -2.476   0.567  -3.521  1.00  0.00     0.001 A 
HETATM   26  C18 UNK     1      -1.484   1.098  -2.696  1.00  0.00     0.011 A 
ENDBRANCH   2  21
TORSDOF 5
