REMARK  3 active torsions:
REMARK  status: ('A' for Active; 'I' for Inactive)
REMARK    1  A    between atoms: C6_9  and  O2_2 
REMARK    2  A    between atoms: C3_6  and  C8_11 
REMARK    3  A    between atoms: C13_16  and  C8_11 
ROOT
HETATM    1  O1  UNK     1       1.206   0.768  -2.197  1.00  0.00    -0.274 OA
HETATM    2  O3  UNK     1       3.249   1.507  -2.909  1.00  0.00    -0.260 OA
HETATM    3  C1  UNK     1       0.748   0.644   0.199  1.00  0.00     0.005 A 
HETATM    4  C2  UNK     1       0.341   0.471  -1.125  1.00  0.00     0.099 A 
HETATM    5  C3  UNK     1      -1.448  -0.148   0.889  1.00  0.00    -0.020 A 
HETATM    6  C4  UNK     1      -0.929  -0.001  -1.459  1.00  0.00     0.007 A 
HETATM    7  C5  UNK     1      -0.171   0.326   1.208  1.00  0.00     0.025 A 
HETATM    8  C6  UNK     1      -1.827  -0.312  -0.442  1.00  0.00     0.081 A 
HETATM    9  C7  UNK     1       2.104   1.146   0.459  1.00  0.00    -0.043 A 
HETATM   10  C9  UNK     1      -1.325  -0.174  -2.889  1.00  0.00     0.054 C 
HETATM   11  C10 UNK     1       2.904   1.421  -0.581  1.00  0.00     0.090 A 
HETATM   12  C11 UNK     1       2.572   1.344   1.871  1.00  0.00     0.049 C 
HETATM   13  C12 UNK     1       2.490   1.243  -1.983  1.00  0.00     0.288 A 
ENDROOT
BRANCH   5  14
HETATM   14  C8  UNK     1      -2.397  -0.478   1.995  1.00  0.00     0.067 C 
BRANCH  14  15
HETATM   15  C13 UNK     1      -2.292  -1.909   2.452  1.00  0.00    -0.032 C 
HETATM   16  C14 UNK     1      -3.287  -2.799   2.369  1.00  0.00     0.007 C 
ENDBRANCH  14  15
ENDBRANCH   5  14
BRANCH   8  17
HETATM   17  O2  UNK     1      -3.074  -0.773  -0.746  1.00  0.00    -0.359 OA
HETATM   18  H12 UNK     1      -3.469  -1.234   0.009  1.00  0.00     0.217 HD
ENDBRANCH   8  17
TORSDOF 3
