REMARK  4 active torsions:
REMARK  status: ('A' for Active; 'I' for Inactive)
REMARK    1  A    between atoms: C11_17  and  O1_1 
REMARK    2  A    between atoms: C18_24  and  O1_1 
REMARK    3  A    between atoms: C17_23  and  C6_12 
REMARK    4  A    between atoms: C10_16  and  C18_24 
ROOT
HETATM    1  O2  UNK     1      -1.973  -2.431  -1.217  1.00  0.00    -0.293 OA
HETATM    2  N1  UNK     1      -2.153   0.041   2.818  1.00  0.00    -0.362 N 
HETATM    3  C1  UNK     1      -4.651  -2.291   1.225  1.00  0.00    -0.036 C 
HETATM    4  C2  UNK     1      -4.202  -1.026   1.984  1.00  0.00     0.067 C 
HETATM    5  C3  UNK     1      -4.133  -2.223  -0.219  1.00  0.00     0.092 C 
HETATM    6  C4  UNK     1      -2.008  -1.109   0.753  1.00  0.00     0.024 C 
HETATM    7  C5  UNK     1      -2.742  -0.694   1.806  1.00  0.00     0.021 C 
HETATM    8  C6  UNK     1      -0.532  -0.738   0.620  1.00  0.00     0.104 C 
HETATM    9  C7  UNK     1      -2.642  -1.971  -0.292  1.00  0.00     0.159 C 
HETATM   10  C8  UNK     1      -4.127  -3.562   1.926  1.00  0.00     0.015 C 
HETATM   11  C9  UNK     1      -6.189  -2.353   1.210  1.00  0.00     0.015 C 
HETATM   12  C10 UNK     1       0.023  -0.100   1.897  1.00  0.00     0.052 C 
HETATM   13  C14 UNK     1      -0.792   0.287   2.905  1.00  0.00     0.018 C 
HETATM   14  C19 UNK     1      -0.349   0.975   4.168  1.00  0.00     0.069 C 
HETATM   15  H13 UNK     1      -2.736   0.336   3.592  1.00  0.00     0.165 HD
ENDROOT
BRANCH   8  16
HETATM   16  C17 UNK     1      -0.320   0.183  -0.555  1.00  0.00     0.029 A 
HETATM   17  C20 UNK     1       0.547  -0.278  -1.669  1.00  0.00     0.194 A 
HETATM   18  O5  UNK     1       1.088  -1.375  -1.661  1.00  0.00    -0.287 OA
HETATM   19  C22 UNK     1       0.722   0.661  -2.793  1.00  0.00     0.049 A 
HETATM   20  C23 UNK     1       0.079   1.899  -2.749  1.00  0.00     0.089 A 
HETATM   21  C24 UNK     1       1.519   0.320  -3.888  1.00  0.00     0.025 A 
HETATM   22  O3  UNK     1      -0.715   2.285  -1.699  1.00  0.00    -0.321 OA
HETATM   23  C25 UNK     1       0.230   2.802  -3.801  1.00  0.00     0.039 A 
HETATM   24  C21 UNK     1      -0.869   1.401  -0.660  1.00  0.00     0.154 A 
HETATM   25  C27 UNK     1       1.025   2.464  -4.897  1.00  0.00     0.009 A 
HETATM   26  C26 UNK     1       1.668   1.226  -4.940  1.00  0.00    -0.061 A 
HETATM   27  C28 UNK     1       2.517   0.870  -6.114  1.00  0.00     0.048 C 
ENDBRANCH   8  16
BRANCH  12  28
HETATM   28  C18 UNK     1       1.488   0.017   1.996  1.00  0.00     0.292 C 
HETATM   29  O4  UNK     1       2.200  -0.865   2.439  1.00  0.00    -0.259 OA
BRANCH  28  30
HETATM   30  O1  UNK     1       1.852   1.232   1.522  1.00  0.00    -0.312 OA
BRANCH  30  31
HETATM   31  C11 UNK     1       3.241   1.494   1.552  1.00  0.00     0.132 C 
HETATM   32  C12 UNK     1       3.553   2.849   0.938  1.00  0.00     0.032 C 
HETATM   33  C15 UNK     1       5.031   2.757   0.578  1.00  0.00     0.002 C 
HETATM   34  C16 UNK     1       5.325   1.268   0.381  1.00  0.00     0.002 C 
HETATM   35  C13 UNK     1       4.016   0.539   0.659  1.00  0.00     0.032 C 
ENDBRANCH  30  31
ENDBRANCH  28  30
ENDBRANCH  12  28
TORSDOF 4
