REMARK  1 active torsions:
REMARK  status: ('A' for Active; 'I' for Inactive)
REMARK    1  A    between atoms: C3_7  and  C4_8 
ROOT
HETATM    1 Cl1  UNK     1      -4.669  -2.305   2.974  1.00  0.00    -0.084 Cl
HETATM    2  O1  UNK     1       0.113   0.205   0.646  1.00  0.00    -0.309 OA
HETATM    3  O2  UNK     1      -2.730  -1.199  -1.913  1.00  0.00    -0.287 OA
HETATM    4  C1  UNK     1      -2.030  -0.891   0.323  1.00  0.00     0.050 A 
HETATM    5  C2  UNK     1      -1.020  -0.389   1.141  1.00  0.00     0.090 A 
HETATM    6  C3  UNK     1       0.260   0.302  -0.730  1.00  0.00     0.090 A 
HETATM    7  C5  UNK     1      -1.881  -0.783  -1.136  1.00  0.00     0.187 A 
HETATM    8  C6  UNK     1      -0.644  -0.137  -1.619  1.00  0.00     0.093 A 
HETATM    9  C7  UNK     1      -3.163  -1.486   0.883  1.00  0.00     0.042 A 
HETATM   10  C8  UNK     1      -1.137  -0.478   2.529  1.00  0.00     0.040 A 
HETATM   11  C11 UNK     1      -3.278  -1.574   2.271  1.00  0.00     0.035 A 
HETATM   12  C12 UNK     1      -2.267  -1.071   3.092  1.00  0.00     0.026 A 
ENDROOT
BRANCH   6  13
HETATM   13  C4  UNK     1       1.511   0.964  -1.154  1.00  0.00    -0.002 A 
HETATM   14  C10 UNK     1       2.664   0.854  -0.373  1.00  0.00     0.017 A 
HETATM   15  C14 UNK     1       3.844   1.478  -0.775  1.00  0.00     0.043 A 
HETATM   16  C15 UNK     1       3.876   2.214  -1.959  1.00  0.00     0.116 A 
HETATM   17  C13 UNK     1       2.727   2.325  -2.742  1.00  0.00     0.043 A 
HETATM   18  F1  UNK     1       5.010   2.813  -2.346  1.00  0.00    -0.206 F 
HETATM   19  C9  UNK     1       1.546   1.701  -2.340  1.00  0.00     0.017 A 
ENDBRANCH   6  13
TORSDOF 1
