REMARK  5 active torsions:
REMARK  status: ('A' for Active; 'I' for Inactive)
REMARK    1  A    between atoms: C1_6  and  N1_4 
REMARK       I    between atoms: C6_11  and  N1_4 
REMARK    2  A    between atoms: C4_9  and  N2_5 
REMARK    3  A    between atoms: C3_8  and  C5_10 
REMARK    4  A    between atoms: C3_8  and  C6_11 
REMARK    5  A    between atoms: C11_16  and  C8_13 
ROOT
HETATM    1  C3  UNK     1       1.604   1.096  -1.177  1.00  0.00     0.043 C 
HETATM    2  C8  UNK     1       2.650   0.797  -0.363  1.00  0.00     0.029 C 
ENDROOT
BRANCH   1   3
HETATM    3  C5  UNK     1       1.755   1.196  -2.642  1.00  0.00    -0.021 A 
HETATM    4  C13 UNK     1       1.571   0.066  -3.419  1.00  0.00     0.012 A 
HETATM    5  C17 UNK     1       1.713   0.160  -4.803  1.00  0.00     0.001 A 
HETATM    6  C19 UNK     1       2.037   1.384  -5.389  1.00  0.00     0.000 A 
HETATM    7  C18 UNK     1       2.219   2.513  -4.590  1.00  0.00     0.001 A 
HETATM    8  C14 UNK     1       2.077   2.418  -3.206  1.00  0.00     0.012 A 
ENDBRANCH   1   3
BRANCH   1   9
HETATM    9  C6  UNK     1       0.263   1.287  -0.504  1.00  0.00     0.257 C 
HETATM   10  O1  UNK     1      -0.096   2.405  -0.144  1.00  0.00    -0.267 OA
HETATM   11  N1  UNK     1      -0.452   0.103  -0.373  1.00  0.00    -0.322 N 
HETATM   12  H1  UNK     1       0.020  -0.712  -0.739  1.00  0.00     0.169 HD
BRANCH  11  13
HETATM   13  C1  UNK     1      -1.733  -0.070   0.207  1.00  0.00     0.043 A 
HETATM   14  C2  UNK     1      -2.311  -1.327   0.261  1.00  0.00    -0.002 A 
HETATM   15  C4  UNK     1      -3.573  -1.475   0.837  1.00  0.00     0.111 A 
HETATM   16  C9  UNK     1      -1.591  -2.520  -0.291  1.00  0.00     0.053 C 
HETATM   17  C10 UNK     1      -4.239  -0.363   1.351  1.00  0.00     0.037 A 
HETATM   18  C12 UNK     1      -3.644   0.897   1.289  1.00  0.00     0.005 A 
HETATM   19  C7  UNK     1      -2.382   1.045   0.713  1.00  0.00     0.030 A 
BRANCH  15  20
HETATM   20  N2  UNK     1      -4.201  -2.749   0.913  1.00  0.00    -0.115 N 
HETATM   21  O2  UNK     1      -5.335  -2.834   1.439  1.00  0.00    -0.532 OA
HETATM   22  O3  UNK     1      -3.602  -3.748   0.450  1.00  0.00    -0.532 OA
ENDBRANCH  15  20
ENDBRANCH  11  13
ENDBRANCH   1   9
BRANCH   2  23
HETATM   23  C11 UNK     1       2.613   0.673   1.086  1.00  0.00    -0.035 A 
HETATM   24  C15 UNK     1       2.866   1.787   1.888  1.00  0.00     0.011 A 
HETATM   25  C20 UNK     1       2.830   1.669   3.277  1.00  0.00     0.001 A 
HETATM   26  C22 UNK     1       2.542   0.437   3.865  1.00  0.00     0.000 A 
HETATM   27  C21 UNK     1       2.289  -0.676   3.064  1.00  0.00     0.001 A 
HETATM   28  C16 UNK     1       2.325  -0.558   1.674  1.00  0.00     0.011 A 
ENDBRANCH   2  23
TORSDOF 5
