REMARK  4 active torsions:
REMARK  status: ('A' for Active; 'I' for Inactive)
REMARK    1  A    between atoms: C10_15  and  O2_2 
REMARK    2  A    between atoms: C11_16  and  O2_2 
REMARK    3  A    between atoms: C14_19  and  O3_3 
REMARK    4  A    between atoms: C10_15  and  C4_9 
ROOT
HETATM    1  O1  UNK     1       1.600   1.095  -2.950  1.00  0.00    -0.274 OA
HETATM    2  O4  UNK     1      -0.453   0.160  -2.586  1.00  0.00    -0.259 OA
HETATM    3  C1  UNK     1       2.961   1.776  -1.055  1.00  0.00    -0.001 A 
HETATM    4  C2  UNK     1       2.782   1.656  -2.429  1.00  0.00     0.089 A 
HETATM    5  C3  UNK     1       1.908   1.315  -0.165  1.00  0.00     0.038 A 
HETATM    6  C4  UNK     1       0.786   0.783  -0.665  1.00  0.00     0.116 A 
HETATM    7  C5  UNK     1       4.148   2.337  -0.576  1.00  0.00     0.014 A 
HETATM    8  C6  UNK     1       3.752   2.079  -3.336  1.00  0.00     0.038 A 
HETATM    9  C7  UNK     1       0.574   0.645  -2.124  1.00  0.00     0.304 A 
HETATM   10  C8  UNK     1       5.131   2.766  -1.474  1.00  0.00     0.001 A 
HETATM   11  C9  UNK     1       4.933   2.637  -2.850  1.00  0.00     0.003 A 
ENDROOT
BRANCH   6  12
HETATM   12  C10 UNK     1      -0.218   0.348   0.313  1.00  0.00     0.304 C 
HETATM   13  O5  UNK     1      -0.367   0.870   1.406  1.00  0.00    -0.259 OA
BRANCH  12  14
HETATM   14  O2  UNK     1      -0.914  -0.713  -0.235  1.00  0.00    -0.275 OA
BRANCH  14  15
HETATM   15  C11 UNK     1      -1.900  -1.203   0.624  1.00  0.00     0.079 A 
HETATM   16  C13 UNK     1      -1.569  -2.206   1.508  1.00  0.00     0.040 A 
HETATM   17  C16 UNK     1      -2.554  -2.696   2.366  1.00  0.00     0.039 A 
HETATM   18  C14 UNK     1      -3.845  -2.170   2.318  1.00  0.00     0.068 A 
HETATM   19  C15 UNK     1      -4.151  -1.155   1.412  1.00  0.00     0.039 A 
HETATM   20  C12 UNK     1      -3.166  -0.665   0.554  1.00  0.00     0.040 A 
BRANCH  18  21
HETATM   21  O3  UNK     1      -4.806  -2.648   3.155  1.00  0.00    -0.356 OA
HETATM   22  C17 UNK     1      -6.104  -2.065   3.053  1.00  0.00     0.210 C 
ENDBRANCH  18  21
ENDBRANCH  14  15
ENDBRANCH  12  14
ENDBRANCH   6  12
TORSDOF 4
