REMARK  2 active torsions:
REMARK  status: ('A' for Active; 'I' for Inactive)
REMARK    1  A    between atoms: C8_15  and  N1_6 
REMARK    2  A    between atoms: C1_8  and  C5_12 
ROOT
HETATM    1  O1  UNK     1       1.122   1.234   1.188  1.00  0.00    -0.291 OA
HETATM    2  O2  UNK     1       1.278  -0.214  -2.733  1.00  0.00    -0.274 OA
HETATM    3  O3  UNK     1      -0.078  -1.952  -2.149  1.00  0.00    -0.259 OA
HETATM    4  N2  UNK     1      -1.209  -1.936   3.966  1.00  0.00    -0.191 NA
HETATM    5  C1  UNK     1      -0.449  -1.096   0.574  1.00  0.00     0.115 C 
HETATM    6  C2  UNK     1       0.425  -0.376  -0.441  1.00  0.00     0.067 A 
HETATM    7  C3  UNK     1       1.124   0.716  -0.094  1.00  0.00     0.104 A 
HETATM    8  C4  UNK     1      -0.197  -0.589   1.996  1.00  0.00     0.086 C 
HETATM    9  C6  UNK     1       1.938   1.434  -1.070  1.00  0.00     0.033 A 
HETATM   10  C7  UNK     1       0.505  -0.924  -1.820  1.00  0.00     0.298 A 
HETATM   11  C8  UNK     1       0.540   0.520   2.233  1.00  0.00     0.159 C 
HETATM   12  C9  UNK     1       1.988   0.947  -2.373  1.00  0.00     0.092 A 
HETATM   13  C11 UNK     1       2.670   2.590  -0.770  1.00  0.00     0.017 A 
HETATM   14  C12 UNK     1       2.735   1.571  -3.371  1.00  0.00     0.038 A 
HETATM   15  C14 UNK     1       3.425   3.227  -1.760  1.00  0.00     0.001 A 
HETATM   16  C16 UNK     1      -0.756  -1.333   3.084  1.00  0.00     0.100 C 
HETATM   17  C17 UNK     1       3.457   2.719  -3.058  1.00  0.00     0.003 A 
ENDROOT
BRANCH   5  18
HETATM   18  C5  UNK     1      -1.897  -1.038   0.215  1.00  0.00    -0.002 A 
HETATM   19  C10 UNK     1      -2.695   0.069   0.108  1.00  0.00     0.035 A 
HETATM   20  C13 UNK     1      -4.028  -0.280  -0.256  1.00  0.00     0.018 A 
HETATM   21 Br1  UNK     1      -5.384   1.005  -0.487  1.00  0.00    -0.051 Br
HETATM   22  C15 UNK     1      -4.183  -1.640  -0.411  1.00  0.00     0.069 A 
HETATM   23  S1  UNK     1      -2.727  -2.490  -0.117  1.00  0.00    -0.104 SA
ENDBRANCH   5  18
BRANCH  11  24
HETATM   24  N1  UNK     1       0.793   1.049   3.469  1.00  0.00    -0.379 N 
HETATM   25  H8  UNK     1       1.359   1.885   3.535  1.00  0.00     0.158 HD
HETATM   26  H9  UNK     1       0.422   0.618   4.306  1.00  0.00     0.158 HD
ENDBRANCH  11  24
TORSDOF 2
