REMARK  2 active torsions:
REMARK  status: ('A' for Active; 'I' for Inactive)
REMARK    1  A    between atoms: C8_14  and  N1_5 
REMARK    2  A    between atoms: C1_7  and  C4_10 
ROOT
HETATM    1  O1  UNK     1      -0.305   0.667  -2.289  1.00  0.00    -0.291 OA
HETATM    2  O3  UNK     1       2.661   0.446   0.654  1.00  0.00    -0.274 OA
HETATM    3  O4  UNK     1       1.382  -1.023   1.838  1.00  0.00    -0.259 OA
HETATM    4  N2  UNK     1      -3.792  -2.501  -1.286  1.00  0.00    -0.191 NA
HETATM    5  C1  UNK     1      -0.854  -0.942   0.025  1.00  0.00     0.133 C 
HETATM    6  C2  UNK     1       0.442  -0.180  -0.177  1.00  0.00     0.068 A 
HETATM    7  C3  UNK     1       0.633   0.564  -1.278  1.00  0.00     0.104 A 
HETATM    8  C5  UNK     1      -1.727  -0.936  -1.226  1.00  0.00     0.088 C 
HETATM    9  C6  UNK     1       1.864   1.326  -1.470  1.00  0.00     0.033 A 
HETATM   10  C7  UNK     1       1.506  -0.302   0.854  1.00  0.00     0.298 A 
HETATM   11  C8  UNK     1      -1.432  -0.153  -2.289  1.00  0.00     0.160 C 
HETATM   12  C9  UNK     1       2.847   1.248  -0.488  1.00  0.00     0.092 A 
HETATM   13  C11 UNK     1       2.109   2.135  -2.586  1.00  0.00     0.017 A 
HETATM   14  C14 UNK     1       4.051   1.946  -0.587  1.00  0.00     0.038 A 
HETATM   15  C15 UNK     1       3.311   2.841  -2.700  1.00  0.00     0.001 A 
HETATM   16  C16 UNK     1      -2.868  -1.800  -1.259  1.00  0.00     0.100 C 
HETATM   17  C17 UNK     1       4.280   2.746  -1.702  1.00  0.00     0.003 A 
ENDROOT
BRANCH   5  18
HETATM   18  C4  UNK     1      -1.607  -0.461   1.223  1.00  0.00     0.067 A 
HETATM   19  C10 UNK     1      -2.174   0.735   1.529  1.00  0.00     0.036 A 
HETATM   20  C13 UNK     1      -2.742   0.562   2.814  1.00  0.00     0.035 A 
HETATM   21  C12 UNK     1      -2.469  -0.735   3.181  1.00  0.00     0.049 A 
HETATM   22  O2  UNK     1      -1.770  -1.370   2.204  1.00  0.00    -0.319 OA
HETATM   23  C18 UNK     1      -2.779  -1.528   4.379  1.00  0.00     0.076 C 
ENDBRANCH   5  18
BRANCH  11  24
HETATM   24  N1  UNK     1      -2.168  -0.075  -3.440  1.00  0.00    -0.379 N 
HETATM   25  H8  UNK     1      -1.857   0.544  -4.177  1.00  0.00     0.158 HD
HETATM   26  H9  UNK     1      -3.010  -0.624  -3.557  1.00  0.00     0.158 HD
ENDBRANCH  11  24
TORSDOF 2
