REMARK  2 active torsions:
REMARK  status: ('A' for Active; 'I' for Inactive)
REMARK    1  A    between atoms: C11_18  and  S1_1 
REMARK    2  A    between atoms: C5_12  and  S1_1 
ROOT
HETATM    1  O1  UNK     1       0.795   1.600  -2.618  1.00  0.00    -0.275 OA
HETATM    2  O2  UNK     1      -0.513   0.759  -4.294  1.00  0.00    -0.260 OA
HETATM    3  C1  UNK     1       1.148   0.285  -0.581  1.00  0.00     0.016 A 
HETATM    4  C2  UNK     1       1.385   1.431  -1.347  1.00  0.00     0.091 A 
HETATM    5  C3  UNK     1       1.811   0.200   0.653  1.00  0.00     0.022 A 
HETATM    6  C4  UNK     1       2.654   1.228   1.095  1.00  0.00    -0.061 A 
HETATM    7  C5  UNK     1       0.242  -0.733  -1.138  1.00  0.00     0.026 A 
HETATM    8  C6  UNK     1       2.221   2.466  -0.920  1.00  0.00     0.039 A 
HETATM    9  C7  UNK     1       2.856   2.360   0.312  1.00  0.00     0.009 A 
HETATM   10  C8  UNK     1      -0.286  -0.561  -2.357  1.00  0.00     0.102 A 
HETATM   11  C9  UNK     1       3.339   1.107   2.416  1.00  0.00     0.048 C 
HETATM   12  C10 UNK     1      -0.023   0.632  -3.177  1.00  0.00     0.289 A 
ENDROOT
BRANCH   7  13
HETATM   13  S1  UNK     1      -0.127  -2.156  -0.214  1.00  0.00    -0.060 SA
BRANCH  13  14
HETATM   14  C11 UNK     1      -1.542  -1.513   0.624  1.00  0.00     0.165 A 
HETATM   15  S2  UNK     1      -2.015  -2.018   2.193  1.00  0.00    -0.022 SA
HETATM   16  C12 UNK     1      -3.321  -0.914   2.055  1.00  0.00     0.188 A 
HETATM   17  N2  UNK     1      -3.361  -0.248   0.921  1.00  0.00    -0.123 NA
HETATM   18  N3  UNK     1      -4.212  -0.781   3.070  1.00  0.00    -0.377 N 
HETATM   19  N1  UNK     1      -2.318  -0.599   0.081  1.00  0.00    -0.133 NA
HETATM   20  H8  UNK     1      -4.133  -1.322   3.925  1.00  0.00     0.158 HD
HETATM   21  H9  UNK     1      -4.993  -0.136   3.015  1.00  0.00     0.158 HD
ENDBRANCH  13  14
ENDBRANCH   7  13
TORSDOF 2
