REMARK  5 active torsions:
REMARK  status: ('A' for Active; 'I' for Inactive)
REMARK    1  A    between atoms: C11_15  and  O1_1 
REMARK    2  A    between atoms: C1_5  and  N1_4 
REMARK    3  A    between atoms: C2_6  and  N1_4 
REMARK    4  A    between atoms: C3_7  and  N1_4 
REMARK    5  A    between atoms: C10_14  and  C5_9 
ROOT
HETATM    1  C1  UNK     1      -2.719  -1.206   1.553  1.00  0.00     0.032 A 
HETATM    2  C5  UNK     1      -1.106  -0.471  -0.616  1.00  0.00    -0.002 A 
HETATM    3  C8  UNK     1      -3.026  -0.066   0.810  1.00  0.00     0.066 A 
HETATM    4  C9  UNK     1      -1.608  -1.980   1.215  1.00  0.00     0.030 A 
HETATM    5  C11 UNK     1      -2.223   0.300  -0.270  1.00  0.00     0.078 A 
HETATM    6  C14 UNK     1      -0.805  -1.614   0.136  1.00  0.00     0.016 A 
ENDROOT
BRANCH   2   7
HETATM    7  C10 UNK     1      -0.258  -0.113  -1.730  1.00  0.00     0.033 C 
HETATM    8  C4  UNK     1       0.821   0.669  -1.724  1.00  0.00     0.067 A 
HETATM    9  C12 UNK     1       1.377   1.344  -0.523  1.00  0.00     0.197 A 
HETATM   10  C13 UNK     1       1.646   0.992  -2.916  1.00  0.00     0.197 A 
HETATM   11  O2  UNK     1       0.968   1.308   0.617  1.00  0.00    -0.286 OA
HETATM   12  C6  UNK     1       2.549   2.076  -1.025  1.00  0.00     0.029 A 
HETATM   13  C17 UNK     1       3.422   2.870  -0.306  1.00  0.00     0.016 A 
HETATM   14  C7  UNK     1       2.704   1.874  -2.400  1.00  0.00     0.029 A 
HETATM   15  C19 UNK     1       4.473   3.468  -1.007  1.00  0.00     0.001 A 
HETATM   16  C20 UNK     1       4.628   3.265  -2.393  1.00  0.00     0.001 A 
HETATM   17  C18 UNK     1       3.737   2.459  -3.107  1.00  0.00     0.016 A 
HETATM   18  O3  UNK     1       1.494   0.621  -4.059  1.00  0.00    -0.286 OA
ENDBRANCH   2   7
BRANCH   5  19
HETATM   19  O1  UNK     1      -2.545   1.419  -0.979  1.00  0.00    -0.360 OA
HETATM   20  H19 UNK     1      -1.930   1.550  -1.718  1.00  0.00     0.217 HD
ENDBRANCH   5  19
BRANCH   1  21
HETATM   21  N1  UNK     1      -3.531  -1.577   2.644  1.00  0.00    -0.382 N 
BRANCH  21  22
HETATM   22  C2  UNK     1      -3.221  -2.761   3.421  1.00  0.00     0.118 C 
HETATM   23  C15 UNK     1      -3.732  -4.017   2.737  1.00  0.00     0.026 C 
ENDBRANCH  21  22
BRANCH  21  24
HETATM   24  C3  UNK     1      -4.679  -0.772   3.011  1.00  0.00     0.118 C 
HETATM   25  C16 UNK     1      -4.265   0.425   3.850  1.00  0.00     0.026 C 
ENDBRANCH  21  24
ENDBRANCH   1  21
TORSDOF 5
