REMARK  4 active torsions:
REMARK  status: ('A' for Active; 'I' for Inactive)
REMARK    1  A    between atoms: C16_22  and  O2_4 
REMARK    2  A    between atoms: C19_25  and  O3_5 
REMARK    3  A    between atoms: C22_28  and  O4_6 
REMARK    4  A    between atoms: C12_18  and  C3_9 
ROOT
HETATM    1 Cl1  UNK     1       4.220   1.470  -3.758  1.00  0.00    -0.081 Cl
HETATM    2  O1  UNK     1      -0.751   1.511  -0.634  1.00  0.00    -0.334 OA
HETATM    3  C1  UNK     1       1.510   0.001   0.505  1.00  0.00    -0.004 C 
HETATM    4  C2  UNK     1       0.457   0.690   1.402  1.00  0.00     0.039 C 
HETATM    5  C3  UNK     1      -0.895   0.980   0.696  1.00  0.00     0.102 C 
HETATM    6  C4  UNK     1       0.874   2.066   1.945  1.00  0.00     0.009 C 
HETATM    7  C5  UNK     1       2.856  -0.131   1.261  1.00  0.00     0.015 C 
HETATM    8  C6  UNK     1       1.150  -1.482   0.248  1.00  0.00     0.015 C 
HETATM    9  C7  UNK     1      -1.502   2.162   1.513  1.00  0.00     0.044 C 
HETATM   10  C8  UNK     1      -0.428   2.613   2.501  1.00  0.00     0.004 C 
HETATM   11  C9  UNK     1       1.575   0.752  -0.818  1.00  0.00    -0.014 A 
HETATM   12  C10 UNK     1       3.489  -1.464   0.847  1.00  0.00     0.001 C 
HETATM   13  C11 UNK     1       2.476  -2.174  -0.038  1.00  0.00     0.001 C 
HETATM   14  C13 UNK     1       0.441   1.424  -1.292  1.00  0.00     0.080 A 
HETATM   15  C14 UNK     1       2.736   0.791  -1.611  1.00  0.00     0.037 A 
HETATM   16  C15 UNK     1       0.466   2.093  -2.524  1.00  0.00     0.075 A 
HETATM   17  C18 UNK     1       2.761   1.463  -2.836  1.00  0.00     0.067 A 
HETATM   18  C19 UNK     1       1.624   2.113  -3.295  1.00  0.00     0.090 A 
ENDROOT
BRANCH   5  19
HETATM   19  C12 UNK     1      -1.859  -0.209   0.687  1.00  0.00     0.012 A 
HETATM   20  C16 UNK     1      -2.255  -0.821   1.880  1.00  0.00     0.077 A 
HETATM   21  C20 UNK     1      -3.135  -1.903   1.854  1.00  0.00     0.075 A 
HETATM   22  C22 UNK     1      -3.623  -2.377   0.636  1.00  0.00     0.090 A 
HETATM   23  C21 UNK     1      -3.231  -1.769  -0.556  1.00  0.00     0.068 A 
HETATM   24  C17 UNK     1      -2.351  -0.687  -0.531  1.00  0.00     0.039 A 
HETATM   25 Cl2  UNK     1      -3.818  -2.334  -2.077  1.00  0.00    -0.081 Cl
BRANCH  20  26
HETATM   26  O2  UNK     1      -1.789  -0.371   3.078  1.00  0.00    -0.360 OA
HETATM   27  H20 UNK     1      -2.168  -0.913   3.791  1.00  0.00     0.217 HD
ENDBRANCH  20  26
BRANCH  22  28
HETATM   28  O4  UNK     1      -4.481  -3.436   0.641  1.00  0.00    -0.359 OA
HETATM   29  H22 UNK     1      -4.633  -3.720   1.559  1.00  0.00     0.217 HD
ENDBRANCH  22  28
ENDBRANCH   5  19
BRANCH  18  30
HETATM   30  O3  UNK     1       1.613   2.777  -4.483  1.00  0.00    -0.359 OA
HETATM   31  H21 UNK     1       2.494   2.693  -4.888  1.00  0.00     0.217 HD
ENDBRANCH  18  30
TORSDOF 4
