REMARK  6 active torsions:
REMARK  status: ('A' for Active; 'I' for Inactive)
REMARK    1  A    between atoms: C5_11  and  N1_4 
REMARK    2  A    between atoms: C6_12  and  N2_5 
REMARK    3  A    between atoms: C15_21  and  N3_6 
REMARK       I    between atoms: C9_15  and  N3_6 
REMARK    4  A    between atoms: C5_11  and  C7_13 
REMARK    5  A    between atoms: C6_12  and  C9_15 
REMARK    6  A    between atoms: C18_24  and  C20_26 
ROOT
HETATM    1  N1  UNK     1       2.002  -0.175  -0.416  1.00  0.00     0.096 N 
HETATM    2  N2  UNK     1      -0.024  -1.196   1.377  1.00  0.00     0.100 N 
HETATM    3  C1  UNK     1       0.722  -0.685  -0.923  1.00  0.00     0.303 C 
HETATM    4  C2  UNK     1       2.363  -0.850   0.837  1.00  0.00     0.303 C 
HETATM    5  C3  UNK     1      -0.385  -0.520   0.124  1.00  0.00     0.303 C 
HETATM    6  C4  UNK     1       1.256  -0.684   1.884  1.00  0.00     0.303 C 
ENDROOT
BRANCH   1   7
HETATM    7  C5  UNK     1       3.057  -0.337  -1.415  1.00  0.00     0.312 C 
BRANCH   7   8
HETATM    8  C7  UNK     1       3.016   0.730  -2.453  1.00  0.00    -0.011 A 
HETATM    9  C10 UNK     1       2.295   0.580  -3.573  1.00  0.00     0.092 A 
HETATM   10  C13 UNK     1       2.224   1.607  -4.627  1.00  0.00     0.288 A 
HETATM   11  O1  UNK     1       2.950   2.768  -4.414  1.00  0.00    -0.275 OA
HETATM   12  O3  UNK     1       1.554   1.434  -5.639  1.00  0.00    -0.260 OA
HETATM   13  C11 UNK     1       3.717   2.955  -3.247  1.00  0.00     0.090 A 
HETATM   14  C8  UNK     1       3.775   1.973  -2.257  1.00  0.00     0.006 A 
HETATM   15  C14 UNK     1       4.407   4.164  -3.140  1.00  0.00     0.045 A 
HETATM   16  C12 UNK     1       4.560   2.235  -1.126  1.00  0.00     0.015 A 
HETATM   17  C17 UNK     1       5.258   3.442  -1.005  1.00  0.00     0.007 A 
HETATM   18  C16 UNK     1       5.181   4.405  -2.010  1.00  0.00    -0.059 A 
HETATM   19  C21 UNK     1       5.927   5.689  -1.873  1.00  0.00     0.048 C 
ENDBRANCH   7   8
ENDBRANCH   1   7
BRANCH   2  20
HETATM   20  C6  UNK     1      -1.079  -1.036   2.375  1.00  0.00     0.375 C 
BRANCH  20  21
HETATM   21  C9  UNK     1      -2.192  -2.032   2.097  1.00  0.00     0.250 C 
HETATM   22  O2  UNK     1      -1.988  -3.124   1.578  1.00  0.00    -0.271 OA
HETATM   23  N3  UNK     1      -3.416  -1.516   2.519  1.00  0.00    -0.325 N 
HETATM   24  H14 UNK     1      -3.397  -0.584   2.919  1.00  0.00     0.169 HD
BRANCH  23  25
HETATM   25  C15 UNK     1      -4.687  -2.133   2.437  1.00  0.00     0.041 A 
HETATM   26  C18 UNK     1      -5.829  -1.483   2.906  1.00  0.00    -0.032 A 
HETATM   27  C22 UNK     1      -7.073  -2.108   2.816  1.00  0.00     0.009 A 
HETATM   28  C24 UNK     1      -7.175  -3.381   2.256  1.00  0.00     0.001 A 
HETATM   29  C23 UNK     1      -6.033  -4.030   1.787  1.00  0.00     0.002 A 
HETATM   30  C19 UNK     1      -4.789  -3.406   1.877  1.00  0.00     0.030 A 
BRANCH  26  31
HETATM   31  C20 UNK     1      -5.749  -0.119   3.511  1.00  0.00     0.036 C 
HETATM   32  C25 UNK     1      -5.915   0.984   2.470  1.00  0.00     0.010 C 
ENDBRANCH  26  31
ENDBRANCH  23  25
ENDBRANCH  20  21
ENDBRANCH   2  20
TORSDOF 6
