REMARK  1 active torsions:
REMARK  status: ('A' for Active; 'I' for Inactive)
REMARK    1  A    between atoms: C11_15  and  C7_11 
ROOT
HETATM    1  O1  UNK     1       1.015   0.363   0.467  1.00  0.00    -0.308 OA
HETATM    2  O2  UNK     1      -1.190   0.074  -2.948  1.00  0.00    -0.287 OA
HETATM    3  C1  UNK     1      -1.072  -0.261  -0.610  1.00  0.00     0.048 A 
HETATM    4  C2  UNK     1      -0.263  -0.135   0.518  1.00  0.00     0.090 A 
HETATM    5  C3  UNK     1      -2.037  -1.036   1.884  1.00  0.00    -0.059 A 
HETATM    6  C4  UNK     1      -0.745  -0.523   1.768  1.00  0.00     0.045 A 
HETATM    7  C5  UNK     1      -2.366  -0.775  -0.498  1.00  0.00     0.019 A 
HETATM    8  C6  UNK     1      -0.538   0.156  -1.916  1.00  0.00     0.187 A 
HETATM    9  C7  UNK     1       1.519   0.757  -0.762  1.00  0.00     0.121 A 
HETATM   10  C8  UNK     1      -2.845  -1.162   0.753  1.00  0.00     0.008 A 
HETATM   11  C9  UNK     1       0.840   0.685  -1.916  1.00  0.00     0.094 A 
HETATM   12  C10 UNK     1      -2.556  -1.452   3.220  1.00  0.00     0.048 C 
ENDROOT
BRANCH   9  13
HETATM   13  C11 UNK     1       2.919   1.281  -0.693  1.00  0.00     0.410 C 
HETATM   14  F1  UNK     1       3.342   1.664  -1.919  1.00  0.00    -0.207 F 
HETATM   15  F2  UNK     1       2.975   2.373   0.104  1.00  0.00    -0.207 F 
ENDBRANCH   9  13
TORSDOF 1
