REMARK  1 active torsions:
REMARK  status: ('A' for Active; 'I' for Inactive)
REMARK    1  A    between atoms: C12_14  and  C5_7 
ROOT
HETATM    1  O1  UNK     1       0.332   0.304  -0.070  1.00  0.00    -0.308 OA
HETATM    2  O2  UNK     1      -1.865  -0.180  -3.458  1.00  0.00    -0.287 OA
HETATM    3  C1  UNK     1      -0.913  -0.276   0.014  1.00  0.00     0.101 A 
HETATM    4  C2  UNK     1      -1.365  -0.680   1.292  1.00  0.00     0.009 A 
HETATM    5  C3  UNK     1      -1.712  -0.465  -1.116  1.00  0.00     0.049 A 
HETATM    6  C4  UNK     1      -2.645  -1.279   1.402  1.00  0.00    -0.023 A 
HETATM    7  C5  UNK     1       0.803   0.716  -1.306  1.00  0.00     0.090 A 
HETATM    8  C6  UNK     1      -2.969  -1.055  -1.001  1.00  0.00     0.019 A 
HETATM    9  C7  UNK     1      -3.430  -1.458   0.252  1.00  0.00     0.013 A 
HETATM   10  C8  UNK     1      -1.213  -0.037  -2.432  1.00  0.00     0.187 A 
HETATM   11  C9  UNK     1      -0.600  -0.515   2.466  1.00  0.00     0.015 A 
HETATM   12  C10 UNK     1       0.127   0.578  -2.456  1.00  0.00     0.093 A 
HETATM   13  C11 UNK     1      -3.115  -1.690   2.660  1.00  0.00     0.012 A 
HETATM   14  C13 UNK     1      -1.083  -0.929   3.709  1.00  0.00     0.001 A 
HETATM   15  C14 UNK     1      -2.339  -1.515   3.805  1.00  0.00     0.001 A 
ENDROOT
BRANCH   7  16
HETATM   16  C12 UNK     1       2.153   1.315  -1.262  1.00  0.00    -0.002 A 
HETATM   17  C16 UNK     1       2.577   2.009  -0.126  1.00  0.00     0.014 A 
HETATM   18  C18 UNK     1       3.851   2.575  -0.086  1.00  0.00     0.001 A 
HETATM   19  C19 UNK     1       4.706   2.448  -1.181  1.00  0.00     0.000 A 
HETATM   20  C17 UNK     1       4.286   1.755  -2.316  1.00  0.00     0.001 A 
HETATM   21  C15 UNK     1       3.012   1.190  -2.357  1.00  0.00     0.014 A 
ENDBRANCH   7  16
TORSDOF 1
