REMARK  7 active torsions:
REMARK  status: ('A' for Active; 'I' for Inactive)
REMARK    1  A    between atoms: C13_20  and  O1_2 
REMARK    2  A    between atoms: C2_9  and  O1_2 
REMARK    3  A    between atoms: C15_22  and  N1_7 
REMARK    4  A    between atoms: C1_8  and  C8_15 
REMARK    5  A    between atoms: C13_20  and  C5_12 
REMARK    6  A    between atoms: C12_19  and  C8_15 
REMARK    7  A    between atoms: C14_21  and  C9_16 
ROOT
HETATM    1  C1  UNK     1       0.801  -2.838   1.906  1.00  0.00     0.014 A 
HETATM    2  C2  UNK     1       0.278  -0.104   1.721  1.00  0.00     0.079 A 
HETATM    3  C3  UNK     1       1.799  -1.964   1.474  1.00  0.00     0.018 A 
HETATM    4  C4  UNK     1      -0.459  -2.344   2.245  1.00  0.00     0.018 A 
HETATM    5  C6  UNK     1       1.538  -0.597   1.381  1.00  0.00     0.038 A 
HETATM    6  C7  UNK     1      -0.720  -0.977   2.153  1.00  0.00     0.038 A 
ENDROOT
BRANCH   2   7
HETATM    7  O1  UNK     1       0.023   1.230   1.631  1.00  0.00    -0.275 OA
BRANCH   7   8
HETATM    8  C13 UNK     1      -0.470   1.639   0.389  1.00  0.00     0.298 C 
HETATM    9  O3  UNK     1      -0.666   0.912  -0.573  1.00  0.00    -0.259 OA
BRANCH   8  10
HETATM   10  C5  UNK     1      -0.723   3.102   0.367  1.00  0.00     0.040 A 
HETATM   11  C10 UNK     1      -1.209   3.709  -0.791  1.00  0.00     0.020 A 
HETATM   12  C16 UNK     1      -1.447   5.083  -0.812  1.00  0.00     0.037 A 
HETATM   13  C15 UNK     1      -1.200   5.851   0.326  1.00  0.00     0.102 A 
HETATM   14  C17 UNK     1      -0.714   5.244   1.485  1.00  0.00     0.037 A 
HETATM   15  C11 UNK     1      -0.476   3.870   1.505  1.00  0.00     0.020 A 
BRANCH  13  16
HETATM   16  N1  UNK     1      -1.442   7.250   0.306  1.00  0.00    -0.116 N 
HETATM   17  O4  UNK     1      -1.879   7.775  -0.747  1.00  0.00    -0.532 OA
HETATM   18  O5  UNK     1      -1.213   7.922   1.340  1.00  0.00    -0.532 OA
ENDBRANCH  13  16
ENDBRANCH   8  10
ENDBRANCH   7   8
ENDBRANCH   2   7
BRANCH   1  19
HETATM   19  C8  UNK     1       1.074  -4.263   2.003  1.00  0.00     0.182 C 
HETATM   20  O2  UNK     1       0.166  -5.096   1.862  1.00  0.00    -0.288 OA
BRANCH  19  21
HETATM   21  C12 UNK     1       2.477  -4.707   2.311  1.00  0.00     0.056 C 
HETATM   22  C14 UNK     1       2.929  -5.892   1.874  1.00  0.00     0.017 C 
BRANCH  22  23
HETATM   23  C9  UNK     1       2.137  -6.848   1.080  1.00  0.00    -0.014 A 
HETATM   24  C18 UNK     1       2.101  -6.806  -0.314  1.00  0.00     0.044 A 
HETATM   25 Cl1  UNK     1       2.988  -5.627  -1.216  1.00  0.00    -0.083 Cl
HETATM   26  C20 UNK     1       1.335  -7.734  -1.020  1.00  0.00     0.024 A 
HETATM   27  C22 UNK     1       0.605  -8.703  -0.332  1.00  0.00     0.002 A 
HETATM   28  C21 UNK     1       0.640  -8.744   1.062  1.00  0.00     0.001 A 
HETATM   29  C19 UNK     1       1.406  -7.817   1.768  1.00  0.00     0.013 A 
ENDBRANCH  22  23
ENDBRANCH  19  21
ENDBRANCH   1  19
TORSDOF 7
