REMARK  6 active torsions:
REMARK  status: ('A' for Active; 'I' for Inactive)
REMARK    1  A    between atoms: C11_15  and  O1_1 
REMARK    2  A    between atoms: C6_10  and  O1_1 
REMARK       I    between atoms: C7_11  and  N1_4 
REMARK    3  A    between atoms: C1_5  and  C6_10 
REMARK    4  A    between atoms: C7_11  and  C8_12 
REMARK    5  A    between atoms: C8_12  and  C9_13 
REMARK    6  A    between atoms: C10_14  and  C12_16 
ROOT
HETATM    1  C8  UNK     1       0.049   0.142  -1.599  1.00  0.00     0.043 C 
HETATM    2  C10 UNK     1       0.392   1.285  -2.217  1.00  0.00     0.029 C 
ENDROOT
BRANCH   1   3
HETATM    3  C7  UNK     1       1.112  -0.466  -0.774  1.00  0.00     0.254 C 
HETATM    4  O3  UNK     1       1.868  -1.270  -1.322  1.00  0.00    -0.267 OA
HETATM    5  N1  UNK     1       1.192  -0.089   0.565  1.00  0.00    -0.347 N 
HETATM    6  C3  UNK     1       0.333   0.896   1.244  1.00  0.00     0.140 C 
HETATM    7  C5  UNK     1       2.239  -0.672   1.407  1.00  0.00     0.126 C 
HETATM    8  C1  UNK     1      -0.258   0.349   2.548  1.00  0.00     0.103 C 
HETATM    9  C2  UNK     1       0.788  -0.333   3.432  1.00  0.00     0.018 C 
HETATM   10  C4  UNK     1       1.647  -1.325   2.648  1.00  0.00     0.021 C 
BRANCH   8  11
HETATM   11  C6  UNK     1      -1.382  -0.604   2.256  1.00  0.00     0.264 C 
HETATM   12  O2  UNK     1      -1.248  -1.654   1.643  1.00  0.00    -0.265 OA
BRANCH  11  13
HETATM   13  O1  UNK     1      -2.543  -0.112   2.775  1.00  0.00    -0.322 OA
BRANCH  13  14
HETATM   14  C11 UNK     1      -3.702  -0.925   2.568  1.00  0.00     0.174 C 
HETATM   15  C15 UNK     1      -4.900  -0.247   3.199  1.00  0.00     0.034 C 
ENDBRANCH  13  14
ENDBRANCH  11  13
ENDBRANCH   8  11
ENDBRANCH   1   3
BRANCH   1  16
HETATM   16  C9  UNK     1      -1.263  -0.515  -1.686  1.00  0.00    -0.021 A 
HETATM   17  C13 UNK     1      -2.400   0.256  -1.885  1.00  0.00     0.012 A 
HETATM   18  C16 UNK     1      -3.645  -0.367  -1.968  1.00  0.00     0.001 A 
HETATM   19  C20 UNK     1      -3.740  -1.754  -1.852  1.00  0.00     0.000 A 
HETATM   20  C17 UNK     1      -2.590  -2.518  -1.653  1.00  0.00     0.001 A 
HETATM   21  C14 UNK     1      -1.345  -1.895  -1.570  1.00  0.00     0.012 A 
ENDBRANCH   1  16
BRANCH   2  22
HETATM   22  C12 UNK     1       1.702   1.948  -2.135  1.00  0.00    -0.035 A 
HETATM   23  C18 UNK     1       1.926   2.894  -1.145  1.00  0.00     0.011 A 
HETATM   24  C21 UNK     1       3.168   3.524  -1.067  1.00  0.00     0.001 A 
HETATM   25  C23 UNK     1       4.172   3.201  -1.980  1.00  0.00     0.000 A 
HETATM   26  C22 UNK     1       3.934   2.248  -2.970  1.00  0.00     0.001 A 
HETATM   27  C19 UNK     1       2.692   1.618  -3.049  1.00  0.00     0.011 A 
ENDBRANCH   2  22
TORSDOF 6
