REMARK  2 active torsions:
REMARK  status: ('A' for Active; 'I' for Inactive)
REMARK    1  A    between atoms: C17_22  and  O4_4 
REMARK       I    between atoms: C6_11  and  N1_5 
REMARK    2  A    between atoms: C6_11  and  C9_14 
ROOT
HETATM    1  O2  UNK     1      -1.884  -0.048   1.929  1.00  0.00    -0.271 OA
HETATM    2  O3  UNK     1      -0.308   1.605   1.962  1.00  0.00    -0.259 OA
HETATM    3  C9  UNK     1      -0.798   0.647  -0.149  1.00  0.00     0.108 A 
HETATM    4  C12 UNK     1      -1.509  -0.244  -0.851  1.00  0.00     0.037 A 
HETATM    5  C13 UNK     1      -2.470  -1.106  -0.181  1.00  0.00     0.002 A 
HETATM    6  C14 UNK     1      -0.957   0.790   1.316  1.00  0.00     0.304 A 
HETATM    7  C15 UNK     1      -2.635  -0.988   1.196  1.00  0.00     0.123 A 
HETATM    8  C16 UNK     1      -3.233  -2.049  -0.873  1.00  0.00     0.014 A 
HETATM    9  C17 UNK     1      -3.539  -1.783   1.897  1.00  0.00     0.102 A 
HETATM   10  C18 UNK     1      -4.144  -2.855  -0.182  1.00  0.00     0.004 A 
HETATM   11  C19 UNK     1      -4.296  -2.721   1.199  1.00  0.00     0.040 A 
ENDROOT
BRANCH   3  12
HETATM   12  C6  UNK     1       0.153   1.477  -0.920  1.00  0.00     0.264 C 
HETATM   13  O1  UNK     1      -0.274   2.533  -1.384  1.00  0.00    -0.267 OA
HETATM   14  N1  UNK     1       1.439   0.977  -1.065  1.00  0.00    -0.308 N 
HETATM   15  C1  UNK     1       1.998  -0.298  -0.519  1.00  0.00     0.093 C 
HETATM   16  C4  UNK     1       2.477   1.627  -1.778  1.00  0.00     0.044 A 
HETATM   17  C2  UNK     1       3.311  -0.558  -1.287  1.00  0.00     0.066 C 
HETATM   18  C5  UNK     1       2.271  -0.178   0.985  1.00  0.00     0.033 C 
HETATM   19  C3  UNK     1       3.588   0.785  -1.883  1.00  0.00    -0.029 A 
HETATM   20  C7  UNK     1       4.740   1.185  -2.542  1.00  0.00     0.009 A 
HETATM   21  C10 UNK     1       4.777   2.463  -3.097  1.00  0.00     0.001 A 
HETATM   22  C11 UNK     1       3.666   3.312  -2.996  1.00  0.00     0.002 A 
HETATM   23  C8  UNK     1       2.503   2.896  -2.338  1.00  0.00     0.030 A 
ENDBRANCH   3  12
BRANCH   9  24
HETATM   24  O4  UNK     1      -3.691  -1.656   3.243  1.00  0.00    -0.353 OA
HETATM   25  C20 UNK     1      -2.856  -2.465   4.070  1.00  0.00     0.210 C 
ENDBRANCH   9  24
TORSDOF 2
