REMARK  4 active torsions:
REMARK  status: ('A' for Active; 'I' for Inactive)
REMARK    1  A    between atoms: C11_16  and  O2_2 
REMARK    2  A    between atoms: C5_10  and  O2_2 
REMARK    3  A    between atoms: C11_16  and  O3_3 
REMARK    4  A    between atoms: C12_17  and  O3_3 
ROOT
HETATM    1  O1  UNK     1      -3.016  -1.554   0.143  1.00  0.00    -0.275 OA
HETATM    2  O4  UNK     1      -4.181  -2.728   1.723  1.00  0.00    -0.260 OA
HETATM    3  C1  UNK     1      -1.110  -0.190   0.831  1.00  0.00     0.007 A 
HETATM    4  C2  UNK     1      -1.346  -0.607   2.220  1.00  0.00    -0.043 A 
HETATM    5  C3  UNK     1      -1.956  -0.679  -0.166  1.00  0.00     0.090 A 
HETATM    6  C4  UNK     1      -0.079   0.675   0.442  1.00  0.00     0.052 A 
HETATM    7  C5  UNK     1       0.088   1.031  -0.901  1.00  0.00     0.082 A 
HETATM    8  C6  UNK     1      -1.803  -0.333  -1.510  1.00  0.00     0.041 A 
HETATM    9  C7  UNK     1      -2.361  -1.441   2.484  1.00  0.00     0.090 A 
HETATM   10  C8  UNK     1      -0.773   0.528  -1.876  1.00  0.00     0.040 A 
HETATM   11  C9  UNK     1      -0.454  -0.100   3.316  1.00  0.00     0.049 C 
HETATM   12  C10 UNK     1      -3.261  -1.966   1.444  1.00  0.00     0.288 A 
ENDROOT
BRANCH   7  13
HETATM   13  O2  UNK     1       1.096   1.873  -1.259  1.00  0.00    -0.256 OA
BRANCH  13  14
HETATM   14  C11 UNK     1       2.300   1.230  -1.579  1.00  0.00     0.411 C 
HETATM   15  O5  UNK     1       2.480   0.019  -1.555  1.00  0.00    -0.229 OA
BRANCH  14  16
HETATM   16  O3  UNK     1       3.229   2.169  -1.919  1.00  0.00    -0.298 OA
BRANCH  16  17
HETATM   17  C12 UNK     1       4.519   1.661  -2.275  1.00  0.00     0.176 C 
HETATM   18  C13 UNK     1       5.426   2.822  -2.623  1.00  0.00     0.034 C 
ENDBRANCH  16  17
ENDBRANCH  14  16
ENDBRANCH  13  14
ENDBRANCH   7  13
TORSDOF 4
