REMARK  7 active torsions:
REMARK  status: ('A' for Active; 'I' for Inactive)
REMARK    1  A    between atoms: C10_19  and  O1_2 
REMARK    2  A    between atoms: C8_17  and  O1_2 
REMARK       I    between atoms: C11_20  and  N1_8 
REMARK    3  A    between atoms: C4_13  and  N1_8 
REMARK       I    between atoms: C5_14  and  N2_9 
REMARK    4  A    between atoms: C7_16  and  N2_9 
REMARK    5  A    between atoms: C2_11  and  C8_17 
REMARK    6  A    between atoms: C3_12  and  C5_14 
REMARK    7  A    between atoms: C11_20  and  C13_22 
ROOT
HETATM    1  S1  UNK     1      -1.209  -0.093   0.288  1.00  0.00    -0.065 SA
HETATM    2  C1  UNK     1      -0.588   0.179   2.766  1.00  0.00    -0.020 A 
HETATM    3  C2  UNK     1       0.541   0.631   2.023  1.00  0.00     0.080 A 
HETATM    4  C3  UNK     1      -1.611  -0.243   1.946  1.00  0.00     0.082 A 
HETATM    5  C4  UNK     1       0.337   0.538   0.664  1.00  0.00     0.094 A 
HETATM    6  C6  UNK     1      -0.653   0.163   4.249  1.00  0.00     0.051 C 
ENDROOT
BRANCH   5   7
HETATM    7  N1  UNK     1       1.161   0.864  -0.418  1.00  0.00    -0.316 N 
HETATM    8  C11 UNK     1       0.840   0.724  -1.761  1.00  0.00     0.262 C 
HETATM    9  O5  UNK     1      -0.199   0.298  -2.261  1.00  0.00    -0.267 OA
HETATM   10  H4  UNK     1       2.072   1.240  -0.167  1.00  0.00     0.169 HD
BRANCH   8  11
HETATM   11  C13 UNK     1       1.937   1.161  -2.633  1.00  0.00     0.108 A 
HETATM   12  C18 UNK     1       1.659   2.164  -3.475  1.00  0.00     0.037 A 
HETATM   13  C17 UNK     1       2.681   2.666  -4.379  1.00  0.00    -0.001 A 
HETATM   14  C25 UNK     1       2.436   3.711  -5.274  1.00  0.00     0.014 A 
HETATM   15  C20 UNK     1       3.946   2.088  -4.354  1.00  0.00     0.089 A 
HETATM   16  C27 UNK     1       3.452   4.158  -6.123  1.00  0.00     0.001 A 
HETATM   17  C28 UNK     1       4.716   3.564  -6.083  1.00  0.00     0.003 A 
HETATM   18  C26 UNK     1       4.969   2.522  -5.194  1.00  0.00     0.038 A 
HETATM   19  O2  UNK     1       4.233   1.033  -3.465  1.00  0.00    -0.274 OA
HETATM   20  C23 UNK     1       3.275   0.531  -2.588  1.00  0.00     0.304 A 
HETATM   21  O6  UNK     1       3.533  -0.389  -1.819  1.00  0.00    -0.259 OA
ENDBRANCH   8  11
ENDBRANCH   5   7
BRANCH   3  22
HETATM   22  C8  UNK     1       1.768   1.134   2.590  1.00  0.00     0.297 C 
HETATM   23  O4  UNK     1       1.836   1.725   3.677  1.00  0.00    -0.259 OA
BRANCH  22  24
HETATM   24  O1  UNK     1       2.880   0.900   1.810  1.00  0.00    -0.313 OA
BRANCH  24  25
HETATM   25  C10 UNK     1       4.134   1.374   2.314  1.00  0.00     0.124 C 
HETATM   26  C21 UNK     1       5.032   1.752   1.146  1.00  0.00     0.040 C 
HETATM   27  C22 UNK     1       4.763   0.297   3.186  1.00  0.00     0.040 C 
ENDBRANCH  24  25
ENDBRANCH  22  24
ENDBRANCH   3  22
BRANCH   4  28
HETATM   28  C5  UNK     1      -2.895  -0.762   2.296  1.00  0.00     0.263 C 
HETATM   29  O3  UNK     1      -3.512  -0.405   3.326  1.00  0.00    -0.267 OA
HETATM   30  N2  UNK     1      -3.461  -1.684   1.385  1.00  0.00    -0.322 N 
HETATM   31  H5  UNK     1      -2.885  -1.908   0.577  1.00  0.00     0.169 HD
BRANCH  30  32
HETATM   32  C7  UNK     1      -4.718  -2.339   1.432  1.00  0.00     0.041 A 
HETATM   33  C12 UNK     1      -5.576  -2.087   2.503  1.00  0.00     0.030 A 
HETATM   34  C16 UNK     1      -6.816  -2.721   2.567  1.00  0.00     0.009 A 
HETATM   35  C15 UNK     1      -7.199  -3.608   1.561  1.00  0.00    -0.061 A 
HETATM   36  C14 UNK     1      -6.341  -3.861   0.490  1.00  0.00     0.015 A 
HETATM   37  C24 UNK     1      -8.525  -4.287   1.630  1.00  0.00     0.048 C 
HETATM   38  C9  UNK     1      -5.100  -3.226   0.426  1.00  0.00    -0.035 A 
HETATM   39  C19 UNK     1      -4.202  -3.515  -0.732  1.00  0.00     0.050 C 
ENDBRANCH  30  32
ENDBRANCH   4  28
TORSDOF 7
