REMARK  7 active torsions:
REMARK  status: ('A' for Active; 'I' for Inactive)
REMARK    1  A    between atoms: C15_23  and  O3_4 
REMARK    2  A    between atoms: C20_28  and  O3_4 
REMARK    3  A    between atoms: C5_13  and  N1_6 
REMARK    4  A    between atoms: C6_14  and  N2_7 
REMARK    5  A    between atoms: C17_25  and  N3_8 
REMARK       I    between atoms: C9_17  and  N3_8 
REMARK    6  A    between atoms: C5_13  and  C7_15 
REMARK    7  A    between atoms: C6_14  and  C9_17 
ROOT
HETATM    1  N1  UNK     1       0.714   1.561  -0.234  1.00  0.00     0.096 N 
HETATM    2  N2  UNK     1      -0.972   0.310   1.754  1.00  0.00     0.100 N 
HETATM    3  C1  UNK     1       0.736   1.997   1.168  1.00  0.00     0.303 C 
HETATM    4  C2  UNK     1      -0.606   1.024  -0.583  1.00  0.00     0.303 C 
HETATM    5  C3  UNK     1       0.349   0.847   2.104  1.00  0.00     0.303 C 
HETATM    6  C4  UNK     1      -0.992  -0.127   0.353  1.00  0.00     0.303 C 
ENDROOT
BRANCH   1   7
HETATM    7  C5  UNK     1       1.080   2.660  -1.125  1.00  0.00     0.312 C 
BRANCH   7   8
HETATM    8  C7  UNK     1       1.531   2.175  -2.460  1.00  0.00    -0.011 A 
HETATM    9  C10 UNK     1       0.659   1.998  -3.462  1.00  0.00     0.092 A 
HETATM   10  C13 UNK     1       1.057   1.521  -4.797  1.00  0.00     0.288 A 
HETATM   11  O1  UNK     1       2.404   1.254  -4.988  1.00  0.00    -0.275 OA
HETATM   12  O4  UNK     1       0.231   1.371  -5.691  1.00  0.00    -0.260 OA
HETATM   13  C11 UNK     1       3.343   1.430  -3.953  1.00  0.00     0.090 A 
HETATM   14  C8  UNK     1       2.952   1.882  -2.692  1.00  0.00     0.009 A 
HETATM   15  C14 UNK     1       4.672   1.129  -4.257  1.00  0.00     0.041 A 
HETATM   16  C12 UNK     1       3.947   2.030  -1.716  1.00  0.00     0.051 A 
HETATM   17  C15 UNK     1       5.283   1.732  -2.006  1.00  0.00     0.069 A 
HETATM   18  C16 UNK     1       5.645   1.282  -3.275  1.00  0.00     0.039 A 
BRANCH  17  19
HETATM   19  O3  UNK     1       6.235   1.882  -1.044  1.00  0.00    -0.351 OA
BRANCH  19  20
HETATM   20  C20 UNK     1       6.011   2.893  -0.063  1.00  0.00     0.171 C 
HETATM   21  C24 UNK     1       7.347   3.412   0.423  1.00  0.00     0.034 C 
ENDBRANCH  19  20
ENDBRANCH  17  19
ENDBRANCH   7   8
ENDBRANCH   1   7
BRANCH   2  22
HETATM   22  C6  UNK     1      -1.339  -0.788   2.646  1.00  0.00     0.375 C 
BRANCH  22  23
HETATM   23  C9  UNK     1      -2.844  -0.990   2.605  1.00  0.00     0.250 C 
HETATM   24  O2  UNK     1      -3.629  -0.073   2.384  1.00  0.00    -0.271 OA
HETATM   25  N3  UNK     1      -3.157  -2.327   2.843  1.00  0.00    -0.326 N 
HETATM   26  H15 UNK     1      -2.387  -2.970   3.013  1.00  0.00     0.169 HD
BRANCH  25  27
HETATM   27  C17 UNK     1      -4.442  -2.918   2.888  1.00  0.00     0.034 A 
HETATM   28  C18 UNK     1      -4.574  -4.283   3.141  1.00  0.00     0.031 A 
HETATM   29  C21 UNK     1      -5.840  -4.866   3.186  1.00  0.00     0.026 A 
HETATM   30  C23 UNK     1      -6.976  -4.082   2.978  1.00  0.00     0.034 A 
HETATM   31  C22 UNK     1      -6.845  -2.717   2.725  1.00  0.00     0.026 A 
HETATM   32 Cl1  UNK     1      -8.538  -4.801   3.035  1.00  0.00    -0.084 Cl
HETATM   33  C19 UNK     1      -5.578  -2.135   2.680  1.00  0.00     0.031 A 
ENDBRANCH  25  27
ENDBRANCH  22  23
ENDBRANCH   2  22
TORSDOF 7
