REMARK  4 active torsions:
REMARK  status: ('A' for Active; 'I' for Inactive)
REMARK    1  A    between atoms: C5_10  and  O2_2 
REMARK    2  A    between atoms: C13_18  and  O3_3 
REMARK    3  A    between atoms: C14_19  and  O4_4 
REMARK    4  A    between atoms: C3_8  and  C4_9 
ROOT
HETATM    1  O1  UNK     1       0.380   0.583  -1.264  1.00  0.00    -0.306 OA
HETATM    2  O5  UNK     1       3.349   1.728   1.282  1.00  0.00    -0.284 OA
HETATM    3  C1  UNK     1       2.613   1.479  -0.945  1.00  0.00     0.051 A 
HETATM    4  C2  UNK     1       1.561   1.069  -1.761  1.00  0.00     0.091 A 
HETATM    5  C3  UNK     1       0.223   0.505   0.111  1.00  0.00     0.123 A 
HETATM    6  C5  UNK     1       1.163   0.859   1.007  1.00  0.00     0.152 A 
HETATM    7  C6  UNK     1       2.458   1.388   0.515  1.00  0.00     0.220 A 
HETATM    8  C7  UNK     1       1.685   1.143  -3.149  1.00  0.00     0.045 A 
HETATM    9  C8  UNK     1       2.863   1.629  -3.715  1.00  0.00    -0.059 A 
HETATM   10  C9  UNK     1       3.795   1.967  -1.509  1.00  0.00     0.019 A 
HETATM   11  C11 UNK     1       3.916   2.040  -2.897  1.00  0.00     0.008 A 
HETATM   12  C16 UNK     1       2.999   1.709  -5.199  1.00  0.00     0.048 C 
ENDROOT
BRANCH   5  13
HETATM   13  C4  UNK     1      -1.089  -0.034   0.511  1.00  0.00     0.004 A 
HETATM   14  C10 UNK     1      -1.259  -1.410   0.669  1.00  0.00     0.054 A 
HETATM   15  C13 UNK     1      -2.501  -1.921   1.047  1.00  0.00     0.102 A 
HETATM   16  C14 UNK     1      -3.573  -1.056   1.266  1.00  0.00     0.101 A 
HETATM   17  C15 UNK     1      -3.403   0.320   1.109  1.00  0.00     0.040 A 
HETATM   18  C12 UNK     1      -2.161   0.830   0.731  1.00  0.00     0.017 A 
BRANCH  15  19
HETATM   19  O3  UNK     1      -2.654  -3.266   1.197  1.00  0.00    -0.353 OA
HETATM   20  C17 UNK     1      -2.396  -3.807   2.492  1.00  0.00     0.210 C 
ENDBRANCH  15  19
BRANCH  16  21
HETATM   21  O4  UNK     1      -4.790  -1.542   1.636  1.00  0.00    -0.353 OA
HETATM   22  C18 UNK     1      -5.701  -1.874   0.590  1.00  0.00     0.210 C 
ENDBRANCH  16  21
ENDBRANCH   5  13
BRANCH   6  23
HETATM   23  O2  UNK     1       0.988   0.739   2.369  1.00  0.00    -0.355 OA
HETATM   24  H10 UNK     1       0.106   0.380   2.557  1.00  0.00     0.218 HD
ENDBRANCH   6  23
TORSDOF 4
