REMARK  4 active torsions:
REMARK  status: ('A' for Active; 'I' for Inactive)
REMARK    1  A    between atoms: C15_19  and  O2_2 
REMARK    2  A    between atoms: C7_11  and  O2_2 
REMARK    3  A    between atoms: C2_6  and  C4_8 
REMARK    4  A    between atoms: C15_19  and  C17_21 
ROOT
HETATM    1  O1  UNK     1      -1.093   0.023  -2.440  1.00  0.00    -0.275 OA
HETATM    2  O3  UNK     1      -2.967  -1.057  -3.179  1.00  0.00    -0.260 OA
HETATM    3  C1  UNK     1      -0.599   0.044  -0.051  1.00  0.00     0.009 A 
HETATM    4  C2  UNK     1      -1.816  -0.744   0.196  1.00  0.00    -0.007 A 
HETATM    5  C3  UNK     1      -0.275   0.403  -1.359  1.00  0.00     0.093 A 
HETATM    6  C5  UNK     1       0.262   0.455   0.975  1.00  0.00     0.018 A 
HETATM    7  C6  UNK     1       0.864   1.150  -1.663  1.00  0.00     0.075 A 
HETATM    8  C7  UNK     1       1.707   1.551  -0.631  1.00  0.00     0.071 A 
HETATM    9  C8  UNK     1      -2.575  -1.090  -0.856  1.00  0.00     0.095 A 
HETATM   10  C9  UNK     1       1.407   1.204   0.686  1.00  0.00     0.038 A 
HETATM   11  C10 UNK     1      -2.247  -0.720  -2.246  1.00  0.00     0.289 A 
ENDROOT
BRANCH   4  12
HETATM   12  C4  UNK     1      -2.296  -1.199   1.498  1.00  0.00    -0.025 A 
HETATM   13  C11 UNK     1      -3.159  -0.395   2.237  1.00  0.00     0.012 A 
HETATM   14  C13 UNK     1      -3.619  -0.830   3.480  1.00  0.00     0.001 A 
HETATM   15  C16 UNK     1      -3.213  -2.067   3.979  1.00  0.00     0.000 A 
HETATM   16  C14 UNK     1      -2.349  -2.870   3.235  1.00  0.00     0.001 A 
HETATM   17  C12 UNK     1      -1.889  -2.435   1.992  1.00  0.00     0.012 A 
ENDBRANCH   4  12
BRANCH   8  18
HETATM   18  O2  UNK     1       2.822   2.281  -0.906  1.00  0.00    -0.344 OA
BRANCH  18  19
HETATM   19  C15 UNK     1       3.442   2.069  -2.174  1.00  0.00     0.253 C 
BRANCH  19  20
HETATM   20  C17 UNK     1       4.930   2.335  -2.093  1.00  0.00     0.146 C 
HETATM   21  O4  UNK     1       5.483   2.674  -1.048  1.00  0.00    -0.296 OA
HETATM   22  C18 UNK     1       5.709   2.160  -3.370  1.00  0.00     0.093 C 
ENDBRANCH  19  20
ENDBRANCH  18  19
ENDBRANCH   8  18
TORSDOF 4
