REMARK  7 active torsions:
REMARK  status: ('A' for Active; 'I' for Inactive)
REMARK    1  A    between atoms: C12_20  and  O2_2 
REMARK    2  A    between atoms: C14_22  and  O5_5 
REMARK    3  A    between atoms: C21_29  and  O5_5 
REMARK    4  A    between atoms: C12_20  and  C2_10 
REMARK    5  A    between atoms: C11_19  and  C6_14 
REMARK    6  A    between atoms: C14_22  and  C8_16 
REMARK    7  A    between atoms: C21_29  and  C24_32 
ROOT
HETATM    1  O1  UNK     1      -1.398  -2.153  -0.227  1.00  0.00    -0.292 OA
HETATM    2  N1  UNK     1       0.020   0.857   3.143  1.00  0.00    -0.362 N 
HETATM    3  C1  UNK     1      -3.389  -0.575   2.361  1.00  0.00     0.008 C 
HETATM    4  C2  UNK     1      -2.910  -1.827   1.612  1.00  0.00     0.164 C 
HETATM    5  C3  UNK     1      -2.251  -0.068   3.261  1.00  0.00     0.063 C 
HETATM    6  C4  UNK     1      -0.651  -0.584   1.386  1.00  0.00     0.025 C 
HETATM    7  C5  UNK     1      -0.930   0.052   2.544  1.00  0.00     0.020 C 
HETATM    8  C6  UNK     1       0.681  -0.372   0.671  1.00  0.00     0.104 C 
HETATM    9  C7  UNK     1      -1.643  -1.553   0.819  1.00  0.00     0.172 C 
HETATM   10  C8  UNK     1       1.694   0.379   1.539  1.00  0.00     0.052 C 
HETATM   11  C9  UNK     1      -3.893   0.538   1.428  1.00  0.00     0.011 C 
HETATM   12  C10 UNK     1       1.326   0.978   2.696  1.00  0.00     0.018 C 
HETATM   13  C13 UNK     1       2.231   1.788   3.585  1.00  0.00     0.069 C 
HETATM   14  H9  UNK     1      -0.225   1.312   4.015  1.00  0.00     0.165 HD
ENDROOT
BRANCH   8  15
HETATM   15  C11 UNK     1       0.472   0.357  -0.633  1.00  0.00     0.029 A 
HETATM   16  C15 UNK     1       0.846  -0.328  -1.896  1.00  0.00     0.194 A 
HETATM   17  O7  UNK     1       1.315  -1.459  -1.910  1.00  0.00    -0.287 OA
HETATM   18  C17 UNK     1       0.623   0.430  -3.142  1.00  0.00     0.048 A 
HETATM   19  C18 UNK     1       0.086   1.715  -3.066  1.00  0.00     0.089 A 
HETATM   20  C19 UNK     1       0.943  -0.128  -4.382  1.00  0.00     0.018 A 
HETATM   21  O3  UNK     1      -0.247   2.311  -1.876  1.00  0.00    -0.321 OA
HETATM   22  C22 UNK     1      -0.134   2.450  -4.232  1.00  0.00     0.038 A 
HETATM   23  C16 UNK     1      -0.033   1.594  -0.725  1.00  0.00     0.154 A 
HETATM   24  C25 UNK     1       0.185   1.895  -5.471  1.00  0.00     0.003 A 
HETATM   25  C23 UNK     1       0.722   0.610  -5.546  1.00  0.00     0.001 A 
ENDBRANCH   8  15
BRANCH  10  26
HETATM   26  C14 UNK     1       3.094   0.368   1.084  1.00  0.00     0.292 C 
HETATM   27  O6  UNK     1       3.886  -0.508   1.378  1.00  0.00    -0.259 OA
BRANCH  26  28
HETATM   28  O5  UNK     1       3.303   1.466   0.318  1.00  0.00    -0.318 OA
BRANCH  28  29
HETATM   29  C21 UNK     1       4.629   1.597  -0.205  1.00  0.00     0.178 C 
BRANCH  29  30
HETATM   30  C24 UNK     1       4.705   2.868  -1.037  1.00  0.00     0.022 C 
HETATM   31  C26 UNK     1       3.717   2.849  -2.189  1.00  0.00     0.007 C 
ENDBRANCH  29  30
ENDBRANCH  28  29
ENDBRANCH  26  28
ENDBRANCH  10  26
BRANCH   4  32
HETATM   32  C12 UNK     1      -4.020  -2.414   0.795  1.00  0.00     0.270 C 
HETATM   33  O4  UNK     1      -3.962  -2.588  -0.415  1.00  0.00    -0.264 OA
BRANCH  32  34
HETATM   34  O2  UNK     1      -5.076  -2.711   1.606  1.00  0.00    -0.326 OA
HETATM   35  C20 UNK     1      -6.213  -3.281   0.950  1.00  0.00     0.213 C 
ENDBRANCH  32  34
ENDBRANCH   4  32
TORSDOF 7
