REMARK  3 active torsions:
REMARK  status: ('A' for Active; 'I' for Inactive)
REMARK    1  A    between atoms: C10_14  and  O3_3 
REMARK    2  A    between atoms: C13_17  and  O4_4 
REMARK    3  A    between atoms: C1_5  and  C3_7 
ROOT
HETATM    1  O1  UNK     1       0.302   0.578  -1.451  1.00  0.00    -0.340 OA
HETATM    2  O2  UNK     1       3.138   2.661   0.657  1.00  0.00    -0.292 OA
HETATM    3  C1  UNK     1       0.654   0.190  -0.114  1.00  0.00     0.169 C 
HETATM    4  C2  UNK     1       1.098   1.399   0.708  1.00  0.00     0.121 C 
HETATM    5  C4  UNK     1       2.284   2.041   0.035  1.00  0.00     0.165 C 
HETATM    6  C5  UNK     1       2.322   1.944  -1.439  1.00  0.00     0.043 A 
HETATM    7  C6  UNK     1       1.314   1.235  -2.100  1.00  0.00     0.083 A 
HETATM    8  C9  UNK     1       3.327   2.586  -2.166  1.00  0.00     0.018 A 
HETATM    9  C11 UNK     1       1.294   1.199  -3.495  1.00  0.00     0.038 A 
HETATM   10  C14 UNK     1       3.312   2.529  -3.560  1.00  0.00     0.001 A 
HETATM   11  C15 UNK     1       2.296   1.841  -4.223  1.00  0.00     0.003 A 
ENDROOT
BRANCH   3  12
HETATM   12  C3  UNK     1      -0.543  -0.489   0.519  1.00  0.00    -0.026 A 
HETATM   13  C7  UNK     1      -1.723   0.225   0.721  1.00  0.00     0.049 A 
HETATM   14  C10 UNK     1      -2.825  -0.400   1.304  1.00  0.00     0.102 A 
HETATM   15  C13 UNK     1      -2.746  -1.740   1.685  1.00  0.00     0.101 A 
HETATM   16  C12 UNK     1      -1.565  -2.454   1.482  1.00  0.00     0.040 A 
HETATM   17  C8  UNK     1      -0.463  -1.828   0.899  1.00  0.00     0.012 A 
BRANCH  14  18
HETATM   18  O3  UNK     1      -3.974   0.307   1.495  1.00  0.00    -0.353 OA
HETATM   19  C16 UNK     1      -4.112   0.995   2.737  1.00  0.00     0.210 C 
ENDBRANCH  14  18
BRANCH  15  20
HETATM   20  O4  UNK     1      -3.816  -2.362   2.254  1.00  0.00    -0.353 OA
HETATM   21  C17 UNK     1      -4.733  -3.009   1.374  1.00  0.00     0.210 C 
ENDBRANCH  15  20
ENDBRANCH   3  12
TORSDOF 3
