REMARK  3 active torsions:
REMARK  status: ('A' for Active; 'I' for Inactive)
REMARK    1  A    between atoms: C5_12  and  O2_4 
REMARK    2  A    between atoms: C11_18  and  N1_7 
REMARK       I    between atoms: C8_15  and  N1_7 
REMARK    3  A    between atoms: C3_10  and  C8_15 
ROOT
HETATM    1  O1  UNK     1       2.641   0.887  -0.316  1.00  0.00    -0.271 OA
HETATM    2  O3  UNK     1       1.418  -0.262   1.236  1.00  0.00    -0.259 OA
HETATM    3  C1  UNK     1       1.664   1.382  -2.486  1.00  0.00     0.002 A 
HETATM    4  C2  UNK     1       2.734   1.458  -1.600  1.00  0.00     0.123 A 
HETATM    5  C3  UNK     1       0.366   0.162  -0.845  1.00  0.00     0.108 A 
HETATM    6  C4  UNK     1       0.449   0.703  -2.066  1.00  0.00     0.037 A 
HETATM    7  C5  UNK     1       3.926   2.094  -1.941  1.00  0.00     0.102 A 
HETATM    8  C6  UNK     1       1.795   1.961  -3.751  1.00  0.00     0.014 A 
HETATM    9  C7  UNK     1       1.490   0.232   0.115  1.00  0.00     0.304 A 
HETATM   10  C9  UNK     1       4.048   2.669  -3.204  1.00  0.00     0.040 A 
HETATM   11  C10 UNK     1       2.985   2.603  -4.107  1.00  0.00     0.004 A 
ENDROOT
BRANCH   5  12
HETATM   12  C8  UNK     1      -0.901  -0.501  -0.513  1.00  0.00     0.262 C 
HETATM   13  O4  UNK     1      -1.566  -1.026  -1.405  1.00  0.00    -0.267 OA
HETATM   14  N1  UNK     1      -1.187  -0.436   0.843  1.00  0.00    -0.323 N 
HETATM   15  H5  UNK     1      -0.538   0.058   1.451  1.00  0.00     0.169 HD
BRANCH  14  16
HETATM   16  C11 UNK     1      -2.317  -0.964   1.514  1.00  0.00     0.038 A 
HETATM   17  C12 UNK     1      -3.285  -1.634   0.785  1.00  0.00     0.075 A 
HETATM   18  C14 UNK     1      -4.398  -2.154   1.446  1.00  0.00     0.157 A 
HETATM   19  F1  UNK     1      -5.344  -2.803   0.756  1.00  0.00    -0.203 F 
HETATM   20  C16 UNK     1      -4.526  -1.996   2.826  1.00  0.00     0.154 A 
HETATM   21  C15 UNK     1      -3.541  -1.318   3.545  1.00  0.00     0.048 A 
HETATM   22  F2  UNK     1      -5.595  -2.493   3.462  1.00  0.00    -0.203 F 
HETATM   23  C13 UNK     1      -2.428  -0.798   2.884  1.00  0.00     0.032 A 
ENDBRANCH  14  16
ENDBRANCH   5  12
BRANCH   7  24
HETATM   24  O2  UNK     1       4.964   2.161  -1.065  1.00  0.00    -0.353 OA
HETATM   25  C17 UNK     1       5.006   3.288  -0.190  1.00  0.00     0.210 C 
ENDBRANCH   7  24
TORSDOF 3
