REMARK  6 active torsions:
REMARK  status: ('A' for Active; 'I' for Inactive)
REMARK    1  A    between atoms: C18_25  and  O2_2 
REMARK    2  A    between atoms: C8_15  and  O2_2 
REMARK    3  A    between atoms: C5_12  and  O3_3 
REMARK    4  A    between atoms: C7_14  and  N1_7 
REMARK       I    between atoms: C9_16  and  N1_7 
REMARK    5  A    between atoms: C3_10  and  C9_16 
REMARK    6  A    between atoms: C11_18  and  C18_25 
ROOT
HETATM    1  O4  UNK     1       1.054   1.144   1.674  1.00  0.00    -0.267 OA
HETATM    2  N1  UNK     1      -0.266   0.116   0.017  1.00  0.00    -0.323 N 
HETATM    3  C9  UNK     1       0.803   0.854   0.506  1.00  0.00     0.262 C 
HETATM    4  H4  UNK     1      -0.319  -0.054  -0.984  1.00  0.00     0.169 HD
ENDROOT
BRANCH   3   5
HETATM    5  C3  UNK     1       1.699   1.306  -0.565  1.00  0.00     0.108 A 
HETATM    6  C10 UNK     1       1.209   1.588  -1.933  1.00  0.00     0.304 A 
HETATM    7  O1  UNK     1       2.155   2.012  -2.862  1.00  0.00    -0.271 OA
HETATM    8  O5  UNK     1       0.028   1.456  -2.238  1.00  0.00    -0.259 OA
HETATM    9  C2  UNK     1       3.513   2.166  -2.521  1.00  0.00     0.123 A 
HETATM   10  C1  UNK     1       3.953   1.895  -1.230  1.00  0.00     0.002 A 
HETATM   11  C5  UNK     1       4.386   2.595  -3.519  1.00  0.00     0.102 A 
HETATM   12  C4  UNK     1       2.988   1.451  -0.236  1.00  0.00     0.037 A 
HETATM   13  C6  UNK     1       5.308   2.059  -0.931  1.00  0.00     0.014 A 
HETATM   14  C13 UNK     1       6.196   2.488  -1.922  1.00  0.00     0.004 A 
HETATM   15  C12 UNK     1       5.736   2.756  -3.213  1.00  0.00     0.040 A 
BRANCH  11  16
HETATM   16  O3  UNK     1       3.942   2.857  -4.778  1.00  0.00    -0.353 OA
HETATM   17  C21 UNK     1       3.948   1.774  -5.708  1.00  0.00     0.210 C 
ENDBRANCH  11  16
ENDBRANCH   3   5
BRANCH   2  18
HETATM   18  C7  UNK     1      -1.318  -0.475   0.758  1.00  0.00     0.035 A 
HETATM   19  C14 UNK     1      -1.338  -0.335   2.136  1.00  0.00     0.030 A 
HETATM   20  C16 UNK     1      -2.375  -0.915   2.865  1.00  0.00     0.020 A 
HETATM   21  C11 UNK     1      -3.378  -1.627   2.206  1.00  0.00     0.039 A 
HETATM   22  C17 UNK     1      -3.343  -1.758   0.818  1.00  0.00     0.020 A 
HETATM   23  C15 UNK     1      -2.305  -1.178   0.089  1.00  0.00     0.030 A 
BRANCH  21  24
HETATM   24  C18 UNK     1      -4.459  -2.233   2.967  1.00  0.00     0.293 C 
HETATM   25  O6  UNK     1      -4.352  -2.645   4.130  1.00  0.00    -0.259 OA
BRANCH  24  26
HETATM   26  O2  UNK     1      -5.616  -2.291   2.239  1.00  0.00    -0.313 OA
BRANCH  26  27
HETATM   27  C8  UNK     1      -6.510  -3.371   2.530  1.00  0.00     0.124 C 
HETATM   28  C19 UNK     1      -7.744  -3.250   1.650  1.00  0.00     0.040 C 
HETATM   29  C20 UNK     1      -5.787  -4.692   2.314  1.00  0.00     0.040 C 
ENDBRANCH  26  27
ENDBRANCH  24  26
ENDBRANCH  21  24
ENDBRANCH   2  18
TORSDOF 6
