REMARK  6 active torsions:
REMARK  status: ('A' for Active; 'I' for Inactive)
REMARK    1  A    between atoms: C6_10  and  O1_1 
REMARK    2  A    between atoms: C9_13  and  O2_2 
REMARK    3  A    between atoms: C3_7  and  N1_4 
REMARK       I    between atoms: C4_8  and  N1_4 
REMARK    4  A    between atoms: C1_5  and  C2_6 
REMARK    5  A    between atoms: C1_5  and  C4_8 
REMARK    6  A    between atoms: C5_9  and  C7_11 
ROOT
HETATM    1  C1  UNK     1       1.545   0.695  -1.196  1.00  0.00     0.043 C 
HETATM    2  C5  UNK     1       1.076   1.105  -2.403  1.00  0.00     0.029 C 
ENDROOT
BRANCH   1   3
HETATM    3  C2  UNK     1       2.822   1.191  -0.642  1.00  0.00    -0.021 A 
HETATM    4  C10 UNK     1       3.837   1.555  -1.509  1.00  0.00     0.012 A 
HETATM    5  C16 UNK     1       5.043   2.023  -0.986  1.00  0.00     0.001 A 
HETATM    6  C18 UNK     1       5.213   2.119   0.395  1.00  0.00     0.000 A 
HETATM    7  C17 UNK     1       4.178   1.748   1.253  1.00  0.00     0.001 A 
HETATM    8  C11 UNK     1       2.973   1.280   0.731  1.00  0.00     0.012 A 
ENDBRANCH   1   3
BRANCH   1   9
HETATM    9  C4  UNK     1       0.673  -0.273  -0.429  1.00  0.00     0.257 C 
HETATM   10  O3  UNK     1       0.829  -1.484  -0.557  1.00  0.00    -0.267 OA
HETATM   11  N1  UNK     1      -0.257   0.362   0.385  1.00  0.00    -0.320 N 
HETATM   12  H2  UNK     1      -0.265   1.380   0.384  1.00  0.00     0.169 HD
BRANCH  11  13
HETATM   13  C3  UNK     1      -1.219  -0.244   1.230  1.00  0.00     0.071 A 
HETATM   14  C6  UNK     1      -2.075   0.544   1.980  1.00  0.00     0.095 A 
HETATM   15  C12 UNK     1      -3.018  -0.067   2.807  1.00  0.00     0.042 A 
HETATM   16  C13 UNK     1      -3.091  -1.458   2.872  1.00  0.00     0.039 A 
HETATM   17  C9  UNK     1      -2.221  -2.238   2.110  1.00  0.00     0.070 A 
HETATM   18  C8  UNK     1      -1.278  -1.627   1.283  1.00  0.00     0.069 A 
BRANCH  14  19
HETATM   19  O1  UNK     1      -2.019   1.905   1.932  1.00  0.00    -0.354 OA
HETATM   20  C22 UNK     1      -1.156   2.551   2.866  1.00  0.00     0.210 C 
ENDBRANCH  14  19
BRANCH  17  21
HETATM   21  O2  UNK     1      -2.292  -3.596   2.173  1.00  0.00    -0.356 OA
HETATM   22  C23 UNK     1      -3.279  -4.155   3.038  1.00  0.00     0.210 C 
ENDBRANCH  17  21
ENDBRANCH  11  13
ENDBRANCH   1   9
BRANCH   2  23
HETATM   23  C7  UNK     1      -0.161   0.684  -3.041  1.00  0.00    -0.035 A 
HETATM   24  C14 UNK     1      -0.165  -0.417  -3.898  1.00  0.00     0.011 A 
HETATM   25  C19 UNK     1      -1.351  -0.821  -4.510  1.00  0.00     0.001 A 
HETATM   26  C21 UNK     1      -2.535  -0.124  -4.265  1.00  0.00     0.000 A 
HETATM   27  C20 UNK     1      -2.531   0.977  -3.409  1.00  0.00     0.001 A 
HETATM   28  C15 UNK     1      -1.345   1.381  -2.797  1.00  0.00     0.011 A 
ENDBRANCH   2  23
TORSDOF 6
