REMARK  4 active torsions:
REMARK  status: ('A' for Active; 'I' for Inactive)
REMARK    1  A    between atoms: C17_24  and  N1_6 
REMARK    2  A    between atoms: C4_11  and  N1_6 
REMARK    3  A    between atoms: C17_24  and  N2_7 
REMARK    4  A    between atoms: C8_15  and  N2_7 
ROOT
HETATM    1  N1  UNK     1      -1.429  -0.541  -2.310  1.00  0.00    -0.333 N 
HETATM    2  H7  UNK     1      -1.986  -0.716  -3.144  1.00  0.00     0.168 HD
ENDROOT
BRANCH   1   3
HETATM    3  C17 UNK     1      -0.234   0.140  -2.579  1.00  0.00     0.176 C 
HETATM    4  S1  UNK     1       0.155   0.411  -4.196  1.00  0.00    -0.041 SA
BRANCH   3   5
HETATM    5  N2  UNK     1       0.445   0.622  -1.474  1.00  0.00    -0.333 N 
HETATM    6  H9  UNK     1      -0.155   0.814  -0.679  1.00  0.00     0.168 HD
BRANCH   5   7
HETATM    7  C8  UNK     1       1.661   1.343  -1.371  1.00  0.00     0.037 A 
HETATM    8  C11 UNK     1       2.699   1.038  -2.238  1.00  0.00     0.069 A 
HETATM    9  C7  UNK     1       3.862   1.767  -2.100  1.00  0.00     0.107 A 
HETATM   10  O2  UNK     1       4.990   1.621  -2.847  1.00  0.00    -0.323 OA
HETATM   11  C9  UNK     1       3.990   2.752  -1.147  1.00  0.00     0.105 A 
HETATM   12  C16 UNK     1       5.842   2.625  -2.259  1.00  0.00     0.352 A 
HETATM   13  O3  UNK     1       5.215   3.346  -1.179  1.00  0.00    -0.323 OA
HETATM   14  C13 UNK     1       2.963   3.062  -0.280  1.00  0.00     0.042 A 
HETATM   15  C12 UNK     1       1.774   2.338  -0.399  1.00  0.00     0.032 A 
ENDBRANCH   5   7
ENDBRANCH   3   5
ENDBRANCH   1   3
BRANCH   1  16
HETATM   16  C4  UNK     1      -2.085  -0.836  -1.115  1.00  0.00     0.036 A 
HETATM   17  C10 UNK     1      -3.470  -0.994  -1.100  1.00  0.00     0.030 A 
HETATM   18  C6  UNK     1      -4.135  -1.290   0.096  1.00  0.00     0.017 A 
HETATM   19  C1  UNK     1      -3.424  -1.431   1.295  1.00  0.00     0.004 A 
HETATM   20  C2  UNK     1      -2.039  -1.267   1.249  1.00  0.00     0.092 A 
HETATM   21  C3  UNK     1      -4.054  -1.740   2.586  1.00  0.00    -0.043 A 
HETATM   22  O1  UNK     1      -1.252  -1.393   2.411  1.00  0.00    -0.275 OA
HETATM   23  C5  UNK     1      -1.361  -0.973   0.065  1.00  0.00     0.067 A 
HETATM   24  C18 UNK     1      -1.818  -1.683   3.643  1.00  0.00     0.288 A 
HETATM   25  C14 UNK     1      -3.281  -1.854   3.675  1.00  0.00     0.090 A 
HETATM   26  O4  UNK     1      -1.143  -1.795   4.660  1.00  0.00    -0.260 OA
HETATM   27  C15 UNK     1      -5.542  -1.922   2.668  1.00  0.00     0.049 C 
ENDBRANCH   1  16
TORSDOF 4
