REMARK  4 active torsions:
REMARK  status: ('A' for Active; 'I' for Inactive)
REMARK    1  A    between atoms: C1_7  and  N1_4 
REMARK       I    between atoms: C10_16  and  N3_6 
REMARK    2  A    between atoms: C3_9  and  N3_6 
REMARK    3  A    between atoms: C1_7  and  C2_8 
REMARK    4  A    between atoms: C10_16  and  C6_12 
ROOT
HETATM    1  O2  UNK     1       0.380  -0.580  -2.674  1.00  0.00    -0.267 OA
HETATM    2  N3  UNK     1      -0.333   0.377  -0.644  1.00  0.00    -0.306 N 
HETATM    3  C10 UNK     1       0.544   0.145  -1.695  1.00  0.00     0.263 C 
HETATM    4  H6  UNK     1      -0.072   1.022   0.097  1.00  0.00     0.170 HD
ENDROOT
BRANCH   2   5
HETATM    5  C3  UNK     1      -1.624  -0.173  -0.459  1.00  0.00     0.151 A 
HETATM    6  N2  UNK     1      -2.363   0.129   0.588  1.00  0.00    -0.154 NA
HETATM    7  N1  UNK     1      -3.472  -0.595   0.361  1.00  0.00    -0.275 N 
HETATM    8  C5  UNK     1      -3.428  -1.325  -0.790  1.00  0.00     0.116 A 
HETATM    9  C8  UNK     1      -2.205  -1.060  -1.356  1.00  0.00     0.071 A 
BRANCH   7  10
HETATM   10  C1  UNK     1      -4.565  -0.546   1.303  1.00  0.00     0.189 C 
BRANCH  10  11
HETATM   11  C2  UNK     1      -4.422  -1.603   2.365  1.00  0.00    -0.038 A 
HETATM   12  C11 UNK     1      -3.732  -1.311   3.533  1.00  0.00     0.009 A 
HETATM   13  C16 UNK     1      -3.600  -2.290   4.517  1.00  0.00     0.001 A 
HETATM   14  C20 UNK     1      -4.159  -3.553   4.324  1.00  0.00     0.000 A 
HETATM   15  C17 UNK     1      -4.851  -3.837   3.146  1.00  0.00     0.001 A 
HETATM   16  C12 UNK     1      -4.983  -2.857   2.162  1.00  0.00     0.009 A 
ENDBRANCH  10  11
ENDBRANCH   7  10
ENDBRANCH   2   5
BRANCH   3  17
HETATM   17  C6  UNK     1       1.797   0.895  -1.547  1.00  0.00     0.108 A 
HETATM   18  C14 UNK     1       2.355   1.237  -0.219  1.00  0.00     0.304 A 
HETATM   19  O1  UNK     1       3.551   1.951  -0.208  1.00  0.00    -0.274 OA
HETATM   20  O3  UNK     1       1.797   0.910   0.823  1.00  0.00    -0.259 OA
HETATM   21  C7  UNK     1       4.200   2.331  -1.399  1.00  0.00     0.089 A 
HETATM   22  C15 UNK     1       5.392   3.044  -1.287  1.00  0.00     0.038 A 
HETATM   23  C4  UNK     1       3.658   2.000  -2.637  1.00  0.00    -0.001 A 
HETATM   24  C19 UNK     1       6.057   3.434  -2.448  1.00  0.00     0.003 A 
HETATM   25  C18 UNK     1       5.528   3.110  -3.699  1.00  0.00     0.001 A 
HETATM   26  C13 UNK     1       4.331   2.395  -3.795  1.00  0.00     0.014 A 
HETATM   27  C9  UNK     1       2.410   1.253  -2.681  1.00  0.00     0.037 A 
ENDBRANCH   3  17
TORSDOF 4
