REMARK  3 active torsions:
REMARK  status: ('A' for Active; 'I' for Inactive)
REMARK    1  A    between atoms: C4_8  and  N1_4 
REMARK    2  A    between atoms: C1_5  and  C3_7 
REMARK    3  A    between atoms: C10_14  and  C7_11 
ROOT
HETATM    1  O2  UNK     1       1.426   1.276  -3.362  1.00  0.00    -0.275 OA
HETATM    2  O3  UNK     1      -0.149   0.508  -4.829  1.00  0.00    -0.260 OA
HETATM    3  C1  UNK     1      -0.181   0.245  -1.257  1.00  0.00     0.019 A 
HETATM    4  C2  UNK     1       1.093   0.927  -0.971  1.00  0.00     0.012 A 
HETATM    5  C6  UNK     1       1.854   1.420  -2.029  1.00  0.00     0.090 A 
HETATM    6  C7  UNK     1       2.801   1.764   0.547  1.00  0.00    -0.058 A 
HETATM    7  C8  UNK     1       1.584   1.108   0.330  1.00  0.00     0.022 A 
HETATM    8  C11 UNK     1      -0.559   0.125  -2.541  1.00  0.00     0.098 A 
HETATM    9  C12 UNK     1       3.070   2.076  -1.827  1.00  0.00     0.039 A 
HETATM   10  C13 UNK     1       3.542   2.247  -0.530  1.00  0.00     0.010 A 
HETATM   11  C16 UNK     1       0.235   0.640  -3.672  1.00  0.00     0.289 A 
ENDROOT
BRANCH   3  12
HETATM   12  C3  UNK     1      -1.054  -0.303  -0.294  1.00  0.00     0.114 A 
HETATM   13  O1  UNK     1      -2.054   0.433   0.264  1.00  0.00    -0.307 OA
HETATM   14  C9  UNK     1      -2.706  -0.378   1.144  1.00  0.00     0.088 A 
HETATM   15  C15 UNK     1      -3.798  -0.014   1.929  1.00  0.00     0.038 A 
HETATM   16  C5  UNK     1      -2.124  -1.642   1.154  1.00  0.00     0.027 A 
HETATM   17  C19 UNK     1      -4.317  -1.004   2.769  1.00  0.00     0.003 A 
HETATM   18  C18 UNK     1      -3.761  -2.286   2.808  1.00  0.00     0.001 A 
HETATM   19  C14 UNK     1      -2.663  -2.622   2.006  1.00  0.00     0.017 A 
HETATM   20  C4  UNK     1      -1.057  -1.583   0.220  1.00  0.00     0.074 A 
BRANCH  20  21
HETATM   21  N1  UNK     1      -0.210  -2.587  -0.099  1.00  0.00    -0.396 N 
HETATM   22  H12 UNK     1      -0.273  -3.508   0.324  1.00  0.00     0.156 HD
HETATM   23  H13 UNK     1       0.538  -2.480  -0.777  1.00  0.00     0.156 HD
ENDBRANCH  20  21
ENDBRANCH   3  12
BRANCH   6  24
HETATM   24  C10 UNK     1       3.307   1.947   1.939  1.00  0.00     0.034 C 
HETATM   25  C17 UNK     1       4.185   0.784   2.394  1.00  0.00     0.010 C 
ENDBRANCH   6  24
TORSDOF 3
