REMARK  5 active torsions:
REMARK  status: ('A' for Active; 'I' for Inactive)
REMARK    1  A    between atoms: C12_19  and  O3_4 
REMARK    2  A    between atoms: C19_26  and  O3_4 
REMARK    3  A    between atoms: C1_8  and  C10_17 
REMARK    4  A    between atoms: C12_19  and  C6_13 
REMARK    5  A    between atoms: C19_26  and  C22_29 
ROOT
HETATM    1  O1  UNK     1      -2.641  -3.398   0.029  1.00  0.00    -0.293 OA
HETATM    2  N1  UNK     1      -2.426   0.462   2.765  1.00  0.00    -0.362 N 
HETATM    3  C1  UNK     1      -0.939  -1.401   1.228  1.00  0.00     0.104 C 
HETATM    4  C2  UNK     1      -2.461  -1.411   1.315  1.00  0.00     0.024 C 
HETATM    5  C3  UNK     1      -3.124  -0.486   2.041  1.00  0.00     0.020 C 
HETATM    6  C4  UNK     1      -4.626  -0.417   2.121  1.00  0.00     0.058 C 
HETATM    7  C5  UNK     1      -5.296  -1.127   0.952  1.00  0.00     0.014 C 
HETATM    8  C6  UNK     1      -0.296  -0.390   2.182  1.00  0.00     0.052 C 
HETATM    9  C7  UNK     1      -4.734  -2.526   0.774  1.00  0.00     0.084 C 
HETATM   10  C8  UNK     1      -3.227  -2.502   0.635  1.00  0.00     0.158 C 
HETATM   11  C9  UNK     1      -1.045   0.492   2.885  1.00  0.00     0.018 C 
HETATM   12  C13 UNK     1      -0.528   1.529   3.846  1.00  0.00     0.069 C 
HETATM   13  H8  UNK     1      -2.961   1.132   3.306  1.00  0.00     0.165 HD
ENDROOT
BRANCH   3  14
HETATM   14  C10 UNK     1      -0.502  -1.132  -0.187  1.00  0.00     0.029 A 
HETATM   15  C11 UNK     1      -0.870   0.165  -0.808  1.00  0.00     0.194 A 
HETATM   16  O4  UNK     1      -1.513   1.015  -0.206  1.00  0.00    -0.287 OA
HETATM   17  C15 UNK     1      -0.418   0.378  -2.195  1.00  0.00     0.050 A 
HETATM   18  C16 UNK     1       0.313  -0.626  -2.832  1.00  0.00     0.089 A 
HETATM   19  C17 UNK     1      -0.714   1.567  -2.867  1.00  0.00     0.042 A 
HETATM   20  O2  UNK     1       0.632  -1.812  -2.220  1.00  0.00    -0.321 OA
HETATM   21  C18 UNK     1       0.751  -0.446  -4.144  1.00  0.00     0.040 A 
HETATM   22  C14 UNK     1       0.204  -1.996  -0.928  1.00  0.00     0.154 A 
HETATM   23  C21 UNK     1       0.457   0.740  -4.817  1.00  0.00     0.026 A 
HETATM   24  C20 UNK     1      -0.274   1.744  -4.180  1.00  0.00     0.035 A 
HETATM   25 Cl1  UNK     1      -0.634   3.205  -5.016  1.00  0.00    -0.084 Cl
ENDBRANCH   3  14
BRANCH   8  26
HETATM   26  C12 UNK     1       1.172  -0.448   2.292  1.00  0.00     0.292 C 
HETATM   27  O5  UNK     1       1.755  -1.147   3.099  1.00  0.00    -0.259 OA
BRANCH  26  28
HETATM   28  O3  UNK     1       1.702   0.386   1.366  1.00  0.00    -0.313 OA
BRANCH  28  29
HETATM   29  C19 UNK     1       3.132   0.440   1.347  1.00  0.00     0.217 C 
BRANCH  29  30
HETATM   30  C22 UNK     1       3.572   1.397   0.279  1.00  0.00    -0.034 A 
HETATM   31  C23 UNK     1       3.798   0.932  -1.012  1.00  0.00     0.009 A 
HETATM   32  C25 UNK     1       4.208   1.822  -2.005  1.00  0.00     0.001 A 
HETATM   33  C27 UNK     1       4.389   3.171  -1.701  1.00  0.00     0.000 A 
HETATM   34  C26 UNK     1       4.160   3.631  -0.404  1.00  0.00     0.001 A 
HETATM   35  C24 UNK     1       3.751   2.741   0.589  1.00  0.00     0.009 A 
ENDBRANCH  29  30
ENDBRANCH  28  29
ENDBRANCH  26  28
ENDBRANCH   8  26
TORSDOF 5
