REMARK  5 active torsions:
REMARK  status: ('A' for Active; 'I' for Inactive)
REMARK       I    between atoms: C10_18  and  N1_6 
REMARK    1  A    between atoms: C3_11  and  N1_6 
REMARK       I    between atoms: C5_13  and  N2_7 
REMARK    2  A    between atoms: C8_16  and  N2_7 
REMARK    3  A    between atoms: C1_9  and  C5_13 
REMARK    4  A    between atoms: C14_22  and  C8_16 
REMARK    5  A    between atoms: C10_18  and  C9_17 
ROOT
HETATM    1  S1  UNK     1      -1.578  -1.075   3.573  1.00  0.00    -0.076 SA
HETATM    2  C1  UNK     1      -2.885  -1.393   1.384  1.00  0.00     0.072 A 
HETATM    3  C2  UNK     1      -3.771  -1.776   2.432  1.00  0.00    -0.031 A 
HETATM    4  C3  UNK     1      -1.682  -1.000   1.878  1.00  0.00     0.093 A 
HETATM    5  C4  UNK     1      -3.187  -1.652   3.674  1.00  0.00    -0.012 A 
HETATM    6  C6  UNK     1      -5.159  -2.254   2.215  1.00  0.00     0.050 C 
HETATM    7  C7  UNK     1      -3.763  -1.945   5.006  1.00  0.00     0.057 C 
ENDROOT
BRANCH   4   8
HETATM    8  N1  UNK     1      -0.534  -0.551   1.219  1.00  0.00    -0.316 N 
HETATM    9  C10 UNK     1       0.401   0.343   1.722  1.00  0.00     0.262 C 
HETATM   10  O3  UNK     1       0.414   0.906   2.815  1.00  0.00    -0.267 OA
HETATM   11  H4  UNK     1      -0.494  -0.788   0.231  1.00  0.00     0.169 HD
BRANCH   9  12
HETATM   12  C9  UNK     1       1.484   0.597   0.765  1.00  0.00     0.108 A 
HETATM   13  C12 UNK     1       2.055   1.806   0.826  1.00  0.00     0.037 A 
HETATM   14  C11 UNK     1       3.137   2.153  -0.083  1.00  0.00    -0.001 A 
HETATM   15  C13 UNK     1       3.564   1.209  -1.012  1.00  0.00     0.089 A 
HETATM   16  C16 UNK     1       3.762   3.402  -0.055  1.00  0.00     0.014 A 
HETATM   17  O1  UNK     1       2.959  -0.062  -1.071  1.00  0.00    -0.274 OA
HETATM   18  C17 UNK     1       4.595   1.478  -1.910  1.00  0.00     0.038 A 
HETATM   19  C15 UNK     1       1.922  -0.422  -0.215  1.00  0.00     0.304 A 
HETATM   20  O4  UNK     1       1.401  -1.530  -0.275  1.00  0.00    -0.259 OA
HETATM   21  C20 UNK     1       5.213   2.726  -1.875  1.00  0.00     0.003 A 
HETATM   22  C19 UNK     1       4.798   3.686  -0.950  1.00  0.00     0.001 A 
ENDBRANCH   9  12
ENDBRANCH   4   8
BRANCH   2  23
HETATM   23  C5  UNK     1      -3.197  -1.412  -0.023  1.00  0.00     0.255 C 
HETATM   24  N2  UNK     1      -2.545  -0.462  -0.822  1.00  0.00    -0.352 N 
HETATM   25  H8  UNK     1      -1.990   0.262  -0.377  1.00  0.00     0.163 HD
HETATM   26  O2  UNK     1      -4.021  -2.207  -0.514  1.00  0.00    -0.268 OA
BRANCH  24  27
HETATM   27  C8  UNK     1      -2.774  -0.334  -2.244  1.00  0.00     0.162 C 
BRANCH  27  28
HETATM   28  C14 UNK     1      -1.552   0.168  -2.965  1.00  0.00    -0.023 A 
HETATM   29  C18 UNK     1      -0.618  -0.721  -3.460  1.00  0.00     0.012 A 
HETATM   30  C22 UNK     1       0.500  -0.227  -4.123  1.00  0.00     0.020 A 
HETATM   31  C23 UNK     1       0.622   1.147  -4.256  1.00  0.00     0.116 A 
HETATM   32  N3  UNK     1      -0.279   2.035  -3.781  1.00  0.00    -0.273 NA
HETATM   33  C21 UNK     1      -1.353   1.519  -3.142  1.00  0.00     0.124 A 
ENDBRANCH  27  28
ENDBRANCH  24  27
ENDBRANCH   2  23
TORSDOF 5
