REMARK  1 active torsions:
REMARK  status: ('A' for Active; 'I' for Inactive)
REMARK    1  A    between atoms: C1_5  and  C2_6 
ROOT
HETATM    1  O1  UNK     1       2.425   1.488   0.291  1.00  0.00    -0.274 OA
HETATM    2  O2  UNK     1       1.017   0.849   1.969  1.00  0.00    -0.259 OA
HETATM    3  C2  UNK     1       0.294   0.402  -0.255  1.00  0.00     0.086 A 
HETATM    4  C5  UNK     1       1.798   1.114  -2.026  1.00  0.00    -0.001 A 
HETATM    5  C6  UNK     1       0.563   0.502  -1.565  1.00  0.00     0.035 A 
HETATM    6  C7  UNK     1       2.703   1.592  -1.085  1.00  0.00     0.089 A 
HETATM    7  C8  UNK     1       1.247   0.916   0.766  1.00  0.00     0.302 A 
HETATM    8  C11 UNK     1       2.109   1.237  -3.383  1.00  0.00     0.014 A 
HETATM    9  C12 UNK     1       3.906   2.188  -1.460  1.00  0.00     0.038 A 
HETATM   10  C15 UNK     1       3.311   1.832  -3.774  1.00  0.00     0.001 A 
HETATM   11  C16 UNK     1       4.208   2.307  -2.815  1.00  0.00     0.003 A 
ENDROOT
BRANCH   3  12
HETATM   12  C1  UNK     1      -0.928  -0.213   0.164  1.00  0.00     0.145 A 
HETATM   13  N1  UNK     1      -0.924  -0.858   1.369  1.00  0.00    -0.338 N 
HETATM   14  C3  UNK     1      -2.180  -1.369   1.574  1.00  0.00     0.062 A 
HETATM   15  H1  UNK     1      -0.142  -0.961   2.003  1.00  0.00     0.167 HD
HETATM   16  C4  UNK     1      -2.897  -0.991   0.442  1.00  0.00     0.086 A 
HETATM   17  C9  UNK     1      -2.734  -2.107   2.621  1.00  0.00     0.032 A 
HETATM   18  C10 UNK     1      -4.247  -1.363   0.330  1.00  0.00     0.034 A 
HETATM   19  N2  UNK     1      -2.102  -0.274  -0.423  1.00  0.00    -0.228 NA
HETATM   20  C14 UNK     1      -4.824  -2.104   1.369  1.00  0.00     0.002 A 
HETATM   21  C13 UNK     1      -4.079  -2.469   2.493  1.00  0.00     0.002 A 
ENDBRANCH   3  12
TORSDOF 1
