REMARK  2 active torsions:
REMARK  status: ('A' for Active; 'I' for Inactive)
REMARK    1  A    between atoms: C10_16  and  O3_5 
REMARK    2  A    between atoms: C10_16  and  C6_12 
ROOT
HETATM    1 Br1  UNK     1       2.038   0.811   2.497  1.00  0.00    -0.048 Br
HETATM    2 Br2  UNK     1       3.592   2.143  -2.789  1.00  0.00    -0.051 Br
HETATM    3  O1  UNK     1      -0.457  -0.189   1.056  1.00  0.00    -0.301 OA
HETATM    4  O2  UNK     1      -1.397  -0.170  -2.912  1.00  0.00    -0.287 OA
HETATM    5  C1  UNK     1       0.172   0.366  -1.225  1.00  0.00     0.051 A 
HETATM    6  C2  UNK     1       0.431   0.329   0.146  1.00  0.00     0.108 A 
HETATM    7  C3  UNK     1      -1.105  -0.172  -1.724  1.00  0.00     0.188 A 
HETATM    8  C4  UNK     1       1.111   0.906  -2.106  1.00  0.00     0.037 A 
HETATM    9  C5  UNK     1       1.633   0.834   0.643  1.00  0.00     0.047 A 
HETATM   10  C6  UNK     1      -1.649  -0.691   0.578  1.00  0.00     0.153 A 
HETATM   11  C7  UNK     1      -2.025  -0.719  -0.706  1.00  0.00     0.100 A 
HETATM   12  C8  UNK     1       2.313   1.410  -1.606  1.00  0.00     0.013 A 
HETATM   13  C9  UNK     1       2.573   1.374  -0.235  1.00  0.00     0.041 A 
ENDROOT
BRANCH  10  14
HETATM   14  C10 UNK     1      -2.581  -1.240   1.565  1.00  0.00     0.201 C 
HETATM   15  O4  UNK     1      -3.669  -1.717   1.298  1.00  0.00    -0.645 OA
BRANCH  14  16
HETATM   16  O3  UNK     1      -2.048  -1.132   2.801  1.00  0.00    -0.771 OA
HETATM   17  H4  UNK     1      -2.645  -1.490   3.492  1.00  0.00     0.167 HD
ENDBRANCH  14  16
ENDBRANCH  10  14
TORSDOF 2
