REMARK  4 active torsions:
REMARK  status: ('A' for Active; 'I' for Inactive)
REMARK    1  A    between atoms: C11_18  and  N1_5 
REMARK    2  A    between atoms: C4_11  and  N1_5 
REMARK    3  A    between atoms: C11_18  and  N2_6 
REMARK    4  A    between atoms: C12_19  and  N2_6 
ROOT
HETATM    1  N1  UNK     1      -1.179  -0.541  -2.377  1.00  0.00    -0.333 N 
HETATM    2  H8  UNK     1      -1.513  -0.638  -3.334  1.00  0.00     0.168 HD
ENDROOT
BRANCH   1   3
HETATM    3  C11 UNK     1      -2.082  -1.033  -1.425  1.00  0.00     0.177 C 
HETATM    4  S1  UNK     1      -3.311  -2.047  -1.976  1.00  0.00    -0.040 SA
BRANCH   3   5
HETATM    5  N2  UNK     1      -1.795  -0.725  -0.108  1.00  0.00    -0.318 N 
HETATM    6  H9  UNK     1      -1.065  -0.047   0.061  1.00  0.00     0.170 HD
BRANCH   5   7
HETATM    7  C12 UNK     1      -2.473  -1.050   1.094  1.00  0.00     0.129 A 
HETATM    8  N3  UNK     1      -3.668  -1.657   0.995  1.00  0.00    -0.242 NA
HETATM    9  C16 UNK     1      -4.276  -1.948   2.167  1.00  0.00     0.138 A 
HETATM   10  C15 UNK     1      -3.741  -1.658   3.412  1.00  0.00     0.028 A 
HETATM   11 Br1  UNK     1      -4.661  -2.104   4.993  1.00  0.00    -0.050 Br
HETATM   12  C14 UNK     1      -2.501  -1.030   3.457  1.00  0.00     0.024 A 
HETATM   13  C13 UNK     1      -1.845  -0.714   2.273  1.00  0.00     0.052 A 
ENDBRANCH   5   7
ENDBRANCH   3   5
ENDBRANCH   1   3
BRANCH   1  14
HETATM   14  C4  UNK     1      -0.017   0.220  -2.253  1.00  0.00     0.036 A 
HETATM   15  C6  UNK     1       0.793   0.081  -1.131  1.00  0.00     0.067 A 
HETATM   16  C2  UNK     1       1.953   0.852  -1.028  1.00  0.00     0.092 A 
HETATM   17  C1  UNK     1       2.333   1.763  -2.015  1.00  0.00     0.004 A 
HETATM   18  O1  UNK     1       2.733   0.667   0.131  1.00  0.00    -0.275 OA
HETATM   19  C3  UNK     1       3.569   2.532  -1.824  1.00  0.00    -0.043 A 
HETATM   20  C5  UNK     1       1.503   1.888  -3.138  1.00  0.00     0.017 A 
HETATM   21  C8  UNK     1       4.291   2.336  -0.712  1.00  0.00     0.090 A 
HETATM   22  C9  UNK     1       4.005   3.520  -2.867  1.00  0.00     0.049 C 
HETATM   23  C10 UNK     1       3.904   1.378   0.338  1.00  0.00     0.288 A 
HETATM   24  O2  UNK     1       4.590   1.225   1.343  1.00  0.00    -0.260 OA
HETATM   25  C7  UNK     1       0.338   1.122  -3.255  1.00  0.00     0.030 A 
ENDBRANCH   1  14
TORSDOF 4
