REMARK  3 active torsions:
REMARK  status: ('A' for Active; 'I' for Inactive)
REMARK    1  A    between atoms: C9_16  and  O2_2 
REMARK       I    between atoms: C10_17  and  N1_5 
REMARK    2  A    between atoms: C4_11  and  N1_5 
REMARK    3  A    between atoms: C10_17  and  C5_12 
ROOT
HETATM    1  O3  UNK     1      -0.852  -1.575  -1.119  1.00  0.00    -0.267 OA
HETATM    2  N1  UNK     1      -1.040  -0.147   0.744  1.00  0.00    -0.323 N 
HETATM    3  C10 UNK     1      -0.476  -0.629  -0.429  1.00  0.00     0.262 C 
HETATM    4  H3  UNK     1      -0.597   0.655   1.187  1.00  0.00     0.169 HD
ENDROOT
BRANCH   3   5
HETATM    5  C5  UNK     1       0.710   0.139  -0.828  1.00  0.00     0.108 A 
HETATM    6  C14 UNK     1       1.905   0.246   0.039  1.00  0.00     0.304 A 
HETATM    7  O1  UNK     1       2.966   1.002  -0.451  1.00  0.00    -0.271 OA
HETATM    8  O4  UNK     1       1.962  -0.301   1.135  1.00  0.00    -0.259 OA
HETATM    9  C2  UNK     1       2.911   1.635  -1.708  1.00  0.00     0.123 A 
HETATM   10  C1  UNK     1       1.778   1.521  -2.507  1.00  0.00     0.002 A 
HETATM   11  C9  UNK     1       4.023   2.370  -2.113  1.00  0.00     0.102 A 
HETATM   12  C7  UNK     1       0.652   0.737  -2.024  1.00  0.00     0.037 A 
HETATM   13  C13 UNK     1       1.760   2.164  -3.747  1.00  0.00     0.014 A 
HETATM   14  C17 UNK     1       2.869   2.905  -4.167  1.00  0.00     0.004 A 
HETATM   15  C16 UNK     1       3.997   3.008  -3.351  1.00  0.00     0.040 A 
BRANCH  11  16
HETATM   16  O2  UNK     1       5.125   2.472  -1.322  1.00  0.00    -0.353 OA
HETATM   17  C18 UNK     1       6.215   3.247  -1.821  1.00  0.00     0.210 C 
ENDBRANCH  11  16
ENDBRANCH   3   5
BRANCH   2  18
HETATM   18  C4  UNK     1      -2.185  -0.639   1.417  1.00  0.00     0.035 A 
HETATM   19  C11 UNK     1      -2.610  -0.023   2.596  1.00  0.00     0.032 A 
HETATM   20  C12 UNK     1      -3.736  -0.480   3.287  1.00  0.00     0.034 A 
HETATM   21  C6  UNK     1      -4.410  -1.577   2.745  1.00  0.00     0.062 A 
HETATM   22  C3  UNK     1      -4.009  -2.209   1.574  1.00  0.00     0.013 A 
HETATM   23  N2  UNK     1      -5.522  -2.259   3.160  1.00  0.00    -0.278 N 
HETATM   24  C15 UNK     1      -4.952  -3.245   1.395  1.00  0.00     0.152 A 
HETATM   25  C8  UNK     1      -2.876  -1.738   0.890  1.00  0.00     0.044 A 
HETATM   26  N3  UNK     1      -5.874  -3.278   2.359  1.00  0.00    -0.186 NA
HETATM   27  H10 UNK     1      -6.086  -2.079   3.982  1.00  0.00     0.189 HD
ENDBRANCH   2  18
TORSDOF 3
