REMARK  4 active torsions:
REMARK  status: ('A' for Active; 'I' for Inactive)
REMARK    1  A    between atoms: C11_18  and  O2_2 
REMARK    2  A    between atoms: C3_10  and  O2_2 
REMARK       I    between atoms: C10_17  and  N1_6 
REMARK    3  A    between atoms: C12_19  and  N1_6 
REMARK    4  A    between atoms: C10_17  and  C5_12 
ROOT
HETATM    1  O1  UNK     1       0.859   0.742  -1.818  1.00  0.00    -0.271 OA
HETATM    2  O4  UNK     1      -1.296  -0.004  -1.689  1.00  0.00    -0.259 OA
HETATM    3  C1  UNK     1       2.152   1.036   0.220  1.00  0.00     0.002 A 
HETATM    4  C2  UNK     1       2.055   1.103  -1.166  1.00  0.00     0.123 A 
HETATM    5  C3  UNK     1       3.122   1.524  -1.957  1.00  0.00     0.103 A 
HETATM    6  C4  UNK     1       0.999   0.589   0.986  1.00  0.00     0.037 A 
HETATM    7  C5  UNK     1      -0.134   0.246   0.361  1.00  0.00     0.108 A 
HETATM    8  C6  UNK     1       3.354   1.402   0.830  1.00  0.00     0.014 A 
HETATM    9  C7  UNK     1       4.317   1.887  -1.341  1.00  0.00     0.040 A 
HETATM   10  C8  UNK     1      -0.260   0.309  -1.112  1.00  0.00     0.304 A 
HETATM   11  C9  UNK     1       4.434   1.827   0.049  1.00  0.00     0.004 A 
ENDROOT
BRANCH   7  12
HETATM   12  C10 UNK     1      -1.241  -0.192   1.219  1.00  0.00     0.263 C 
HETATM   13  O5  UNK     1      -1.343   0.257   2.360  1.00  0.00    -0.267 OA
HETATM   14  N1  UNK     1      -2.064  -1.109   0.581  1.00  0.00    -0.305 N 
HETATM   15  H5  UNK     1      -1.848  -1.409  -0.366  1.00  0.00     0.170 HD
BRANCH  14  16
HETATM   16  C12 UNK     1      -3.206  -1.729   1.104  1.00  0.00     0.160 A 
HETATM   17  N2  UNK     1      -3.926  -2.595   0.406  1.00  0.00    -0.110 NA
HETATM   18  O3  UNK     1      -4.948  -2.966   1.272  1.00  0.00    -0.216 OA
HETATM   19  C14 UNK     1      -4.798  -2.309   2.450  1.00  0.00     0.078 A 
HETATM   20  C13 UNK     1      -3.693  -1.502   2.391  1.00  0.00     0.087 A 
HETATM   21  C16 UNK     1      -5.799  -2.585   3.488  1.00  0.00     0.079 C 
ENDBRANCH  14  16
ENDBRANCH   7  12
BRANCH   5  22
HETATM   22  O2  UNK     1       3.013   1.584  -3.311  1.00  0.00    -0.349 OA
BRANCH  22  23
HETATM   23  C11 UNK     1       3.794   2.572  -3.983  1.00  0.00     0.171 C 
HETATM   24  C15 UNK     1       3.075   2.994  -5.247  1.00  0.00     0.034 C 
ENDBRANCH  22  23
ENDBRANCH   5  22
TORSDOF 4
