REMARK  1 active torsions:
REMARK  status: ('A' for Active; 'I' for Inactive)
REMARK    1  A    between atoms: C3_7  and  O3_3 
ROOT
HETATM    1  O1  UNK     1       1.144   1.160  -3.078  1.00  0.00    -0.322 OA
HETATM    2  O2  UNK     1      -2.398  -0.793  -0.423  1.00  0.00    -0.275 OA
HETATM    3  O4  UNK     1      -4.012  -1.711   0.919  1.00  0.00    -0.260 OA
HETATM    4  C1  UNK     1       1.456   0.789  -0.871  1.00  0.00     0.034 A 
HETATM    5  C2  UNK     1      -0.249  -0.183   0.547  1.00  0.00     0.032 A 
HETATM    6  C3  UNK     1       1.043   0.347   0.401  1.00  0.00     0.094 A 
HETATM    7  C4  UNK     1       0.568   0.685  -1.937  1.00  0.00     0.090 A 
HETATM    8  C5  UNK     1      -1.095  -0.262  -0.560  1.00  0.00     0.095 A 
HETATM    9  C6  UNK     1      -0.721   0.167  -1.837  1.00  0.00     0.076 A 
HETATM   10  C7  UNK     1       2.638   1.363  -1.409  1.00  0.00     0.041 A 
HETATM   11  C8  UNK     1      -0.735  -0.656   1.834  1.00  0.00     0.023 A 
HETATM   12  C9  UNK     1       2.397   1.568  -2.747  1.00  0.00     0.143 A 
HETATM   13  C10 UNK     1      -1.967  -1.156   1.949  1.00  0.00     0.083 A 
HETATM   14  C11 UNK     1      -2.882  -1.251   0.798  1.00  0.00     0.288 A 
ENDROOT
BRANCH   6  15
HETATM   15  O3  UNK     1       1.895   0.436   1.468  1.00  0.00    -0.354 OA
HETATM   16  C12 UNK     1       1.849   1.640   2.227  1.00  0.00     0.210 C 
ENDBRANCH   6  15
TORSDOF 1
