REMARK  4 active torsions:
REMARK  status: ('A' for Active; 'I' for Inactive)
REMARK    1  A    between atoms: C14_20  and  O3_3 
REMARK    2  A    between atoms: C12_18  and  N1_5 
REMARK       I    between atoms: C15_21  and  N1_5 
REMARK    3  A    between atoms: C10_16  and  C6_12 
REMARK    4  A    between atoms: C13_19  and  C15_21 
ROOT
HETATM    1  N2  UNK     1       1.155   0.620   1.780  1.00  0.00    -0.191 NA
HETATM    2  C10 UNK     1      -0.570  -0.707  -0.949  1.00  0.00     0.045 C 
HETATM    3  C13 UNK     1       0.488   0.077  -0.662  1.00  0.00     0.113 C 
HETATM    4  C20 UNK     1       0.853   0.374   0.687  1.00  0.00     0.105 C 
ENDROOT
BRANCH   3   5
HETATM    5  C15 UNK     1       1.266   0.634  -1.836  1.00  0.00     0.266 C 
HETATM    6  O4  UNK     1       0.933   0.363  -2.986  1.00  0.00    -0.267 OA
HETATM    7  N1  UNK     1       2.338   1.438  -1.462  1.00  0.00    -0.320 N 
HETATM    8  H9  UNK     1       2.513   1.591  -0.472  1.00  0.00     0.169 HD
BRANCH   7   9
HETATM    9  C12 UNK     1       3.255   2.104  -2.314  1.00  0.00     0.068 A 
HETATM   10  C14 UNK     1       4.275   2.866  -1.770  1.00  0.00     0.095 A 
HETATM   11  C17 UNK     1       5.169   3.515  -2.622  1.00  0.00     0.039 A 
HETATM   12  C19 UNK     1       5.029   3.392  -4.004  1.00  0.00     0.003 A 
HETATM   13  C18 UNK     1       3.996   2.621  -4.535  1.00  0.00     0.002 A 
HETATM   14  C16 UNK     1       3.102   1.972  -3.684  1.00  0.00     0.032 A 
BRANCH  10  15
HETATM   15  O3  UNK     1       4.429   2.998  -0.422  1.00  0.00    -0.354 OA
HETATM   16  C21 UNK     1       5.257   2.039   0.232  1.00  0.00     0.210 C 
ENDBRANCH  10  15
ENDBRANCH   7   9
ENDBRANCH   3   5
BRANCH   2  17
HETATM   17  C6  UNK     1      -1.451  -1.339  -0.004  1.00  0.00     0.039 A 
HETATM   18  C5  UNK     1      -2.675  -0.639   0.473  1.00  0.00     0.197 A 
HETATM   19  C1  UNK     1      -3.514  -1.371   1.441  1.00  0.00     0.049 A 
HETATM   20  O2  UNK     1      -2.982   0.482   0.089  1.00  0.00    -0.286 OA
HETATM   21  C2  UNK     1      -3.124  -2.646   1.849  1.00  0.00     0.089 A 
HETATM   22  C3  UNK     1      -4.684  -0.798   1.945  1.00  0.00     0.025 A 
HETATM   23  O1  UNK     1      -1.986  -3.256   1.387  1.00  0.00    -0.321 OA
HETATM   24  C7  UNK     1      -3.902  -3.356   2.764  1.00  0.00     0.039 A 
HETATM   25  C9  UNK     1      -1.215  -2.565   0.484  1.00  0.00     0.158 A 
HETATM   26  C8  UNK     1      -5.071  -2.787   3.269  1.00  0.00     0.009 A 
HETATM   27  C4  UNK     1      -5.461  -1.511   2.860  1.00  0.00    -0.061 A 
HETATM   28  C11 UNK     1      -6.713  -0.907   3.402  1.00  0.00     0.048 C 
ENDBRANCH   2  17
TORSDOF 4
