REMARK  5 active torsions:
REMARK  status: ('A' for Active; 'I' for Inactive)
REMARK    1  A    between atoms: C17_25  and  O2_5 
REMARK    2  A    between atoms: C5_13  and  O2_5 
REMARK    3  A    between atoms: C10_18  and  N1_8 
REMARK       I    between atoms: C9_17  and  N1_8 
REMARK    4  A    between atoms: C3_11  and  C9_17 
REMARK    5  A    between atoms: C12_20  and  C18_26 
ROOT
HETATM    1  O1  UNK     1       2.041   0.830  -2.313  1.00  0.00    -0.271 OA
HETATM    2  O3  UNK     1       0.200  -0.497  -2.054  1.00  0.00    -0.259 OA
HETATM    3  C1  UNK     1       3.103   1.805  -0.356  1.00  0.00     0.002 A 
HETATM    4  C2  UNK     1       3.048   1.627  -1.734  1.00  0.00     0.123 A 
HETATM    5  C3  UNK     1       1.149   0.400  -0.077  1.00  0.00     0.108 A 
HETATM    6  C4  UNK     1       2.103   1.156   0.478  1.00  0.00     0.037 A 
HETATM    7  C5  UNK     1       3.975   2.221  -2.588  1.00  0.00     0.103 A 
HETATM    8  C6  UNK     1       4.116   2.602   0.181  1.00  0.00     0.014 A 
HETATM    9  C7  UNK     1       1.072   0.195  -1.541  1.00  0.00     0.304 A 
HETATM   10  C8  UNK     1       4.983   3.014  -2.045  1.00  0.00     0.040 A 
HETATM   11  C11 UNK     1       5.054   3.205  -0.663  1.00  0.00     0.004 A 
ENDROOT
BRANCH   5  12
HETATM   12  C9  UNK     1       0.187  -0.213   0.846  1.00  0.00     0.262 C 
HETATM   13  O4  UNK     1       0.538  -0.505   1.988  1.00  0.00    -0.267 OA
HETATM   14  N1  UNK     1      -1.061  -0.388   0.263  1.00  0.00    -0.323 N 
HETATM   15  H5  UNK     1      -1.196  -0.071  -0.694  1.00  0.00     0.169 HD
BRANCH  14  16
HETATM   16  C10 UNK     1      -2.220  -0.946   0.854  1.00  0.00     0.035 A 
HETATM   17  C13 UNK     1      -3.382  -1.038   0.108  1.00  0.00     0.030 A 
HETATM   18  C15 UNK     1      -4.525  -1.588   0.690  1.00  0.00     0.018 A 
HETATM   19  C12 UNK     1      -4.487  -2.037   2.010  1.00  0.00     0.048 A 
HETATM   20  C16 UNK     1      -3.308  -1.936   2.748  1.00  0.00     0.018 A 
HETATM   21  C14 UNK     1      -2.166  -1.387   2.165  1.00  0.00     0.030 A 
BRANCH  19  22
HETATM   22  C18 UNK     1      -5.708  -2.625   2.633  1.00  0.00     0.417 C 
HETATM   23  F1  UNK     1      -6.787  -2.661   1.796  1.00  0.00    -0.166 F 
HETATM   24  F2  UNK     1      -5.540  -3.914   3.053  1.00  0.00    -0.166 F 
HETATM   25  F3  UNK     1      -6.122  -1.932   3.734  1.00  0.00    -0.166 F 
ENDBRANCH  19  22
ENDBRANCH  14  16
ENDBRANCH   5  12
BRANCH   7  26
HETATM   26  O2  UNK     1       3.910   2.038  -3.934  1.00  0.00    -0.349 OA
BRANCH  26  27
HETATM   27  C17 UNK     1       4.391   3.099  -4.759  1.00  0.00     0.171 C 
HETATM   28  C19 UNK     1       3.633   3.088  -6.069  1.00  0.00     0.034 C 
ENDBRANCH  26  27
ENDBRANCH   7  26
TORSDOF 5
