REMARK  3 active torsions:
REMARK  status: ('A' for Active; 'I' for Inactive)
REMARK    1  A    between atoms: C10_15  and  O2_3 
REMARK    2  A    between atoms: C11_16  and  O2_3 
REMARK    3  A    between atoms: C10_15  and  C4_9 
ROOT
HETATM    1 Br1  UNK     1       5.046   2.252  -1.183  1.00  0.00    -0.051 Br
HETATM    2  O1  UNK     1      -0.639   0.262  -1.910  1.00  0.00    -0.274 OA
HETATM    3  O3  UNK     1      -2.587  -0.543  -1.029  1.00  0.00    -0.259 OA
HETATM    4  C1  UNK     1       1.223   0.778  -0.434  1.00  0.00     0.000 A 
HETATM    5  C2  UNK     1       0.679   0.720  -1.713  1.00  0.00     0.089 A 
HETATM    6  C3  UNK     1       0.410   0.358   0.696  1.00  0.00     0.038 A 
HETATM    7  C4  UNK     1      -0.841  -0.076   0.503  1.00  0.00     0.115 A 
HETATM    8  C5  UNK     1       2.533   1.238  -0.280  1.00  0.00     0.033 A 
HETATM    9  C6  UNK     1       1.404   1.108  -2.838  1.00  0.00     0.039 A 
HETATM   10  C7  UNK     1      -1.441  -0.146  -0.848  1.00  0.00     0.304 A 
HETATM   11  C8  UNK     1       3.274   1.630  -1.399  1.00  0.00     0.011 A 
HETATM   12  C9  UNK     1       2.710   1.565  -2.675  1.00  0.00     0.022 A 
ENDROOT
BRANCH   7  13
HETATM   13  C10 UNK     1      -1.582  -0.476   1.705  1.00  0.00     0.299 C 
HETATM   14  O4  UNK     1      -1.395   0.015   2.806  1.00  0.00    -0.259 OA
BRANCH  13  15
HETATM   15  O2  UNK     1      -2.465  -1.448   1.365  1.00  0.00    -0.318 OA
BRANCH  15  16
HETATM   16  C11 UNK     1      -3.269  -1.946   2.440  1.00  0.00     0.174 C 
HETATM   17  C12 UNK     1      -4.197  -3.016   1.906  1.00  0.00     0.034 C 
ENDBRANCH  15  16
ENDBRANCH  13  15
ENDBRANCH   7  13
TORSDOF 3
