REMARK  2 active torsions:
REMARK  status: ('A' for Active; 'I' for Inactive)
REMARK    1  A    between atoms: C10_15  and  O3_4 
REMARK    2  A    between atoms: C10_15  and  C6_11 
ROOT
HETATM    1 Br1  UNK     1       3.823   2.212  -2.444  1.00  0.00    -0.051 Br
HETATM    2  O1  UNK     1      -0.366  -0.165   1.220  1.00  0.00    -0.303 OA
HETATM    3  O2  UNK     1      -1.167  -0.080  -2.778  1.00  0.00    -0.287 OA
HETATM    4  C1  UNK     1       0.343   0.424  -1.029  1.00  0.00     0.049 A 
HETATM    5  C2  UNK     1       0.554   0.364   0.349  1.00  0.00     0.090 A 
HETATM    6  C3  UNK     1      -0.918  -0.101  -1.580  1.00  0.00     0.187 A 
HETATM    7  C4  UNK     1       1.315   0.974  -1.868  1.00  0.00     0.037 A 
HETATM    8  C5  UNK     1       1.740   0.855   0.896  1.00  0.00     0.039 A 
HETATM    9  C6  UNK     1      -1.543  -0.654   0.693  1.00  0.00     0.153 A 
HETATM   10  C7  UNK     1      -1.874  -0.660  -0.604  1.00  0.00     0.100 A 
HETATM   11  C8  UNK     1       2.500   1.464  -1.318  1.00  0.00     0.012 A 
HETATM   12  C9  UNK     1       2.712   1.405   0.060  1.00  0.00     0.022 A 
ENDROOT
BRANCH   9  13
HETATM   13  C10 UNK     1      -2.510  -1.215   1.638  1.00  0.00     0.201 C 
HETATM   14  O4  UNK     1      -3.590  -1.684   1.324  1.00  0.00    -0.645 OA
BRANCH  13  15
HETATM   15  O3  UNK     1      -2.020  -1.130   2.893  1.00  0.00    -0.771 OA
HETATM   16  H5  UNK     1      -2.642  -1.497   3.557  1.00  0.00     0.167 HD
ENDBRANCH  13  15
ENDBRANCH   9  13
TORSDOF 2
