REMARK  8 active torsions:
REMARK  status: ('A' for Active; 'I' for Inactive)
REMARK    1  A    between atoms: C27_34  and  O4_4 
REMARK    2  A    between atoms: C28_35  and  O4_4 
REMARK    3  A    between atoms: C5_12  and  N1_5 
REMARK    4  A    between atoms: C6_13  and  N2_6 
REMARK    5  A    between atoms: C5_12  and  C7_14 
REMARK    6  A    between atoms: C6_13  and  C8_15 
REMARK    7  A    between atoms: C14_21  and  C20_27 
REMARK    8  A    between atoms: C15_22  and  C21_28 
ROOT
HETATM    1  N1  UNK     1       2.616   0.640  -0.563  1.00  0.00     0.096 N 
HETATM    2  N2  UNK     1       0.928   0.285   1.758  1.00  0.00     0.097 N 
HETATM    3  C1  UNK     1       3.187   0.516   0.784  1.00  0.00     0.303 C 
HETATM    4  C2  UNK     1       1.345  -0.090  -0.649  1.00  0.00     0.303 C 
HETATM    5  C3  UNK     1       2.199   1.015   1.844  1.00  0.00     0.303 C 
HETATM    6  C4  UNK     1       0.356   0.407   0.411  1.00  0.00     0.303 C 
ENDROOT
BRANCH   2   7
HETATM    7  C6  UNK     1      -0.014   0.764   2.767  1.00  0.00     0.334 C 
BRANCH   7   8
HETATM    8  C8  UNK     1      -1.026  -0.302   3.041  1.00  0.00     0.095 A 
HETATM    9  C11 UNK     1      -0.987  -1.312   3.969  1.00  0.00     0.078 A 
HETATM   10  O1  UNK     1      -2.134  -2.037   3.848  1.00  0.00    -0.294 OA
HETATM   11  C18 UNK     1      -0.030  -1.743   4.993  1.00  0.00     0.079 C 
HETATM   12  C15 UNK     1      -2.802  -1.410   2.842  1.00  0.00     0.180 A 
HETATM   13  N3  UNK     1      -2.192  -0.369   2.322  1.00  0.00    -0.224 NA
BRANCH  12  14
HETATM   14  C21 UNK     1      -4.075  -1.984   2.503  1.00  0.00     0.017 A 
HETATM   15  C23 UNK     1      -4.541  -3.104   3.191  1.00  0.00     0.018 A 
HETATM   16  C25 UNK     1      -5.777  -3.660   2.862  1.00  0.00     0.038 A 
HETATM   17  C27 UNK     1      -6.547  -3.096   1.845  1.00  0.00     0.068 A 
HETATM   18  C26 UNK     1      -6.082  -1.975   1.157  1.00  0.00     0.038 A 
HETATM   19  C24 UNK     1      -4.846  -1.419   1.486  1.00  0.00     0.018 A 
BRANCH  17  20
HETATM   20  O4  UNK     1      -7.753  -3.639   1.524  1.00  0.00    -0.352 OA
BRANCH  20  21
HETATM   21  C28 UNK     1      -8.751  -2.752   1.019  1.00  0.00     0.171 C 
HETATM   22  C29 UNK     1     -10.118  -3.283   1.394  1.00  0.00     0.034 C 
ENDBRANCH  20  21
ENDBRANCH  17  20
ENDBRANCH  12  14
ENDBRANCH   7   8
ENDBRANCH   2   7
BRANCH   1  23
HETATM   23  C5  UNK     1       3.558   0.164  -1.573  1.00  0.00     0.312 C 
BRANCH  23  24
HETATM   24  C7  UNK     1       3.285   0.747  -2.916  1.00  0.00    -0.011 A 
HETATM   25  C10 UNK     1       2.458   0.142  -3.779  1.00  0.00     0.092 A 
HETATM   26  C16 UNK     1       2.158   0.680  -5.117  1.00  0.00     0.288 A 
HETATM   27  O2  UNK     1       2.778   1.870  -5.462  1.00  0.00    -0.275 OA
HETATM   28  O3  UNK     1       1.394   0.099  -5.879  1.00  0.00    -0.260 OA
HETATM   29  C12 UNK     1       3.653   2.530  -4.576  1.00  0.00     0.090 A 
HETATM   30  C9  UNK     1       3.928   2.008  -3.312  1.00  0.00     0.007 A 
HETATM   31  C17 UNK     1       4.221   3.722  -5.031  1.00  0.00     0.039 A 
HETATM   32  C13 UNK     1       4.809   2.724  -2.490  1.00  0.00     0.022 A 
HETATM   33  C14 UNK     1       5.386   3.920  -2.932  1.00  0.00    -0.058 A 
HETATM   34  C19 UNK     1       5.093   4.418  -4.200  1.00  0.00     0.010 A 
BRANCH  33  35
HETATM   35  C20 UNK     1       6.322   4.666  -2.040  1.00  0.00     0.034 C 
HETATM   36  C22 UNK     1       5.598   5.679  -1.157  1.00  0.00     0.010 C 
ENDBRANCH  33  35
ENDBRANCH  23  24
ENDBRANCH   1  23
TORSDOF 8
