REMARK  6 active torsions:
REMARK  status: ('A' for Active; 'I' for Inactive)
REMARK    1  A    between atoms: C11_19  and  S1_2 
REMARK    2  A    between atoms: O2_4  and  S1_2 
REMARK    3  A    between atoms: C2_10  and  O2_4 
REMARK    4  A    between atoms: C12_20  and  O3_5 
REMARK    5  A    between atoms: C22_30  and  O3_5 
REMARK    6  A    between atoms: C1_9  and  C4_12 
ROOT
HETATM    1  O1  UNK     1       1.139  -3.692   2.200  1.00  0.00    -0.306 OA
HETATM    2  O4  UNK     1      -0.126  -3.561  -1.671  1.00  0.00    -0.284 OA
HETATM    3  C1  UNK     1       0.678  -2.516   1.629  1.00  0.00     0.125 A 
HETATM    4  C2  UNK     1       0.253  -2.401   0.358  1.00  0.00     0.175 A 
HETATM    5  C3  UNK     1       0.726  -4.853   0.109  1.00  0.00     0.051 A 
HETATM    6  C5  UNK     1       1.148  -4.830   1.436  1.00  0.00     0.090 A 
HETATM    7  C6  UNK     1       0.250  -3.604  -0.507  1.00  0.00     0.222 A 
HETATM    8  C7  UNK     1       0.758  -6.043  -0.622  1.00  0.00     0.018 A 
HETATM    9  C10 UNK     1       1.606  -6.000   2.043  1.00  0.00     0.038 A 
HETATM   10  C15 UNK     1       1.216  -7.212  -0.013  1.00  0.00     0.001 A 
HETATM   11  C16 UNK     1       1.639  -7.191   1.317  1.00  0.00     0.003 A 
ENDROOT
BRANCH   4  12
HETATM   12  O2  UNK     1      -0.169  -1.208  -0.188  1.00  0.00    -0.222 OA
BRANCH  12  13
HETATM   13  S1  UNK     1       0.903  -0.235  -0.924  1.00  0.00     0.303 S 
HETATM   14  O5  UNK     1       1.827   0.294   0.060  1.00  0.00    -0.193 OA
HETATM   15  O6  UNK     1       1.373  -0.903  -2.124  1.00  0.00    -0.193 OA
BRANCH  13  16
HETATM   16  C11 UNK     1      -0.079   1.135  -1.450  1.00  0.00     0.086 A 
HETATM   17  C17 UNK     1      -0.241   2.218  -0.602  1.00  0.00     0.027 A 
HETATM   18  C19 UNK     1      -1.017   3.300  -1.017  1.00  0.00     0.020 A 
HETATM   19  C21 UNK     1      -1.620   3.285  -2.275  1.00  0.00     0.011 A 
HETATM   20 Br1  UNK     1      -2.669   4.752  -2.837  1.00  0.00    -0.051 Br
HETATM   21  C20 UNK     1      -1.447   2.186  -3.117  1.00  0.00     0.020 A 
HETATM   22  C18 UNK     1      -0.671   1.104  -2.702  1.00  0.00     0.027 A 
ENDBRANCH  13  16
ENDBRANCH  12  13
ENDBRANCH   4  12
BRANCH   3  23
HETATM   23  C4  UNK     1       0.720  -1.372   2.557  1.00  0.00     0.001 A 
HETATM   24  C8  UNK     1      -0.388  -1.076   3.351  1.00  0.00     0.017 A 
HETATM   25  C13 UNK     1      -0.349   0.008   4.228  1.00  0.00     0.037 A 
HETATM   26  C12 UNK     1       0.799   0.796   4.311  1.00  0.00     0.068 A 
HETATM   27  C14 UNK     1       1.907   0.501   3.517  1.00  0.00     0.037 A 
HETATM   28  C9  UNK     1       1.867  -0.583   2.640  1.00  0.00     0.017 A 
BRANCH  26  29
HETATM   29  O3  UNK     1       0.837   1.854   5.167  1.00  0.00    -0.352 OA
BRANCH  29  30
HETATM   30  C22 UNK     1      -0.399   2.512   5.441  1.00  0.00     0.171 C 
HETATM   31  C23 UNK     1      -0.123   3.968   5.753  1.00  0.00     0.034 C 
ENDBRANCH  29  30
ENDBRANCH  26  29
ENDBRANCH   3  23
TORSDOF 6
