REMARK  2 active torsions:
REMARK  status: ('A' for Active; 'I' for Inactive)
REMARK    1  A    between atoms: C15_21  and  O5_5 
REMARK       I    between atoms: C7_13  and  N1_6 
REMARK    2  A    between atoms: C7_13  and  C8_14 
ROOT
HETATM    1  O3  UNK     1       2.470   0.185   0.887  1.00  0.00    -0.274 OA
HETATM    2  O4  UNK     1       1.319  -0.538   2.724  1.00  0.00    -0.259 OA
HETATM    3  C8  UNK     1       0.048   0.498   1.013  1.00  0.00     0.108 A 
HETATM    4  C9  UNK     1       0.034   1.089  -0.187  1.00  0.00     0.037 A 
HETATM    5  C10 UNK     1       1.271   1.264  -0.932  1.00  0.00     0.002 A 
HETATM    6  C11 UNK     1       1.302   0.004   1.624  1.00  0.00     0.304 A 
HETATM    7  C12 UNK     1       2.462   0.807  -0.377  1.00  0.00     0.089 A 
HETATM    8  C13 UNK     1       1.304   1.876  -2.188  1.00  0.00     0.051 A 
HETATM    9  C14 UNK     1       3.681   0.944  -1.039  1.00  0.00     0.041 A 
HETATM   10  C15 UNK     1       2.519   2.021  -2.864  1.00  0.00     0.069 A 
HETATM   11  C16 UNK     1       3.705   1.555  -2.290  1.00  0.00     0.039 A 
ENDROOT
BRANCH   3  12
HETATM   12  C7  UNK     1      -1.257   0.368   1.691  1.00  0.00     0.260 C 
HETATM   13  O2  UNK     1      -1.610   1.287   2.432  1.00  0.00    -0.267 OA
HETATM   14  N1  UNK     1      -2.000  -0.784   1.451  1.00  0.00    -0.343 N 
HETATM   15  C3  UNK     1      -3.297  -0.952   2.106  1.00  0.00     0.157 C 
HETATM   16  C4  UNK     1      -1.598  -1.933   0.631  1.00  0.00     0.157 C 
HETATM   17  C1  UNK     1      -4.377  -1.360   1.104  1.00  0.00     0.136 C 
HETATM   18  O1  UNK     1      -3.952  -2.496   0.341  1.00  0.00    -0.378 OA
HETATM   19  C5  UNK     1      -4.825  -0.207   0.208  1.00  0.00     0.041 C 
HETATM   20  C2  UNK     1      -2.713  -2.301  -0.350  1.00  0.00     0.136 C 
HETATM   21  C6  UNK     1      -2.388  -3.597  -1.081  1.00  0.00     0.041 C 
ENDBRANCH   3  12
BRANCH  10  22
HETATM   22  O5  UNK     1       2.548   2.617  -4.088  1.00  0.00    -0.356 OA
HETATM   23  C17 UNK     1       3.819   2.732  -4.724  1.00  0.00     0.210 C 
ENDBRANCH  10  22
TORSDOF 2
