REMARK  3 active torsions:
REMARK  status: ('A' for Active; 'I' for Inactive)
REMARK    1  A    between atoms: C11_16  and  O3_3 
REMARK    2  A    between atoms: C19_24  and  O3_3 
REMARK    3  A    between atoms: C1_6  and  C3_8 
ROOT
HETATM    1  O1  UNK     1      -2.899  -1.541  -1.067  1.00  0.00    -0.275 OA
HETATM    2  O5  UNK     1      -2.970  -1.294  -3.337  1.00  0.00    -0.260 OA
HETATM    3  C1  UNK     1      -0.518   0.022  -1.077  1.00  0.00    -0.001 A 
HETATM    4  C2  UNK     1      -1.080  -0.496   0.186  1.00  0.00     0.009 A 
HETATM    5  C4  UNK     1      -2.248  -1.260   0.149  1.00  0.00     0.093 A 
HETATM    6  C7  UNK     1      -0.508  -0.258   1.445  1.00  0.00     0.018 A 
HETATM    7  C8  UNK     1      -1.173  -0.266  -2.213  1.00  0.00     0.096 A 
HETATM    8  C9  UNK     1      -2.838  -1.783   1.302  1.00  0.00     0.075 A 
HETATM    9  C11 UNK     1      -2.251  -1.538   2.537  1.00  0.00     0.071 A 
HETATM   10  C13 UNK     1      -1.088  -0.776   2.609  1.00  0.00     0.038 A 
HETATM   11  C14 UNK     1      -2.410  -1.065  -2.270  1.00  0.00     0.289 A 
ENDROOT
BRANCH   3  12
HETATM   12  C3  UNK     1       0.694   0.811  -1.176  1.00  0.00     0.052 A 
HETATM   13  C12 UNK     1       0.600   2.295  -1.090  1.00  0.00     0.299 A 
HETATM   14  O2  UNK     1       1.791   3.011  -1.190  1.00  0.00    -0.274 OA
HETATM   15  O4  UNK     1      -0.470   2.876  -0.937  1.00  0.00    -0.259 OA
HETATM   16  C10 UNK     1       3.034   2.376  -1.365  1.00  0.00     0.089 A 
HETATM   17  C6  UNK     1       3.110   0.991  -1.444  1.00  0.00    -0.001 A 
HETATM   18  C16 UNK     1       4.168   3.180  -1.454  1.00  0.00     0.038 A 
HETATM   19  C15 UNK     1       4.360   0.393  -1.617  1.00  0.00     0.014 A 
HETATM   20  C5  UNK     1       1.884   0.216  -1.342  1.00  0.00     0.032 A 
HETATM   21  C17 UNK     1       5.508   1.185  -1.709  1.00  0.00     0.001 A 
HETATM   22  C18 UNK     1       5.412   2.576  -1.628  1.00  0.00     0.003 A 
ENDBRANCH   3  12
BRANCH   9  23
HETATM   23  O3  UNK     1      -2.811  -2.038   3.672  1.00  0.00    -0.351 OA
BRANCH  23  24
HETATM   24  C19 UNK     1      -4.227  -2.211   3.676  1.00  0.00     0.171 C 
HETATM   25  C20 UNK     1      -4.739  -2.056   5.093  1.00  0.00     0.034 C 
ENDBRANCH  23  24
ENDBRANCH   9  23
TORSDOF 3
