REMARK  4 active torsions:
REMARK  status: ('A' for Active; 'I' for Inactive)
REMARK    1  A    between atoms: C11_17  and  O2_3 
REMARK    2  A    between atoms: C3_9  and  O2_3 
REMARK    3  A    between atoms: C17_23  and  O3_4 
REMARK    4  A    between atoms: C8_14  and  O3_4 
ROOT
HETATM    1  O1  UNK     1       0.178  -0.327  -2.453  1.00  0.00    -0.311 OA
HETATM    2  O4  UNK     1      -1.568   1.355   0.821  1.00  0.00    -0.284 OA
HETATM    3  C1  UNK     1       0.263   1.313  -0.665  1.00  0.00     0.051 A 
HETATM    4  C2  UNK     1       0.805   0.696  -1.790  1.00  0.00     0.092 A 
HETATM    5  C3  UNK     1      -1.677  -0.257  -0.911  1.00  0.00     0.156 A 
HETATM    6  C4  UNK     1      -1.039   0.852  -0.161  1.00  0.00     0.221 A 
HETATM    7  C5  UNK     1      -1.051  -0.769  -1.984  1.00  0.00     0.087 A 
HETATM    8  C6  UNK     1       0.948   2.352  -0.030  1.00  0.00     0.021 A 
HETATM    9  C7  UNK     1       2.040   1.115  -2.288  1.00  0.00     0.075 A 
HETATM   10  C8  UNK     1       2.727   2.152  -1.657  1.00  0.00     0.081 A 
HETATM   11  C9  UNK     1       2.182   2.769  -0.530  1.00  0.00     0.038 A 
HETATM   12  C10 UNK     1      -1.610  -1.889  -2.809  1.00  0.00     0.080 C 
ENDROOT
BRANCH   5  13
HETATM   13  O2  UNK     1      -2.898  -0.720  -0.473  1.00  0.00    -0.304 OA
BRANCH  13  14
HETATM   14  C11 UNK     1      -2.950  -1.222   0.798  1.00  0.00     0.076 A 
HETATM   15  C12 UNK     1      -1.956  -2.090   1.240  1.00  0.00     0.039 A 
HETATM   16  C14 UNK     1      -2.010  -2.603   2.536  1.00  0.00     0.026 A 
HETATM   17  C16 UNK     1      -3.058  -2.246   3.384  1.00  0.00     0.034 A 
HETATM   18  C15 UNK     1      -4.052  -1.375   2.937  1.00  0.00     0.026 A 
HETATM   19 Cl1  UNK     1      -3.126  -2.880   4.983  1.00  0.00    -0.084 Cl
HETATM   20  C13 UNK     1      -3.998  -0.862   1.641  1.00  0.00     0.039 A 
ENDBRANCH  13  14
ENDBRANCH   5  13
BRANCH  10  21
HETATM   21  O3  UNK     1       3.931   2.562  -2.141  1.00  0.00    -0.279 OA
BRANCH  21  22
HETATM   22  C17 UNK     1       5.032   1.885  -1.591  1.00  0.00     0.260 C 
HETATM   23  O5  UNK     1       4.978   0.998  -0.749  1.00  0.00    -0.265 OA
HETATM   24  C18 UNK     1       6.306   2.407  -2.186  1.00  0.00     0.126 C 
ENDBRANCH  21  22
ENDBRANCH  10  21
TORSDOF 4
