REMARK  7 active torsions:
REMARK  status: ('A' for Active; 'I' for Inactive)
REMARK    1  A    between atoms: C1_8  and  O1_1 
REMARK    2  A    between atoms: C25_32  and  O6_6 
REMARK    3  A    between atoms: C6_13  and  N1_7 
REMARK    4  A    between atoms: C1_8  and  C5_12 
REMARK    5  A    between atoms: C5_12  and  C9_16 
REMARK    6  A    between atoms: C10_17  and  C6_13 
REMARK    7  A    between atoms: C13_20  and  C9_16 
ROOT
HETATM    1  O2  UNK     1       1.626  -0.453   0.537  1.00  0.00    -0.269 OA
HETATM    2  N1  UNK     1       1.939   1.344  -0.963  1.00  0.00    -0.310 N 
HETATM    3  C1  UNK     1       0.694  -0.517  -1.736  1.00  0.00     0.175 A 
HETATM    4  C2  UNK     1       0.834   0.544  -2.792  1.00  0.00     0.013 A 
HETATM    5  C3  UNK     1       1.572   1.615  -2.288  1.00  0.00     0.047 A 
HETATM    6  C4  UNK     1       1.464   0.091  -0.546  1.00  0.00     0.264 A 
HETATM    7  C7  UNK     1       0.354   0.563  -4.091  1.00  0.00     0.013 A 
HETATM    8  C8  UNK     1       1.852   2.733  -3.054  1.00  0.00     0.030 A 
HETATM    9  C11 UNK     1       0.626   1.684  -4.879  1.00  0.00     0.001 A 
HETATM   10  C12 UNK     1       1.369   2.760  -4.364  1.00  0.00     0.002 A 
ENDROOT
BRANCH   3  11
HETATM   11  O1  UNK     1       1.363  -1.695  -2.145  1.00  0.00    -0.375 OA
HETATM   12  H7  UNK     1       1.396  -2.312  -1.396  1.00  0.00     0.211 HD
ENDBRANCH   3  11
BRANCH   3  13
HETATM   13  C5  UNK     1      -0.751  -0.814  -1.364  1.00  0.00     0.137 C 
BRANCH  13  14
HETATM   14  C9  UNK     1      -0.860  -1.876  -0.290  1.00  0.00     0.169 C 
HETATM   15  O3  UNK     1      -0.057  -2.794  -0.151  1.00  0.00    -0.292 OA
BRANCH  14  16
HETATM   16  C13 UNK     1      -2.016  -1.767   0.622  1.00  0.00     0.086 A 
HETATM   17  C16 UNK     1      -1.836  -2.233   1.863  1.00  0.00     0.035 A 
HETATM   18  C20 UNK     1      -2.917  -2.169   2.834  1.00  0.00     0.002 A 
HETATM   19  C23 UNK     1      -4.135  -1.618   2.450  1.00  0.00     0.123 A 
HETATM   20  C24 UNK     1      -2.773  -2.642   4.141  1.00  0.00     0.014 A 
HETATM   21  O4  UNK     1      -4.319  -1.130   1.142  1.00  0.00    -0.271 OA
HETATM   22  C25 UNK     1      -5.211  -1.528   3.332  1.00  0.00     0.102 A 
HETATM   23  C18 UNK     1      -3.303  -1.177   0.191  1.00  0.00     0.302 A 
HETATM   24  O5  UNK     1      -3.472  -0.749  -0.946  1.00  0.00    -0.259 OA
HETATM   25  C27 UNK     1      -5.059  -2.002   4.633  1.00  0.00     0.040 A 
HETATM   26  C26 UNK     1      -3.843  -2.558   5.037  1.00  0.00     0.004 A 
BRANCH  22  27
HETATM   27  O6  UNK     1      -6.396  -0.988   2.943  1.00  0.00    -0.353 OA
HETATM   28  C28 UNK     1      -7.364  -1.877   2.386  1.00  0.00     0.210 C 
ENDBRANCH  22  27
ENDBRANCH  14  16
ENDBRANCH  13  14
ENDBRANCH   3  13
BRANCH   2  29
HETATM   29  C6  UNK     1       2.718   2.252  -0.154  1.00  0.00     0.171 C 
BRANCH  29  30
HETATM   30  C10 UNK     1       4.058   2.540  -0.765  1.00  0.00    -0.034 A 
HETATM   31  C14 UNK     1       4.548   3.840  -0.823  1.00  0.00    -0.054 A 
HETATM   32  C17 UNK     1       5.796   4.085  -1.395  1.00  0.00     0.007 A 
HETATM   33  C19 UNK     1       3.760   4.989  -0.282  1.00  0.00     0.049 C 
HETATM   34  C22 UNK     1       6.548   3.027  -1.907  1.00  0.00     0.001 A 
HETATM   35  C21 UNK     1       6.052   1.725  -1.846  1.00  0.00     0.001 A 
HETATM   36  C15 UNK     1       4.803   1.481  -1.274  1.00  0.00     0.009 A 
ENDBRANCH  29  30
ENDBRANCH   2  29
TORSDOF 7
