REMARK  7 active torsions:
REMARK  status: ('A' for Active; 'I' for Inactive)
REMARK    1  A    between atoms: C10_15  and  O1_1 
REMARK    2  A    between atoms: C7_12  and  O1_1 
REMARK    3  A    between atoms: C15_20  and  O3_3 
REMARK    4  A    between atoms: C1_6  and  C2_7 
REMARK    5  A    between atoms: C2_7  and  C5_10 
REMARK    6  A    between atoms: C10_15  and  C12_17 
REMARK    7  A    between atoms: C10_15  and  C15_20 
ROOT
HETATM    1  O2  UNK     1      -3.194  -0.938  -0.886  1.00  0.00    -0.275 OA
HETATM    2  O4  UNK     1      -5.459  -1.245  -0.833  1.00  0.00    -0.260 OA
HETATM    3  C1  UNK     1      -3.127  -1.699   1.838  1.00  0.00    -0.039 A 
HETATM    4  C3  UNK     1      -1.886  -1.341   1.138  1.00  0.00     0.004 A 
HETATM    5  C4  UNK     1      -1.960  -0.970  -0.206  1.00  0.00     0.092 A 
HETATM    6  C6  UNK     1      -0.621  -1.348   1.742  1.00  0.00     0.017 A 
HETATM    7  C7  UNK     1       0.417  -0.630  -0.327  1.00  0.00     0.073 A 
HETATM    8  C8  UNK     1      -0.830  -0.616  -0.945  1.00  0.00     0.075 A 
HETATM    9  C9  UNK     1      -4.286  -1.658   1.167  1.00  0.00     0.090 A 
HETATM   10  C11 UNK     1       0.521  -0.996   1.014  1.00  0.00     0.038 A 
HETATM   11  C14 UNK     1      -4.380  -1.270  -0.251  1.00  0.00     0.288 A 
ENDROOT
BRANCH   7  12
HETATM   12  O1  UNK     1       1.531  -0.288  -1.029  1.00  0.00    -0.331 OA
BRANCH  12  13
HETATM   13  C10 UNK     1       1.571   1.026  -1.584  1.00  0.00     0.261 C 
BRANCH  13  14
HETATM   14  C12 UNK     1       2.758   1.758  -1.007  1.00  0.00    -0.019 A 
HETATM   15  C16 UNK     1       3.894   1.043  -0.658  1.00  0.00     0.010 A 
HETATM   16  C18 UNK     1       4.991   1.720  -0.125  1.00  0.00     0.001 A 
HETATM   17  C20 UNK     1       4.939   3.102   0.053  1.00  0.00     0.000 A 
HETATM   18  C19 UNK     1       3.790   3.808  -0.303  1.00  0.00     0.001 A 
HETATM   19  C17 UNK     1       2.692   3.132  -0.836  1.00  0.00     0.010 A 
ENDBRANCH  13  14
BRANCH  13  20
HETATM   20  C15 UNK     1       1.625   0.929  -3.096  1.00  0.00     0.292 C 
HETATM   21  O5  UNK     1       1.701  -0.123  -3.719  1.00  0.00    -0.262 OA
BRANCH  20  22
HETATM   22  O3  UNK     1       1.550   2.177  -3.645  1.00  0.00    -0.324 OA
HETATM   23  C21 UNK     1       1.562   2.224  -5.075  1.00  0.00     0.213 C 
ENDBRANCH  20  22
ENDBRANCH  13  20
ENDBRANCH  12  13
ENDBRANCH   7  12
BRANCH   3  24
HETATM   24  C2  UNK     1      -3.081  -2.101   3.284  1.00  0.00     0.039 C 
BRANCH  24  25
HETATM   25  C5  UNK     1      -3.239  -0.897   4.205  1.00  0.00     0.000 C 
HETATM   26  C13 UNK     1      -3.215  -1.320   5.666  1.00  0.00     0.005 C 
ENDBRANCH  24  25
ENDBRANCH   3  24
TORSDOF 7
