REMARK  5 active torsions:
REMARK  status: ('A' for Active; 'I' for Inactive)
REMARK    1  A    between atoms: C20_26  and  O3_3 
REMARK       I    between atoms: C12_18  and  N2_6 
REMARK    2  A    between atoms: C6_12  and  N2_6 
REMARK    3  A    between atoms: C1_7  and  C2_8 
REMARK    4  A    between atoms: C2_8  and  C6_12 
REMARK    5  A    between atoms: C12_18  and  C13_19 
ROOT
HETATM    1  O2  UNK     1      -0.707  -1.863  -2.627  1.00  0.00    -0.267 OA
HETATM    2  N2  UNK     1      -2.152  -0.690  -1.224  1.00  0.00    -0.356 N 
HETATM    3  C12 UNK     1      -0.995  -0.872  -1.959  1.00  0.00     0.257 C 
HETATM    4  H11 UNK     1      -2.283   0.156  -0.678  1.00  0.00     0.162 HD
ENDROOT
BRANCH   2   5
HETATM    5  C6  UNK     1      -3.203  -1.680  -1.150  1.00  0.00     0.127 C 
BRANCH   5   6
HETATM    6  C2  UNK     1      -3.005  -2.659   0.006  1.00  0.00     0.061 C 
BRANCH   6   7
HETATM    7  C1  UNK     1      -3.004  -1.984   1.355  1.00  0.00    -0.022 A 
HETATM    8  C3  UNK     1      -1.867  -1.478   2.007  1.00  0.00    -0.001 A 
HETATM    9  C5  UNK     1      -2.321  -0.945   3.215  1.00  0.00     0.043 A 
HETATM   10  C7  UNK     1      -0.492  -1.409   1.709  1.00  0.00     0.014 A 
HETATM   11  N1  UNK     1      -3.683  -1.139   3.258  1.00  0.00    -0.359 N 
HETATM   12  C9  UNK     1      -1.464  -0.344   4.145  1.00  0.00     0.030 A 
HETATM   13  C4  UNK     1      -4.105  -1.775   2.122  1.00  0.00     0.013 A 
HETATM   14  H5  UNK     1      -4.280  -0.852   4.022  1.00  0.00     0.166 HD
HETATM   15  C8  UNK     1      -5.530  -2.103   1.918  1.00  0.00     0.068 C 
HETATM   16  C11 UNK     1      -0.104  -0.287   3.827  1.00  0.00     0.002 A 
HETATM   17  C10 UNK     1       0.377  -0.810   2.629  1.00  0.00     0.001 A 
ENDBRANCH   6   7
ENDBRANCH   5   6
ENDBRANCH   2   5
BRANCH   3  18
HETATM   18  C13 UNK     1      -0.083   0.275  -1.880  1.00  0.00     0.108 A 
HETATM   19  C15 UNK     1       1.223   0.001  -1.992  1.00  0.00     0.037 A 
HETATM   20  C14 UNK     1       2.205   1.072  -1.926  1.00  0.00     0.002 A 
HETATM   21  C16 UNK     1       1.764   2.379  -1.746  1.00  0.00     0.089 A 
HETATM   22  C18 UNK     1       3.577   0.833  -2.038  1.00  0.00     0.051 A 
HETATM   23  O1  UNK     1       0.389   2.661  -1.629  1.00  0.00    -0.274 OA
HETATM   24  C19 UNK     1       2.653   3.450  -1.674  1.00  0.00     0.041 A 
HETATM   25  C17 UNK     1      -0.574   1.658  -1.688  1.00  0.00     0.304 A 
HETATM   26  O4  UNK     1      -1.769   1.912  -1.584  1.00  0.00    -0.259 OA
HETATM   27  C21 UNK     1       4.019   3.203  -1.786  1.00  0.00     0.039 A 
HETATM   28  C20 UNK     1       4.480   1.897  -1.968  1.00  0.00     0.069 A 
BRANCH  28  29
HETATM   29  O3  UNK     1       5.817   1.660  -2.078  1.00  0.00    -0.356 OA
HETATM   30  C22 UNK     1       6.685   2.789  -1.999  1.00  0.00     0.210 C 
ENDBRANCH  28  29
ENDBRANCH   3  18
TORSDOF 5
