REMARK  1 active torsions:
REMARK  status: ('A' for Active; 'I' for Inactive)
REMARK    1  A    between atoms: C2_6  and  C4_8 
ROOT
HETATM    1  F1  UNK     1      -4.236  -2.090   2.646  1.00  0.00    -0.206 F 
HETATM    2  O1  UNK     1       0.364   0.112   0.587  1.00  0.00    -0.309 OA
HETATM    3  O2  UNK     1      -2.584  -0.927  -2.028  1.00  0.00    -0.287 OA
HETATM    4  C1  UNK     1      -1.848  -0.821   0.215  1.00  0.00     0.051 A 
HETATM    5  C2  UNK     1       0.502   0.295  -0.779  1.00  0.00     0.091 A 
HETATM    6  C3  UNK     1      -0.801  -0.442   1.055  1.00  0.00     0.090 A 
HETATM    7  C5  UNK     1      -1.705  -0.620  -1.235  1.00  0.00     0.187 A 
HETATM    8  C6  UNK     1      -0.432  -0.023  -1.689  1.00  0.00     0.093 A 
HETATM    9  C7  UNK     1      -3.013  -1.379   0.747  1.00  0.00     0.060 A 
HETATM   10  C8  UNK     1      -0.913  -0.620   2.434  1.00  0.00     0.041 A 
HETATM   11  C11 UNK     1      -3.122  -1.557   2.127  1.00  0.00     0.117 A 
HETATM   12  C12 UNK     1      -2.075  -1.178   2.968  1.00  0.00     0.045 A 
ENDROOT
BRANCH   5  13
HETATM   13  C4  UNK     1       1.749   0.880  -1.171  1.00  0.00     0.020 A 
HETATM   14  C10 UNK     1       2.815   0.024  -1.463  1.00  0.00     0.016 A 
HETATM   15  C14 UNK     1       4.050   0.544  -1.850  1.00  0.00     0.001 A 
HETATM   16  C15 UNK     1       4.226   1.924  -1.946  1.00  0.00     0.002 A 
HETATM   17  C13 UNK     1       3.167   2.784  -1.655  1.00  0.00     0.025 A 
HETATM   18  C9  UNK     1       1.932   2.264  -1.269  1.00  0.00     0.047 A 
HETATM   19 Cl1  UNK     1       0.653   3.374  -0.921  1.00  0.00    -0.083 Cl
ENDBRANCH   5  13
TORSDOF 1
