REMARK  9 active torsions:
REMARK  status: ('A' for Active; 'I' for Inactive)
REMARK    1  A    between atoms: C5_13  and  N1_7 
REMARK       I    between atoms: C7_15  and  N1_7 
REMARK    2  A    between atoms: C6_14  and  N2_8 
REMARK       I    between atoms: C8_16  and  N2_8 
REMARK    3  A    between atoms: C1_9  and  C2_10 
REMARK    4  A    between atoms: C1_9  and  C3_11 
REMARK    5  A    between atoms: C2_10  and  C4_12 
REMARK    6  A    between atoms: C3_11  and  C5_13 
REMARK    7  A    between atoms: C4_12  and  C6_14 
REMARK    8  A    between atoms: C7_15  and  C9_17 
REMARK    9  A    between atoms: C10_18  and  C8_16 
ROOT
HETATM    1  C1  UNK     1       2.380   1.894  -3.772  1.00  0.00     0.002 C 
ENDROOT
BRANCH   1   2
HETATM    2  C2  UNK     1       1.138   1.454  -4.550  1.00  0.00     0.002 C 
BRANCH   2   3
HETATM    3  C4  UNK     1       0.091   2.563  -4.705  1.00  0.00     0.020 C 
BRANCH   3   4
HETATM    4  C6  UNK     1      -0.502   3.074  -3.395  1.00  0.00     0.123 C 
BRANCH   4   5
HETATM    5  N2  UNK     1      -1.200   2.051  -2.667  1.00  0.00    -0.357 N 
HETATM    6  C8  UNK     1      -0.843   1.656  -1.388  1.00  0.00     0.257 C 
HETATM    7  O4  UNK     1       0.082   2.104  -0.720  1.00  0.00    -0.267 OA
HETATM    8  H14 UNK     1      -2.015   1.638  -3.111  1.00  0.00     0.162 HD
BRANCH   6   9
HETATM    9  C10 UNK     1      -1.711   0.592  -0.852  1.00  0.00     0.108 A 
HETATM   10  C12 UNK     1      -1.742  -0.552  -1.546  1.00  0.00     0.037 A 
HETATM   11  C14 UNK     1      -2.570  -1.660  -1.096  1.00  0.00    -0.001 A 
HETATM   12  C16 UNK     1      -3.325  -1.509   0.062  1.00  0.00     0.089 A 
HETATM   13  C20 UNK     1      -2.633  -2.872  -1.788  1.00  0.00     0.014 A 
HETATM   14  O2  UNK     1      -3.289  -0.302   0.788  1.00  0.00    -0.274 OA
HETATM   15  C22 UNK     1      -4.139  -2.531   0.546  1.00  0.00     0.038 A 
HETATM   16  C18 UNK     1      -2.506   0.775   0.383  1.00  0.00     0.304 A 
HETATM   17  O6  UNK     1      -2.481   1.822   1.021  1.00  0.00    -0.259 OA
HETATM   18  C26 UNK     1      -4.196  -3.736  -0.150  1.00  0.00     0.003 A 
HETATM   19  C24 UNK     1      -3.444  -3.907  -1.315  1.00  0.00     0.001 A 
ENDBRANCH   6   9
ENDBRANCH   4   5
ENDBRANCH   3   4
ENDBRANCH   2   3
ENDBRANCH   1   2
BRANCH   1  20
HETATM   20  C3  UNK     1       3.387   0.746  -3.642  1.00  0.00     0.020 C 
BRANCH  20  21
HETATM   21  C5  UNK     1       2.802  -0.465  -2.922  1.00  0.00     0.123 C 
BRANCH  21  22
HETATM   22  N1  UNK     1       2.348  -0.152  -1.594  1.00  0.00    -0.357 N 
HETATM   23  C7  UNK     1       3.160  -0.245  -0.476  1.00  0.00     0.257 C 
HETATM   24  O3  UNK     1       4.335  -0.594  -0.457  1.00  0.00    -0.267 OA
HETATM   25  H13 UNK     1       1.388   0.162  -1.494  1.00  0.00     0.162 HD
BRANCH  23  26
HETATM   26  C9  UNK     1       2.467   0.131   0.769  1.00  0.00     0.108 A 
HETATM   27  C11 UNK     1       1.391  -0.597   1.091  1.00  0.00     0.037 A 
HETATM   28  C13 UNK     1       0.641  -0.301   2.302  1.00  0.00    -0.001 A 
HETATM   29  C15 UNK     1       1.061   0.747   3.114  1.00  0.00     0.089 A 
HETATM   30  C19 UNK     1      -0.488  -1.034   2.676  1.00  0.00     0.014 A 
HETATM   31  O1  UNK     1       2.194   1.509   2.771  1.00  0.00    -0.274 OA
HETATM   32  C21 UNK     1       0.386   1.082   4.287  1.00  0.00     0.038 A 
HETATM   33  C17 UNK     1       2.932   1.250   1.619  1.00  0.00     0.304 A 
HETATM   34  O5  UNK     1       3.917   1.920   1.327  1.00  0.00    -0.259 OA
HETATM   35  C25 UNK     1      -0.738   0.346   4.653  1.00  0.00     0.003 A 
HETATM   36  C23 UNK     1      -1.175  -0.710   3.850  1.00  0.00     0.001 A 
ENDBRANCH  23  26
ENDBRANCH  21  22
ENDBRANCH  20  21
ENDBRANCH   1  20
TORSDOF 9
