REMARK  2 active torsions:
REMARK  status: ('A' for Active; 'I' for Inactive)
REMARK    1  A    between atoms: C4_8  and  O2_2 
REMARK    2  A    between atoms: C6_10  and  O3_3 
ROOT
HETATM    1  O1  UNK     1      -1.451  -0.624  -0.966  1.00  0.00    -0.272 OA
HETATM    2  O4  UNK     1      -3.434  -1.749  -0.803  1.00  0.00    -0.260 OA
HETATM    3  C1  UNK     1      -0.255  -0.009   1.074  1.00  0.00     0.007 A 
HETATM    4  C2  UNK     1      -0.353  -0.023  -0.318  1.00  0.00     0.126 A 
HETATM    5  C3  UNK     1      -1.324  -0.638   1.861  1.00  0.00    -0.043 A 
HETATM    6  C4  UNK     1       0.619   0.552  -1.140  1.00  0.00     0.136 A 
HETATM    7  C5  UNK     1       0.869   0.608   1.640  1.00  0.00     0.018 A 
HETATM    8  C6  UNK     1       1.726   1.160  -0.558  1.00  0.00     0.104 A 
HETATM    9  C7  UNK     1       1.851   1.188   0.829  1.00  0.00     0.040 A 
HETATM   10  C8  UNK     1      -2.356  -1.203   1.218  1.00  0.00     0.090 A 
HETATM   11  C9  UNK     1      -1.247  -0.641   3.359  1.00  0.00     0.049 C 
HETATM   12  C10 UNK     1      -2.474  -1.225  -0.250  1.00  0.00     0.288 A 
ENDROOT
BRANCH   6  13
HETATM   13  O2  UNK     1       0.488   0.517  -2.495  1.00  0.00    -0.351 OA
HETATM   14  C11 UNK     1      -0.200   1.605  -3.108  1.00  0.00     0.210 C 
ENDBRANCH   6  13
BRANCH   8  15
HETATM   15  O3  UNK     1       2.693   1.729  -1.330  1.00  0.00    -0.353 OA
HETATM   16  C12 UNK     1       3.778   0.895  -1.731  1.00  0.00     0.210 C 
ENDBRANCH   8  15
TORSDOF 2
