REMARK  6 active torsions:
REMARK  status: ('A' for Active; 'I' for Inactive)
REMARK    1  A    between atoms: C5_12  and  N1_5 
REMARK    2  A    between atoms: C6_13  and  N2_6 
REMARK    3  A    between atoms: C5_12  and  C7_14 
REMARK    4  A    between atoms: C6_13  and  C8_15 
REMARK    5  A    between atoms: C14_21  and  C20_27 
REMARK    6  A    between atoms: C16_23  and  C21_28 
ROOT
HETATM    1  N1  UNK     1      -1.566  -1.394  -0.225  1.00  0.00     0.096 N 
HETATM    2  N2  UNK     1      -0.237   0.166  -2.265  1.00  0.00     0.097 N 
HETATM    3  C1  UNK     1      -0.208  -0.873  -0.022  1.00  0.00     0.303 C 
HETATM    4  C2  UNK     1      -1.815  -1.635  -1.651  1.00  0.00     0.303 C 
HETATM    5  C3  UNK     1       0.013   0.405  -0.838  1.00  0.00     0.303 C 
HETATM    6  C4  UNK     1      -1.595  -0.356  -2.467  1.00  0.00     0.303 C 
ENDROOT
BRANCH   1   7
HETATM    7  C5  UNK     1      -1.775  -2.614   0.552  1.00  0.00     0.312 C 
BRANCH   7   8
HETATM    8  C7  UNK     1      -2.073  -2.326   1.982  1.00  0.00    -0.011 A 
HETATM    9  C10 UNK     1      -1.090  -2.230   2.888  1.00  0.00     0.092 A 
HETATM   10  C15 UNK     1      -1.334  -1.947   4.313  1.00  0.00     0.288 A 
HETATM   11  O2  UNK     1      -2.656  -1.776   4.696  1.00  0.00    -0.275 OA
HETATM   12  O3  UNK     1      -0.409  -1.865   5.112  1.00  0.00    -0.260 OA
HETATM   13  C12 UNK     1      -3.711  -1.871   3.766  1.00  0.00     0.090 A 
HETATM   14  C9  UNK     1      -3.463  -2.141   2.419  1.00  0.00     0.007 A 
HETATM   15  C17 UNK     1      -5.001  -1.682   4.264  1.00  0.00     0.039 A 
HETATM   16  C13 UNK     1      -4.567  -2.220   1.559  1.00  0.00     0.022 A 
HETATM   17  C14 UNK     1      -5.866  -2.032   2.044  1.00  0.00    -0.058 A 
HETATM   18  C19 UNK     1      -6.083  -1.764   3.394  1.00  0.00     0.010 A 
BRANCH  17  19
HETATM   19  C20 UNK     1      -7.027  -2.121   1.109  1.00  0.00     0.034 C 
HETATM   20  C22 UNK     1      -7.375  -0.771   0.488  1.00  0.00     0.010 C 
ENDBRANCH  17  19
ENDBRANCH   7   8
ENDBRANCH   1   7
BRANCH   2  21
HETATM   21  C6  UNK     1      -0.030   1.387  -3.040  1.00  0.00     0.334 C 
BRANCH  21  22
HETATM   22  C8  UNK     1       1.434   1.579  -3.274  1.00  0.00     0.095 A 
HETATM   23  C11 UNK     1       2.210   1.128  -4.312  1.00  0.00     0.078 A 
HETATM   24  O1  UNK     1       3.487   1.550  -4.096  1.00  0.00    -0.294 OA
HETATM   25  C18 UNK     1       1.964   0.340  -5.524  1.00  0.00     0.079 C 
HETATM   26  C16 UNK     1       3.401   2.238  -2.925  1.00  0.00     0.180 A 
HETATM   27  N3  UNK     1       2.203   2.290  -2.388  1.00  0.00    -0.224 NA
BRANCH  26  28
HETATM   28  C21 UNK     1       4.635   2.803  -2.455  1.00  0.00     0.019 A 
HETATM   29  C23 UNK     1       4.662   3.530  -1.264  1.00  0.00     0.039 A 
HETATM   30  C25 UNK     1       5.860   4.078  -0.809  1.00  0.00     0.035 A 
HETATM   31 Cl1  UNK     1       5.895   4.974   0.660  1.00  0.00    -0.084 Cl
HETATM   32  C27 UNK     1       7.033   3.901  -1.544  1.00  0.00     0.024 A 
HETATM   33  C26 UNK     1       7.006   3.175  -2.734  1.00  0.00     0.003 A 
HETATM   34  C24 UNK     1       5.807   2.626  -3.190  1.00  0.00     0.016 A 
ENDBRANCH  26  28
ENDBRANCH  21  22
ENDBRANCH   2  21
TORSDOF 6
