REMARK  6 active torsions:
REMARK  status: ('A' for Active; 'I' for Inactive)
REMARK    1  A    between atoms: C12_20  and  O2_3 
REMARK    2  A    between atoms: C6_14  and  O2_3 
REMARK    3  A    between atoms: C1_9  and  N1_7 
REMARK    4  A    between atoms: C3_11  and  N1_7 
REMARK    5  A    between atoms: C5_13  and  N2_8 
REMARK    6  A    between atoms: C3_11  and  C6_14 
ROOT
HETATM    1  O1  UNK     1       2.884   1.529  -3.112  1.00  0.00    -0.273 OA
HETATM    2  O3  UNK     1       1.271   0.940  -4.613  1.00  0.00    -0.257 OA
HETATM    3  C1  UNK     1       1.036   0.923  -1.005  1.00  0.00     0.081 A 
HETATM    4  C2  UNK     1       2.406   1.416  -0.709  1.00  0.00     0.027 A 
HETATM    5  C4  UNK     1       3.276   1.698  -1.769  1.00  0.00     0.092 A 
HETATM    6  C5  UNK     1       0.734   0.790  -2.308  1.00  0.00     0.205 A 
HETATM    7  C7  UNK     1       2.904   1.627   0.588  1.00  0.00     0.017 A 
HETATM    8  C8  UNK     1       1.617   1.081  -3.446  1.00  0.00     0.324 A 
HETATM    9  C9  UNK     1       4.579   2.164  -1.573  1.00  0.00     0.038 A 
HETATM   10  C10 UNK     1       4.208   2.095   0.800  1.00  0.00     0.001 A 
HETATM   11  C11 UNK     1       5.045   2.363  -0.279  1.00  0.00     0.003 A 
ENDROOT
BRANCH   3  12
HETATM   12  N1  UNK     1       0.207   0.647   0.051  1.00  0.00    -0.385 N 
HETATM   13  H3  UNK     1      -0.774   0.476  -0.128  1.00  0.00     0.159 HD
BRANCH  12  14
HETATM   14  C3  UNK     1       0.686   0.406   1.384  1.00  0.00     0.146 C 
BRANCH  14  15
HETATM   15  C6  UNK     1      -0.236  -0.567   2.099  1.00  0.00     0.195 C 
BRANCH  15  16
HETATM   16  O2  UNK     1      -1.538  -0.002   2.197  1.00  0.00    -0.350 OA
BRANCH  16  17
HETATM   17  C12 UNK     1      -2.591  -0.878   2.212  1.00  0.00     0.068 A 
HETATM   18  C13 UNK     1      -2.422  -2.150   2.747  1.00  0.00     0.038 A 
HETATM   19  C15 UNK     1      -3.494  -3.042   2.760  1.00  0.00     0.026 A 
HETATM   20  C17 UNK     1      -4.729  -2.656   2.238  1.00  0.00     0.034 A 
HETATM   21  C16 UNK     1      -4.891  -1.379   1.702  1.00  0.00     0.026 A 
HETATM   22 Cl1  UNK     1      -6.051  -3.757   2.254  1.00  0.00    -0.084 Cl
HETATM   23  C14 UNK     1      -3.819  -0.487   1.689  1.00  0.00     0.038 A 
ENDBRANCH  16  17
ENDBRANCH  15  16
ENDBRANCH  14  15
ENDBRANCH  12  14
ENDBRANCH   3  12
BRANCH   6  24
HETATM   24  N2  UNK     1      -0.575   0.319  -2.633  1.00  0.00    -0.107 N 
HETATM   25  O4  UNK     1      -1.332   0.069  -1.688  1.00  0.00    -0.531 OA
HETATM   26  O5  UNK     1      -0.846   0.199  -3.833  1.00  0.00    -0.531 OA
ENDBRANCH   6  24
TORSDOF 6
