REMARK  3 active torsions:
REMARK  status: ('A' for Active; 'I' for Inactive)
REMARK    1  A    between atoms: C9_14  and  O3_3 
REMARK    2  A    between atoms: C1_6  and  N1_5 
REMARK    3  A    between atoms: C1_6  and  C4_9 
ROOT
HETATM    1  O2  UNK     1      -0.475  -0.694  -1.083  1.00  0.00    -0.274 OA
HETATM    2  O4  UNK     1      -1.472  -1.118  -3.097  1.00  0.00    -0.260 OA
HETATM    3  C4  UNK     1       0.569  -0.251   1.017  1.00  0.00     0.038 A 
HETATM    4  C7  UNK     1      -0.603  -0.527   0.310  1.00  0.00     0.101 A 
HETATM    5  C8  UNK     1      -1.845  -0.634   0.939  1.00  0.00     0.005 A 
HETATM    6  C9  UNK     1       0.505  -0.076   2.395  1.00  0.00     0.076 A 
HETATM    7  C10 UNK     1      -3.027  -0.926   0.116  1.00  0.00    -0.043 A 
HETATM    8  C11 UNK     1      -1.888  -0.454   2.328  1.00  0.00     0.017 A 
HETATM    9  C12 UNK     1      -0.721  -0.178   3.050  1.00  0.00     0.038 A 
HETATM   10  C13 UNK     1      -2.875  -1.081  -1.207  1.00  0.00     0.090 A 
HETATM   11  C14 UNK     1      -1.572  -0.971  -1.884  1.00  0.00     0.288 A 
HETATM   12  C15 UNK     1      -4.376  -1.048   0.762  1.00  0.00     0.049 C 
ENDROOT
BRANCH   3  13
HETATM   13  C1  UNK     1       1.879  -0.145   0.307  1.00  0.00     0.317 C 
BRANCH  13  14
HETATM   14  N1  UNK     1       1.784   0.652  -0.914  1.00  0.00     0.097 N 
HETATM   15  C2  UNK     1       1.338   2.019  -0.611  1.00  0.00     0.299 C 
HETATM   16  C5  UNK     1       1.258   2.835  -1.899  1.00  0.00     0.198 C 
HETATM   17  O1  UNK     1       2.528   2.858  -2.552  1.00  0.00    -0.388 OA
HETATM   18  C6  UNK     1       2.955   1.536  -2.879  1.00  0.00     0.198 C 
HETATM   19  C3  UNK     1       3.075   0.688  -1.615  1.00  0.00     0.299 C 
ENDBRANCH  13  14
ENDBRANCH   3  13
BRANCH   6  20
HETATM   20  O3  UNK     1       1.627   0.192   3.119  1.00  0.00    -0.360 OA
HETATM   21  H17 UNK     1       1.386   0.281   4.057  1.00  0.00     0.217 HD
ENDBRANCH   6  20
TORSDOF 3
