REMARK  3 active torsions:
REMARK  status: ('A' for Active; 'I' for Inactive)
REMARK    1  A    between atoms: C17_21  and  O2_2 
REMARK    2  A    between atoms: C5_9  and  O2_2 
REMARK    3  A    between atoms: C1_5  and  C2_6 
ROOT
HETATM    1  N1  UNK     1       0.665  -0.750  -5.081  1.00  0.00    -0.195 NA
HETATM    2  C17 UNK     1      -0.503  -0.128  -2.816  1.00  0.00     0.299 C 
HETATM    3  C18 UNK     1       0.149  -0.475  -4.079  1.00  0.00     0.085 C 
ENDROOT
BRANCH   2   4
HETATM    4  O2  UNK     1       0.086  -0.839  -1.744  1.00  0.00    -0.331 OA
BRANCH   4   5
HETATM    5  C5  UNK     1      -0.537  -0.534  -0.553  1.00  0.00     0.155 A 
HETATM    6  C1  UNK     1      -0.143   0.475   0.245  1.00  0.00     0.123 A 
HETATM    7  O1  UNK     1      -0.725   0.788   1.463  1.00  0.00    -0.306 OA
HETATM    8  C4  UNK     1      -1.792   0.040   1.889  1.00  0.00     0.090 A 
HETATM    9  C11 UNK     1      -2.364   0.387   3.113  1.00  0.00     0.038 A 
HETATM   10  C3  UNK     1      -2.307  -1.027   1.157  1.00  0.00     0.051 A 
HETATM   11  C15 UNK     1      -3.453  -0.337   3.601  1.00  0.00     0.003 A 
HETATM   12  C14 UNK     1      -3.968  -1.405   2.866  1.00  0.00     0.001 A 
HETATM   13  C9  UNK     1      -3.397  -1.755   1.642  1.00  0.00     0.018 A 
HETATM   14  C6  UNK     1      -1.683  -1.374  -0.129  1.00  0.00     0.221 A 
HETATM   15  O3  UNK     1      -2.087  -2.305  -0.813  1.00  0.00    -0.284 OA
BRANCH   6  16
HETATM   16  C2  UNK     1       0.990   1.355  -0.094  1.00  0.00     0.001 A 
HETATM   17  C7  UNK     1       0.772   2.520  -0.829  1.00  0.00     0.015 A 
HETATM   18  C12 UNK     1       1.844   3.353  -1.150  1.00  0.00     0.007 A 
HETATM   19  C10 UNK     1       3.134   3.021  -0.736  1.00  0.00    -0.062 A 
HETATM   20  C13 UNK     1       3.352   1.856  -0.000  1.00  0.00     0.007 A 
HETATM   21  C16 UNK     1       4.280   3.912  -1.078  1.00  0.00     0.048 C 
HETATM   22  C8  UNK     1       2.280   1.023   0.320  1.00  0.00     0.015 A 
ENDBRANCH   6  16
ENDBRANCH   4   5
ENDBRANCH   2   4
TORSDOF 3
