REMARK  3 active torsions:
REMARK  status: ('A' for Active; 'I' for Inactive)
REMARK    1  A    between atoms: C1_4  and  C3_6 
REMARK    2  A    between atoms: C2_5  and  C4_7 
REMARK    3  A    between atoms: C3_6  and  C5_8 
ROOT
HETATM    1  O1  UNK     1       0.128  -0.132   2.629  1.00  0.00    -0.288 OA
HETATM    2  C3  UNK     1      -0.453  -0.192   1.546  1.00  0.00     0.182 C 
ENDROOT
BRANCH   2   3
HETATM    3  C1  UNK     1      -1.774  -0.818   1.399  1.00  0.00     0.014 A 
HETATM    4  C6  UNK     1      -2.129  -1.387   0.184  1.00  0.00     0.017 A 
HETATM    5  C10 UNK     1      -3.384  -1.979   0.045  1.00  0.00     0.020 A 
HETATM    6  C14 UNK     1      -4.271  -1.997   1.122  1.00  0.00     0.011 A 
HETATM    7 Br1  UNK     1      -5.972  -2.800   0.932  1.00  0.00    -0.051 Br
HETATM    8  C11 UNK     1      -3.903  -1.422   2.338  1.00  0.00     0.020 A 
HETATM    9  C7  UNK     1      -2.648  -0.829   2.477  1.00  0.00     0.017 A 
ENDBRANCH   2   3
BRANCH   2  10
HETATM   10  C5  UNK     1       0.179   0.425   0.334  1.00  0.00     0.056 C 
HETATM   11  C4  UNK     1       1.506   0.483   0.247  1.00  0.00     0.015 C 
BRANCH  11  12
HETATM   12  C2  UNK     1       2.193   1.089  -0.883  1.00  0.00    -0.036 A 
HETATM   13  C8  UNK     1       1.526   1.259  -2.095  1.00  0.00     0.012 A 
HETATM   14  C12 UNK     1       2.185   1.841  -3.179  1.00  0.00     0.020 A 
HETATM   15  C15 UNK     1       3.512   2.251  -3.049  1.00  0.00     0.011 A 
HETATM   16 Br2  UNK     1       4.405   3.039  -4.516  1.00  0.00    -0.051 Br
HETATM   17  C13 UNK     1       4.179   2.081  -1.836  1.00  0.00     0.020 A 
HETATM   18  C9  UNK     1       3.520   1.499  -0.753  1.00  0.00     0.012 A 
ENDBRANCH  11  12
ENDBRANCH   2  10
TORSDOF 3
