REMARK  7 active torsions:
REMARK  status: ('A' for Active; 'I' for Inactive)
REMARK    1  A    between atoms: C9_14  and  O2_2 
REMARK    2  A    between atoms: C1_6  and  C2_7 
REMARK    3  A    between atoms: C1_6  and  C3_8 
REMARK    4  A    between atoms: C2_7  and  C4_9 
REMARK    5  A    between atoms: C3_8  and  C5_10 
REMARK    6  A    between atoms: C4_9  and  C6_11 
REMARK    7  A    between atoms: C12_17  and  C14_19 
ROOT
HETATM    1  O1  UNK     1       0.694   0.904   2.386  1.00  0.00    -0.274 OA
HETATM    2  O3  UNK     1      -1.285   0.345   3.368  1.00  0.00    -0.259 OA
HETATM    3  C5  UNK     1       3.214   0.968  -0.939  1.00  0.00    -0.024 A 
HETATM    4  C7  UNK     1       1.115   0.314   0.072  1.00  0.00    -0.000 A 
HETATM    5  C8  UNK     1       1.968   0.343  -1.034  1.00  0.00     0.024 A 
HETATM    6  C9  UNK     1       3.614   1.566   0.258  1.00  0.00     0.074 A 
HETATM    7  C10 UNK     1       1.529   0.913   1.254  1.00  0.00     0.092 A 
HETATM    8  C11 UNK     1       2.768   1.540   1.365  1.00  0.00     0.075 A 
HETATM    9  C12 UNK     1      -1.000  -0.342   1.102  1.00  0.00     0.070 A 
HETATM   10  C13 UNK     1      -0.190  -0.324   0.030  1.00  0.00     0.034 A 
HETATM   11  C18 UNK     1      -0.568   0.314   2.372  1.00  0.00     0.301 A 
ENDROOT
BRANCH   9  12
HETATM   12  C14 UNK     1      -2.293  -0.979   1.068  1.00  0.00     0.091 A 
HETATM   13  N2  UNK     1      -2.837  -1.530   2.192  1.00  0.00    -0.229 NA
HETATM   14  C16 UNK     1      -4.000  -2.011   1.802  1.00  0.00     0.134 A 
HETATM   15  N1  UNK     1      -4.212  -1.780   0.447  1.00  0.00    -0.315 N 
HETATM   16  C19 UNK     1      -5.027  -2.700   2.512  1.00  0.00     0.057 A 
HETATM   17  C17 UNK     1      -3.109  -1.114  -0.021  1.00  0.00     0.130 A 
HETATM   18  C20 UNK     1      -5.358  -2.181  -0.231  1.00  0.00     0.099 A 
HETATM   19  C22 UNK     1      -6.322  -2.829   0.442  1.00  0.00     0.024 A 
HETATM   20  C21 UNK     1      -6.147  -3.098   1.869  1.00  0.00    -0.057 A 
HETATM   21  C23 UNK     1      -7.262  -3.824   2.558  1.00  0.00     0.048 C 
ENDBRANCH   9  12
BRANCH   3  22
HETATM   22  C3  UNK     1       4.113   0.988  -2.138  1.00  0.00     0.041 C 
BRANCH  22  23
HETATM   23  C1  UNK     1       3.869   2.222  -3.008  1.00  0.00     0.005 C 
BRANCH  23  24
HETATM   24  C2  UNK     1       4.816   2.251  -4.209  1.00  0.00     0.000 C 
BRANCH  24  25
HETATM   25  C4  UNK     1       4.550   3.467  -5.098  1.00  0.00    -0.000 C 
BRANCH  25  26
HETATM   26  C6  UNK     1       5.473   3.478  -6.316  1.00  0.00    -0.005 C 
HETATM   27  C15 UNK     1       5.189   4.667  -7.220  1.00  0.00     0.005 C 
ENDBRANCH  25  26
ENDBRANCH  24  25
ENDBRANCH  23  24
ENDBRANCH  22  23
ENDBRANCH   3  22
BRANCH   6  28
HETATM   28  O2  UNK     1       4.828   2.180   0.362  1.00  0.00    -0.360 OA
HETATM   29  H21 UNK     1       4.927   2.535   1.262  1.00  0.00     0.217 HD
ENDBRANCH   6  28
TORSDOF 7
