REMARK  7 active torsions:
REMARK  status: ('A' for Active; 'I' for Inactive)
REMARK    1  A    between atoms: C4_10  and  O1_1 
REMARK    2  A    between atoms: C21_27  and  O3_3 
REMARK    3  A    between atoms: C1_7  and  N1_4 
REMARK    4  A    between atoms: C1_7  and  C2_8 
REMARK    5  A    between atoms: C12_18  and  C7_13 
REMARK    6  A    between atoms: C15_21  and  C16_22 
REMARK    7  A    between atoms: C16_22  and  C17_23 
ROOT
HETATM    1  C2  UNK     1      -1.787  -1.480   1.212  1.00  0.00    -0.005 A 
HETATM    2  C4  UNK     1      -3.076  -1.649   1.716  1.00  0.00     0.076 A 
HETATM    3  C5  UNK     1      -0.899  -0.611   1.844  1.00  0.00     0.023 A 
HETATM    4  C7  UNK     1      -1.300   0.090   2.982  1.00  0.00    -0.035 A 
HETATM    5  C8  UNK     1      -3.478  -0.948   2.853  1.00  0.00     0.038 A 
HETATM    6  C10 UNK     1      -2.590  -0.078   3.486  1.00  0.00     0.014 A 
ENDROOT
BRANCH   4   7
HETATM    7  C12 UNK     1      -0.374   0.997   3.641  1.00  0.00     0.015 C 
HETATM    8  C15 UNK     1       0.199   2.079   3.068  1.00  0.00     0.056 C 
BRANCH   8   9
HETATM    9  C16 UNK     1      -0.099   2.426   1.650  1.00  0.00     0.182 C 
HETATM   10  O2  UNK     1      -1.233   2.675   1.255  1.00  0.00    -0.288 OA
BRANCH   9  11
HETATM   11  C17 UNK     1       1.041   2.496   0.705  1.00  0.00     0.014 A 
HETATM   12  C19 UNK     1       2.337   2.242   1.154  1.00  0.00     0.018 A 
HETATM   13  C22 UNK     1       3.409   2.310   0.265  1.00  0.00     0.037 A 
HETATM   14  C21 UNK     1       3.186   2.631  -1.074  1.00  0.00     0.068 A 
HETATM   15  C23 UNK     1       1.890   2.885  -1.524  1.00  0.00     0.037 A 
HETATM   16  C20 UNK     1       0.818   2.817  -0.634  1.00  0.00     0.018 A 
BRANCH  14  17
HETATM   17  O3  UNK     1       4.233   2.697  -1.941  1.00  0.00    -0.356 OA
HETATM   18  C24 UNK     1       3.933   3.031  -3.296  1.00  0.00     0.210 C 
ENDBRANCH  14  17
ENDBRANCH   9  11
ENDBRANCH   8   9
ENDBRANCH   4   7
BRANCH   1  19
HETATM   19  C1  UNK     1      -1.336  -2.230  -0.017  1.00  0.00     0.188 C 
BRANCH  19  20
HETATM   20  N1  UNK     1      -1.336  -1.422  -1.211  1.00  0.00    -0.268 N 
HETATM   21  C3  UNK     1      -0.293  -1.166  -2.053  1.00  0.00     0.079 A 
HETATM   22  C6  UNK     1      -0.857  -0.343  -3.017  1.00  0.00     0.102 A 
HETATM   23  C9  UNK     1       1.044  -1.560  -2.062  1.00  0.00     0.033 A 
HETATM   24  C11 UNK     1      -0.062   0.132  -4.070  1.00  0.00     0.035 A 
HETATM   25  N3  UNK     1      -2.181  -0.143  -2.726  1.00  0.00    -0.158 NA
HETATM   26  C14 UNK     1       1.286  -0.249  -4.104  1.00  0.00     0.002 A 
HETATM   27  C13 UNK     1       1.826  -1.080  -3.118  1.00  0.00     0.002 A 
HETATM   28  N2  UNK     1      -2.463  -0.811  -1.613  1.00  0.00     0.006 NA
ENDBRANCH  19  20
ENDBRANCH   1  19
BRANCH   2  29
HETATM   29  O1  UNK     1      -3.957  -2.494   1.110  1.00  0.00    -0.355 OA
HETATM   30  C18 UNK     1      -5.254  -2.606   1.693  1.00  0.00     0.210 C 
ENDBRANCH   2  29
TORSDOF 7
