REMARK  4 active torsions:
REMARK  status: ('A' for Active; 'I' for Inactive)
REMARK    1  A    between atoms: C12_19  and  O2_3 
REMARK       I    between atoms: C14_21  and  N1_7 
REMARK    2  A    between atoms: C5_12  and  N1_7 
REMARK    3  A    between atoms: C12_19  and  C4_11 
REMARK    4  A    between atoms: C13_20  and  C14_21 
ROOT
HETATM    1  S1  UNK     1       0.108   0.385   2.503  1.00  0.00    -0.082 SA
HETATM    2  C1  UNK     1      -3.330  -1.519   2.177  1.00  0.00    -0.018 A 
HETATM    3  C2  UNK     1      -2.089  -0.826   1.949  1.00  0.00     0.000 A 
HETATM    4  C3  UNK     1      -3.371  -2.909   2.272  1.00  0.00    -0.050 A 
HETATM    5  C4  UNK     1      -1.502  -0.479   0.698  1.00  0.00     0.085 A 
HETATM    6  C5  UNK     1      -0.324   0.173   0.873  1.00  0.00     0.094 A 
HETATM    7  C6  UNK     1      -4.503  -0.775   2.302  1.00  0.00     0.013 A 
HETATM    8  C7  UNK     1      -4.586  -3.557   2.492  1.00  0.00     0.014 A 
HETATM    9  C8  UNK     1      -5.760  -2.814   2.616  1.00  0.00    -0.061 A 
HETATM   10  C9  UNK     1      -1.317  -0.415   3.014  1.00  0.00     0.065 A 
HETATM   11  C10 UNK     1      -5.718  -1.423   2.521  1.00  0.00     0.007 A 
HETATM   12  C11 UNK     1      -2.134  -3.739   2.143  1.00  0.00     0.049 C 
HETATM   13  C15 UNK     1      -7.060  -3.506   2.852  1.00  0.00     0.048 C 
ENDROOT
BRANCH   6  14
HETATM   14  N1  UNK     1       0.576   0.688  -0.065  1.00  0.00    -0.316 N 
HETATM   15  C14 UNK     1       1.766   1.344   0.218  1.00  0.00     0.262 C 
HETATM   16  O4  UNK     1       2.259   1.600   1.315  1.00  0.00    -0.267 OA
HETATM   17  H8  UNK     1       0.307   0.532  -1.032  1.00  0.00     0.169 HD
BRANCH  15  18
HETATM   18  C13 UNK     1       2.468   1.754  -1.004  1.00  0.00     0.108 A 
HETATM   19  C17 UNK     1       3.803   1.807  -0.930  1.00  0.00     0.037 A 
HETATM   20  C16 UNK     1       4.587   2.204  -2.089  1.00  0.00    -0.001 A 
HETATM   21  C18 UNK     1       3.926   2.524  -3.271  1.00  0.00     0.089 A 
HETATM   22  C20 UNK     1       5.982   2.273  -2.057  1.00  0.00     0.014 A 
HETATM   23  C21 UNK     1       4.618   2.912  -4.417  1.00  0.00     0.038 A 
HETATM   24  O1  UNK     1       2.521   2.466  -3.343  1.00  0.00    -0.274 OA
HETATM   25  C23 UNK     1       6.009   2.979  -4.376  1.00  0.00     0.003 A 
HETATM   26  C22 UNK     1       6.690   2.660  -3.199  1.00  0.00     0.001 A 
HETATM   27  C19 UNK     1       1.744   2.090  -2.251  1.00  0.00     0.304 A 
HETATM   28  O5  UNK     1       0.521   2.043  -2.323  1.00  0.00    -0.259 OA
ENDBRANCH  15  18
ENDBRANCH   6  14
BRANCH   5  29
HETATM   29  C12 UNK     1      -2.062  -0.768  -0.600  1.00  0.00     0.296 C 
HETATM   30  O3  UNK     1      -3.279  -0.855  -0.847  1.00  0.00    -0.259 OA
BRANCH  29  31
HETATM   31  O2  UNK     1      -1.090  -0.938  -1.554  1.00  0.00    -0.322 OA
HETATM   32  C24 UNK     1      -1.522  -1.229  -2.888  1.00  0.00     0.213 C 
ENDBRANCH  29  31
ENDBRANCH   5  29
TORSDOF 4
