REMARK  3 active torsions:
REMARK  status: ('A' for Active; 'I' for Inactive)
REMARK    1  A    between atoms: C5_11  and  O2_3 
REMARK       I    between atoms: C10_16  and  N1_6 
REMARK    2  A    between atoms: C11_17  and  N1_6 
REMARK    3  A    between atoms: C10_16  and  C3_9 
ROOT
HETATM    1 Cl1  UNK     1       2.620   2.746  -5.067  1.00  0.00    -0.084 Cl
HETATM    2  O1  UNK     1       2.032   0.674   0.423  1.00  0.00    -0.271 OA
HETATM    3  O3  UNK     1       0.864  -0.527   1.976  1.00  0.00    -0.259 OA
HETATM    4  C1  UNK     1       1.179   0.855  -1.846  1.00  0.00     0.004 A 
HETATM    5  C2  UNK     1       2.149   1.156  -0.895  1.00  0.00     0.123 A 
HETATM    6  C3  UNK     1      -0.062  -0.422  -0.203  1.00  0.00     0.108 A 
HETATM    7  C4  UNK     1       0.043   0.033  -1.457  1.00  0.00     0.037 A 
HETATM    8  C5  UNK     1       3.261   1.937  -1.203  1.00  0.00     0.104 A 
HETATM    9  C6  UNK     1       1.329   1.352  -3.143  1.00  0.00     0.038 A 
HETATM   10  C7  UNK     1       0.957  -0.113   0.825  1.00  0.00     0.304 A 
HETATM   11  C8  UNK     1       3.403   2.429  -2.499  1.00  0.00     0.063 A 
HETATM   12  C9  UNK     1       2.439   2.137  -3.467  1.00  0.00     0.037 A 
ENDROOT
BRANCH   6  13
HETATM   13  C10 UNK     1      -1.243  -1.242   0.093  1.00  0.00     0.262 C 
HETATM   14  O4  UNK     1      -1.431  -2.287  -0.526  1.00  0.00    -0.267 OA
HETATM   15  N1  UNK     1      -2.031  -0.684   1.091  1.00  0.00    -0.323 N 
HETATM   16  H4  UNK     1      -1.725   0.198   1.497  1.00  0.00     0.169 HD
BRANCH  15  17
HETATM   17  C11 UNK     1      -3.237  -1.197   1.627  1.00  0.00     0.035 A 
HETATM   18  C12 UNK     1      -3.758  -2.399   1.146  1.00  0.00     0.029 A 
HETATM   19  C14 UNK     1      -4.947  -2.904   1.674  1.00  0.00     0.002 A 
HETATM   20  C16 UNK     1      -5.613  -2.209   2.682  1.00  0.00     0.000 A 
HETATM   21  C15 UNK     1      -5.092  -1.008   3.163  1.00  0.00     0.002 A 
HETATM   22  C13 UNK     1      -3.904  -0.502   2.636  1.00  0.00     0.029 A 
ENDBRANCH  15  17
ENDBRANCH   6  13
BRANCH   8  23
HETATM   23  O2  UNK     1       4.201   2.224  -0.264  1.00  0.00    -0.353 OA
HETATM   24  C17 UNK     1       5.305   3.032  -0.673  1.00  0.00     0.210 C 
ENDBRANCH   8  23
TORSDOF 3
