REMARK  2 active torsions:
REMARK  status: ('A' for Active; 'I' for Inactive)
REMARK       I    between atoms: C7_13  and  N1_5 
REMARK    1  A    between atoms: C1_7  and  C6_12 
REMARK    2  A    between atoms: C7_13  and  C8_14 
ROOT
HETATM    1  O1  UNK     1       1.823   3.099   1.258  1.00  0.00    -0.267 OA
HETATM    2  N1  UNK     1       1.331   0.827   1.309  1.00  0.00    -0.348 N 
HETATM    3  C1  UNK     1      -0.810  -1.017   1.938  1.00  0.00     0.048 C 
HETATM    4  C2  UNK     1      -0.067  -1.064   0.588  1.00  0.00     0.031 C 
HETATM    5  C3  UNK     1      -0.749   0.397   2.549  1.00  0.00     0.031 C 
HETATM    6  C4  UNK     1       1.355  -0.524   0.733  1.00  0.00     0.127 C 
HETATM    7  C5  UNK     1       0.692   0.902   2.626  1.00  0.00     0.127 C 
HETATM    8  C7  UNK     1       1.853   1.983   0.737  1.00  0.00     0.259 C 
ENDROOT
BRANCH   8   9
HETATM    9  C8  UNK     1       2.482   1.868  -0.594  1.00  0.00     0.108 A 
HETATM   10  C11 UNK     1       1.675   2.042  -1.647  1.00  0.00     0.037 A 
HETATM   11  C15 UNK     1       2.203   1.947  -2.999  1.00  0.00    -0.001 A 
HETATM   12  C16 UNK     1       3.555   1.673  -3.176  1.00  0.00     0.089 A 
HETATM   13  C19 UNK     1       1.397   2.122  -4.127  1.00  0.00     0.014 A 
HETATM   14  O2  UNK     1       4.400   1.490  -2.064  1.00  0.00    -0.274 OA
HETATM   15  C20 UNK     1       4.123   1.568  -4.444  1.00  0.00     0.038 A 
HETATM   16  C14 UNK     1       3.924   1.575  -0.758  1.00  0.00     0.304 A 
HETATM   17  O3  UNK     1       4.666   1.414   0.204  1.00  0.00    -0.259 OA
HETATM   18  C22 UNK     1       3.313   1.744  -5.564  1.00  0.00     0.003 A 
HETATM   19  C21 UNK     1       1.953   2.020  -5.406  1.00  0.00     0.001 A 
ENDBRANCH   8   9
BRANCH   3  20
HETATM   20  C6  UNK     1      -2.238  -1.525   1.821  1.00  0.00     0.080 A 
HETATM   21  S1  UNK     1      -2.697  -2.916   2.699  1.00  0.00    -0.072 SA
HETATM   22  C9  UNK     1      -4.289  -2.784   2.049  1.00  0.00     0.035 A 
HETATM   23  C10 UNK     1      -4.346  -1.674   1.201  1.00  0.00     0.074 A 
HETATM   24  C12 UNK     1      -5.406  -3.604   2.273  1.00  0.00     0.021 A 
HETATM   25  N2  UNK     1      -3.161  -0.962   1.081  1.00  0.00    -0.244 NA
HETATM   26  C13 UNK     1      -5.566  -1.376   0.556  1.00  0.00     0.033 A 
HETATM   27  C18 UNK     1      -6.682  -2.188   0.775  1.00  0.00     0.002 A 
HETATM   28  C17 UNK     1      -6.601  -3.287   1.622  1.00  0.00     0.002 A 
ENDBRANCH   3  20
TORSDOF 2
