REMARK  7 active torsions:
REMARK  status: ('A' for Active; 'I' for Inactive)
REMARK    1  A    between atoms: C19_26  and  O3_3 
REMARK    2  A    between atoms: C21_28  and  O3_3 
REMARK    3  A    between atoms: C5_12  and  N1_5 
REMARK    4  A    between atoms: C6_13  and  N2_6 
REMARK    5  A    between atoms: C8_15  and  N3_7 
REMARK       I    between atoms: C9_16  and  N3_7 
REMARK    6  A    between atoms: C5_12  and  C7_14 
REMARK    7  A    between atoms: C6_13  and  C9_16 
ROOT
HETATM    1  N1  UNK     1       0.581  -0.615  -0.261  1.00  0.00     0.096 N 
HETATM    2  N2  UNK     1      -1.434  -1.418   1.650  1.00  0.00     0.100 N 
HETATM    3  C1  UNK     1      -0.769  -0.996  -0.692  1.00  0.00     0.303 C 
HETATM    4  C2  UNK     1       0.941  -1.316   0.978  1.00  0.00     0.303 C 
HETATM    5  C3  UNK     1      -1.795  -0.716   0.412  1.00  0.00     0.303 C 
HETATM    6  C4  UNK     1      -0.085  -1.035   2.081  1.00  0.00     0.303 C 
ENDROOT
BRANCH   1   7
HETATM    7  C5  UNK     1       1.558  -0.886  -1.314  1.00  0.00     0.312 C 
BRANCH   7   8
HETATM    8  C7  UNK     1       1.567   0.175  -2.359  1.00  0.00    -0.011 A 
HETATM    9  C10 UNK     1       2.455   1.336  -2.218  1.00  0.00     0.009 A 
HETATM   10  C15 UNK     1       2.441   2.314  -3.214  1.00  0.00     0.090 A 
HETATM   11  C16 UNK     1       3.324   1.525  -1.135  1.00  0.00     0.051 A 
HETATM   12  O2  UNK     1       1.596   2.198  -4.336  1.00  0.00    -0.275 OA
HETATM   13  C18 UNK     1       3.252   3.448  -3.158  1.00  0.00     0.041 A 
HETATM   14  C17 UNK     1       0.749   1.113  -4.497  1.00  0.00     0.288 A 
HETATM   15  C11 UNK     1       0.774   0.090  -3.438  1.00  0.00     0.092 A 
HETATM   16  O4  UNK     1       0.010   1.002  -5.470  1.00  0.00    -0.260 OA
HETATM   17  C20 UNK     1       4.108   3.617  -2.074  1.00  0.00     0.039 A 
HETATM   18  C19 UNK     1       4.144   2.657  -1.065  1.00  0.00     0.069 A 
BRANCH  18  19
HETATM   19  O3  UNK     1       4.982   2.821  -0.004  1.00  0.00    -0.351 OA
BRANCH  19  20
HETATM   20  C21 UNK     1       4.569   2.261   1.242  1.00  0.00     0.171 C 
HETATM   21  C22 UNK     1       5.147   3.088   2.370  1.00  0.00     0.034 C 
ENDBRANCH  19  20
ENDBRANCH  18  19
ENDBRANCH   7   8
ENDBRANCH   1   7
BRANCH   2  22
HETATM   22  C6  UNK     1      -2.412  -1.149   2.702  1.00  0.00     0.374 C 
BRANCH  22  23
HETATM   23  C9  UNK     1      -3.622  -2.034   2.482  1.00  0.00     0.246 C 
HETATM   24  O1  UNK     1      -3.551  -3.150   1.972  1.00  0.00    -0.272 OA
HETATM   25  N3  UNK     1      -4.787  -1.442   2.947  1.00  0.00    -0.351 N 
HETATM   26  H13 UNK     1      -4.732  -0.519   3.367  1.00  0.00     0.163 HD
BRANCH  25  27
HETATM   27  C8  UNK     1      -6.081  -2.084   2.884  1.00  0.00     0.022 C 
HETATM   28  C12 UNK     1      -6.424  -2.379   1.420  1.00  0.00     0.037 C 
HETATM   29  C13 UNK     1      -6.037  -3.393   3.681  1.00  0.00     0.037 C 
HETATM   30  C14 UNK     1      -7.138  -1.151   3.487  1.00  0.00     0.037 C 
ENDBRANCH  25  27
ENDBRANCH  22  23
ENDBRANCH   2  22
TORSDOF 7
