REMARK  1 active torsions:
REMARK  status: ('A' for Active; 'I' for Inactive)
REMARK    1  A    between atoms: C14_18  and  C16_20 
ROOT
HETATM    1  O1  UNK     1      -1.930  -0.678  -0.608  1.00  0.00    -0.273 OA
HETATM    2  O2  UNK     1      -3.895  -1.667   0.011  1.00  0.00    -0.259 OA
HETATM    3  N1  UNK     1       2.219   1.481  -1.957  1.00  0.00    -0.380 N 
HETATM    4  C1  UNK     1       1.391   0.951  -0.963  1.00  0.00     0.045 A 
HETATM    5  C2  UNK     1       1.686   1.667  -3.303  1.00  0.00     0.123 C 
HETATM    6  C3  UNK     1       0.145   0.366  -1.288  1.00  0.00     0.004 A 
HETATM    7  C4  UNK     1       3.392   2.259  -1.570  1.00  0.00     0.123 C 
HETATM    8  C5  UNK     1       1.796   0.952   0.394  1.00  0.00    -0.030 A 
HETATM    9  C6  UNK     1       0.827   0.477  -3.701  1.00  0.00     0.025 C 
HETATM   10  C7  UNK     1      -0.330   0.323  -2.722  1.00  0.00     0.045 C 
HETATM   11  C8  UNK     1       4.084   1.620  -0.375  1.00  0.00     0.024 C 
HETATM   12  C9  UNK     1       3.121   1.551   0.803  1.00  0.00     0.042 C 
HETATM   13  C10 UNK     1      -0.672  -0.134  -0.260  1.00  0.00     0.098 A 
HETATM   14  C11 UNK     1       0.956   0.439   1.397  1.00  0.00     0.023 A 
HETATM   15  C12 UNK     1      -0.285  -0.104   1.073  1.00  0.00     0.000 A 
HETATM   16  C13 UNK     1      -1.178  -0.639   2.089  1.00  0.00     0.035 A 
HETATM   17  C14 UNK     1      -2.364  -1.155   1.745  1.00  0.00     0.078 A 
HETATM   18  C15 UNK     1      -2.810  -1.199   0.336  1.00  0.00     0.301 A 
ENDROOT
BRANCH  17  19
HETATM   19  C16 UNK     1      -3.193  -1.670   2.842  1.00  0.00     0.276 C 
HETATM   20  O3  UNK     1      -4.296  -2.164   2.655  1.00  0.00    -0.301 OA
ENDBRANCH  17  19
TORSDOF 1
