REMARK  6 active torsions:
REMARK  status: ('A' for Active; 'I' for Inactive)
REMARK    1  A    between atoms: C5_11  and  N1_5 
REMARK       I    between atoms: C6_12  and  N1_5 
REMARK    2  A    between atoms: C14_20  and  N2_6 
REMARK    3  A    between atoms: C1_7  and  C6_12 
REMARK    4  A    between atoms: C1_7  and  C2_8 
REMARK    5  A    between atoms: C3_9  and  C4_10 
REMARK    6  A    between atoms: C22_28  and  C8_14 
ROOT
HETATM    1  C1  UNK     1      -0.342   0.237   0.678  1.00  0.00     0.043 C 
HETATM    2  C3  UNK     1      -0.880  -0.009   1.904  1.00  0.00     0.029 C 
ENDROOT
BRANCH   1   3
HETATM    3  C6  UNK     1       1.083   0.775   0.714  1.00  0.00     0.257 C 
HETATM    4  O1  UNK     1       1.672   0.933   1.780  1.00  0.00    -0.267 OA
HETATM    5  N1  UNK     1       1.580   1.041  -0.556  1.00  0.00    -0.323 N 
HETATM    6  H2  UNK     1       0.990   0.864  -1.364  1.00  0.00     0.169 HD
BRANCH   5   7
HETATM    7  C5  UNK     1       2.861   1.547  -0.892  1.00  0.00     0.035 A 
HETATM    8  C12 UNK     1       3.763   1.827   0.120  1.00  0.00     0.029 A 
HETATM    9  C16 UNK     1       5.024   2.324  -0.210  1.00  0.00     0.003 A 
HETATM   10  C15 UNK     1       5.363   2.532  -1.547  1.00  0.00     0.015 A 
HETATM   11  C8  UNK     1       4.442   2.244  -2.553  1.00  0.00     0.011 A 
HETATM   12  C7  UNK     1       3.181   1.747  -2.223  1.00  0.00     0.044 A 
BRANCH  11  13
HETATM   13  C22 UNK     1       4.796   2.462  -3.947  1.00  0.00     0.155 C 
HETATM   14  O2  UNK     1       5.915   2.906  -4.272  1.00  0.00    -0.293 OA
HETATM   15  C23 UNK     1       3.794   2.149  -5.053  1.00  0.00     0.096 C 
ENDBRANCH  11  13
ENDBRANCH   5   7
ENDBRANCH   1   3
BRANCH   1  16
HETATM   16  C2  UNK     1      -1.066   0.038  -0.568  1.00  0.00    -0.021 A 
HETATM   17  C10 UNK     1      -1.814   1.081  -1.114  1.00  0.00     0.012 A 
HETATM   18  C18 UNK     1      -2.508   0.890  -2.309  1.00  0.00     0.001 A 
HETATM   19  C21 UNK     1      -2.453  -0.343  -2.958  1.00  0.00     0.000 A 
HETATM   20  C19 UNK     1      -1.705  -1.386  -2.413  1.00  0.00     0.001 A 
HETATM   21  C11 UNK     1      -1.011  -1.195  -1.218  1.00  0.00     0.012 A 
ENDBRANCH   1  16
BRANCH   2  22
HETATM   22  C4  UNK     1      -2.249  -0.488   2.150  1.00  0.00    -0.033 A 
HETATM   23  C13 UNK     1      -3.268   0.433   2.339  1.00  0.00     0.011 A 
HETATM   24  C17 UNK     1      -4.567  -0.021   2.572  1.00  0.00     0.003 A 
HETATM   25  C20 UNK     1      -4.830  -1.390   2.613  1.00  0.00     0.036 A 
HETATM   26  C14 UNK     1      -3.796  -2.305   2.421  1.00  0.00     0.103 A 
HETATM   27  C9  UNK     1      -2.497  -1.852   2.188  1.00  0.00     0.047 A 
BRANCH  26  28
HETATM   28  N2  UNK     1      -4.065  -3.699   2.463  1.00  0.00    -0.116 N 
HETATM   29  O3  UNK     1      -5.240  -4.085   2.675  1.00  0.00    -0.532 OA
HETATM   30  O4  UNK     1      -3.120  -4.506   2.287  1.00  0.00    -0.532 OA
ENDBRANCH  26  28
ENDBRANCH   2  22
TORSDOF 6
