REMARK  4 active torsions:
REMARK  status: ('A' for Active; 'I' for Inactive)
REMARK    1  A    between atoms: C4_8  and  O1_3 
REMARK    2  A    between atoms: C3_7  and  C9_13 
REMARK    3  A    between atoms: C12_16  and  C9_13 
REMARK    4  A    between atoms: C13_17  and  C14_18 
ROOT
HETATM    1  C1  UNK     1      -2.442  -0.894   1.973  1.00  0.00     0.008 A 
HETATM    2  C2  UNK     1      -3.246  -1.625   1.066  1.00  0.00    -0.023 A 
HETATM    3  C3  UNK     1      -1.294   0.148   0.097  1.00  0.00     0.048 A 
HETATM    4  C4  UNK     1      -1.471  -0.011   1.472  1.00  0.00     0.090 A 
HETATM    5  C5  UNK     1      -3.054  -1.452  -0.315  1.00  0.00     0.013 A 
HETATM    6  C6  UNK     1      -2.085  -0.571  -0.794  1.00  0.00     0.019 A 
HETATM    7  C7  UNK     1      -2.633  -1.066   3.353  1.00  0.00     0.015 A 
HETATM    8  C8  UNK     1      -4.217  -2.507   1.566  1.00  0.00     0.012 A 
HETATM    9  C10 UNK     1      -3.603  -1.947   3.833  1.00  0.00     0.001 A 
HETATM   10  C11 UNK     1      -4.393  -2.666   2.941  1.00  0.00     0.001 A 
ENDROOT
BRANCH   3  11
HETATM   11  C9  UNK     1      -0.289   1.061  -0.431  1.00  0.00     0.184 C 
HETATM   12  O2  UNK     1       0.741   1.309   0.211  1.00  0.00    -0.287 OA
BRANCH  11  13
HETATM   13  C12 UNK     1      -0.544   1.719  -1.756  1.00  0.00     0.056 C 
HETATM   14  C14 UNK     1       0.479   2.077  -2.547  1.00  0.00     0.019 C 
BRANCH  14  15
HETATM   15  C13 UNK     1       1.901   1.874  -2.217  1.00  0.00     0.007 A 
HETATM   16  C15 UNK     1       2.538   0.687  -2.578  1.00  0.00     0.045 A 
HETATM   17 Cl1  UNK     1       1.714  -0.588  -3.411  1.00  0.00    -0.083 Cl
HETATM   18  C17 UNK     1       3.884   0.495  -2.268  1.00  0.00     0.025 A 
HETATM   19  C19 UNK     1       4.594   1.492  -1.598  1.00  0.00     0.003 A 
HETATM   20  C18 UNK     1       3.957   2.679  -1.237  1.00  0.00     0.025 A 
HETATM   21  C16 UNK     1       2.611   2.870  -1.547  1.00  0.00     0.045 A 
HETATM   22 Cl2  UNK     1       1.880   4.366  -1.072  1.00  0.00    -0.083 Cl
ENDBRANCH  14  15
ENDBRANCH  11  13
ENDBRANCH   3  11
BRANCH   4  23
HETATM   23  O1  UNK     1      -0.681   0.709   2.326  1.00  0.00    -0.359 OA
HETATM   24  H9  UNK     1      -1.173   0.920   3.135  1.00  0.00     0.217 HD
ENDBRANCH   4  23
TORSDOF 4
