REMARK  7 active torsions:
REMARK  status: ('A' for Active; 'I' for Inactive)
REMARK    1  A    between atoms: C19_26  and  O3_4 
REMARK    2  A    between atoms: C18_25  and  N1_6 
REMARK    3  A    between atoms: C4_11  and  N1_6 
REMARK    4  A    between atoms: C10_17  and  N2_7 
REMARK    5  A    between atoms: C18_25  and  N2_7 
REMARK    6  A    between atoms: C17_24  and  C9_16 
REMARK    7  A    between atoms: C17_24  and  C19_26 
ROOT
HETATM    1  S1  UNK     1      -1.664  -1.501  -2.929  1.00  0.00    -0.041 SA
HETATM    2  C18 UNK     1      -0.566  -0.422  -2.243  1.00  0.00     0.176 C 
ENDROOT
BRANCH   2   3
HETATM    3  N1  UNK     1      -0.388  -0.187  -0.877  1.00  0.00    -0.333 N 
HETATM    4  H5  UNK     1       0.569   0.046  -0.635  1.00  0.00     0.168 HD
BRANCH   3   5
HETATM    5  C4  UNK     1      -1.085  -0.644   0.242  1.00  0.00     0.036 A 
HETATM    6  C5  UNK     1      -2.466  -0.800   0.191  1.00  0.00     0.067 A 
HETATM    7  C2  UNK     1      -3.142  -1.260   1.322  1.00  0.00     0.092 A 
HETATM    8  C1  UNK     1      -2.481  -1.572   2.510  1.00  0.00     0.004 A 
HETATM    9  O1  UNK     1      -4.540  -1.397   1.208  1.00  0.00    -0.275 OA
HETATM   10  C3  UNK     1      -3.273  -2.050   3.652  1.00  0.00    -0.043 A 
HETATM   11  C6  UNK     1      -1.089  -1.409   2.542  1.00  0.00     0.017 A 
HETATM   12  C11 UNK     1      -2.591  -2.394   4.944  1.00  0.00     0.049 C 
HETATM   13  C8  UNK     1      -4.601  -2.171   3.515  1.00  0.00     0.090 A 
HETATM   14  C12 UNK     1      -5.313  -1.845   2.268  1.00  0.00     0.288 A 
HETATM   15  O2  UNK     1      -6.530  -1.968   2.180  1.00  0.00    -0.260 OA
HETATM   16  C7  UNK     1      -0.397  -0.949   1.416  1.00  0.00     0.030 A 
ENDBRANCH   3   5
ENDBRANCH   2   3
BRANCH   2  17
HETATM   17  N2  UNK     1       0.320   0.200  -3.111  1.00  0.00    -0.333 N 
HETATM   18  H15 UNK     1       0.268  -0.144  -4.067  1.00  0.00     0.168 HD
BRANCH  17  19
HETATM   19  C10 UNK     1       1.416   1.064  -2.867  1.00  0.00     0.034 A 
HETATM   20  C15 UNK     1       2.464   1.097  -3.769  1.00  0.00     0.030 A 
HETATM   21  C13 UNK     1       3.543   1.948  -3.529  1.00  0.00     0.010 A 
HETATM   22  C9  UNK     1       3.556   2.753  -2.390  1.00  0.00    -0.048 A 
HETATM   23  C14 UNK     1       2.491   2.707  -1.491  1.00  0.00     0.010 A 
HETATM   24  C16 UNK     1       1.412   1.856  -1.731  1.00  0.00     0.030 A 
BRANCH  22  25
HETATM   25  C17 UNK     1       4.710   3.663  -2.133  1.00  0.00     0.148 C 
BRANCH  25  26
HETATM   26  C19 UNK     1       5.818   3.020  -1.322  1.00  0.00     0.143 C 
HETATM   27  O4  UNK     1       5.789   1.885  -0.866  1.00  0.00    -0.650 OA
BRANCH  26  28
HETATM   28  O3  UNK     1       6.872   3.860  -1.150  1.00  0.00    -0.776 OA
HETATM   29  H16 UNK     1       7.588   3.444  -0.624  1.00  0.00     0.167 HD
ENDBRANCH  26  28
ENDBRANCH  25  26
ENDBRANCH  22  25
ENDBRANCH  17  19
ENDBRANCH   2  17
TORSDOF 7
