REMARK  2 active torsions:
REMARK  status: ('A' for Active; 'I' for Inactive)
REMARK       I    between atoms: C5_11  and  N1_6 
REMARK    1  A    between atoms: C7_13  and  N1_6 
REMARK    2  A    between atoms: C2_8  and  C5_11 
ROOT
HETATM    1  O2  UNK     1      -0.963  -0.816  -1.533  1.00  0.00    -0.267 OA
HETATM    2  N1  UNK     1      -0.808  -0.212   0.737  1.00  0.00    -0.323 N 
HETATM    3  C5  UNK     1      -0.396  -0.274  -0.586  1.00  0.00     0.262 C 
HETATM    4  H3  UNK     1      -0.230   0.298   1.401  1.00  0.00     0.169 HD
ENDROOT
BRANCH   3   5
HETATM    5  C2  UNK     1       0.882   0.416  -0.801  1.00  0.00     0.108 A 
HETATM    6  C4  UNK     1       1.067   0.954  -2.012  1.00  0.00     0.037 A 
HETATM    7  C1  UNK     1       2.303   1.658  -2.320  1.00  0.00    -0.001 A 
HETATM    8  C3  UNK     1       3.282   1.760  -1.338  1.00  0.00     0.089 A 
HETATM    9  C6  UNK     1       2.538   2.235  -3.570  1.00  0.00     0.014 A 
HETATM   10  O1  UNK     1       3.081   1.191  -0.065  1.00  0.00    -0.274 OA
HETATM   11  C9  UNK     1       4.487   2.420  -1.569  1.00  0.00     0.038 A 
HETATM   12  C8  UNK     1       1.910   0.512   0.259  1.00  0.00     0.304 A 
HETATM   13  O3  UNK     1       1.745   0.019   1.370  1.00  0.00    -0.259 OA
HETATM   14  C11 UNK     1       4.715   2.993  -2.819  1.00  0.00     0.003 A 
HETATM   15  C10 UNK     1       3.742   2.901  -3.817  1.00  0.00     0.001 A 
ENDBRANCH   3   5
BRANCH   2  16
HETATM   16  C7  UNK     1      -1.985  -0.762   1.302  1.00  0.00     0.038 A 
HETATM   17  C12 UNK     1      -2.866  -1.455   0.489  1.00  0.00     0.075 A 
HETATM   18  C14 UNK     1      -4.024  -1.997   1.046  1.00  0.00     0.157 A 
HETATM   19  F1  UNK     1      -4.888  -2.669   0.274  1.00  0.00    -0.203 F 
HETATM   20  C16 UNK     1      -4.284  -1.838   2.407  1.00  0.00     0.154 A 
HETATM   21  C15 UNK     1      -3.385  -1.137   3.212  1.00  0.00     0.048 A 
HETATM   22  F2  UNK     1      -5.397  -2.357   2.943  1.00  0.00    -0.203 F 
HETATM   23  C13 UNK     1      -2.227  -0.595   2.655  1.00  0.00     0.032 A 
ENDBRANCH   2  16
TORSDOF 2
