REMARK  7 active torsions:
REMARK  status: ('A' for Active; 'I' for Inactive)
REMARK    1  A    between atoms: C5_12  and  O1_1 
REMARK    2  A    between atoms: C9_16  and  O1_1 
REMARK    3  A    between atoms: C1_8  and  N1_6 
REMARK    4  A    between atoms: C3_10  and  N1_6 
REMARK    5  A    between atoms: C6_13  and  N2_7 
REMARK    6  A    between atoms: C3_10  and  C5_12 
REMARK    7  A    between atoms: C12_19  and  C8_15 
ROOT
HETATM    1  O2  UNK     1      -3.029  -1.920   2.848  1.00  0.00    -0.273 OA
HETATM    2  O3  UNK     1      -1.410  -1.349   4.351  1.00  0.00    -0.257 OA
HETATM    3  C1  UNK     1      -1.556  -0.500   0.839  1.00  0.00     0.081 A 
HETATM    4  C2  UNK     1      -2.841  -1.174   0.519  1.00  0.00     0.027 A 
HETATM    5  C4  UNK     1      -3.525  -1.857   1.530  1.00  0.00     0.092 A 
HETATM    6  C6  UNK     1      -1.148  -0.600   2.115  1.00  0.00     0.205 A 
HETATM    7  C7  UNK     1      -3.434  -1.174  -0.755  1.00  0.00     0.017 A 
HETATM    8  C10 UNK     1      -1.842  -1.303   3.204  1.00  0.00     0.324 A 
HETATM    9  C11 UNK     1      -4.738  -2.516   1.309  1.00  0.00     0.038 A 
HETATM   10  C13 UNK     1      -4.650  -1.830  -0.992  1.00  0.00     0.001 A 
HETATM   11  C14 UNK     1      -5.301  -2.501   0.039  1.00  0.00     0.003 A 
ENDROOT
BRANCH   3  12
HETATM   12  N1  UNK     1      -0.902   0.156  -0.172  1.00  0.00    -0.385 N 
HETATM   13  H3  UNK     1      -0.122   0.759   0.059  1.00  0.00     0.159 HD
BRANCH  12  14
HETATM   14  C3  UNK     1      -1.143  -0.105  -1.564  1.00  0.00     0.146 C 
BRANCH  14  15
HETATM   15  C5  UNK     1       0.129   0.121  -2.363  1.00  0.00     0.195 C 
BRANCH  15  16
HETATM   16  O1  UNK     1       0.534   1.478  -2.236  1.00  0.00    -0.350 OA
BRANCH  16  17
HETATM   17  C9  UNK     1       1.878   1.732  -2.320  1.00  0.00     0.068 A 
HETATM   18  C17 UNK     1       2.418   2.810  -1.627  1.00  0.00     0.037 A 
HETATM   19  C15 UNK     1       3.786   3.070  -1.713  1.00  0.00     0.010 A 
HETATM   20  C8  UNK     1       4.604   2.251  -2.491  1.00  0.00    -0.058 A 
HETATM   21  C16 UNK     1       4.055   1.172  -3.184  1.00  0.00     0.010 A 
HETATM   22  C18 UNK     1       2.687   0.912  -3.098  1.00  0.00     0.037 A 
BRANCH  20  23
HETATM   23  C12 UNK     1       6.066   2.528  -2.583  1.00  0.00     0.034 C 
HETATM   24  C19 UNK     1       6.408   3.469  -3.735  1.00  0.00     0.010 C 
ENDBRANCH  20  23
ENDBRANCH  16  17
ENDBRANCH  15  16
ENDBRANCH  14  15
ENDBRANCH  12  14
ENDBRANCH   3  12
BRANCH   6  25
HETATM   25  N2  UNK     1       0.083   0.036   2.462  1.00  0.00    -0.107 N 
HETATM   26  O4  UNK     1       0.681   0.632   1.560  1.00  0.00    -0.531 OA
HETATM   27  O5  UNK     1       0.452  -0.060   3.638  1.00  0.00    -0.531 OA
ENDBRANCH   6  25
TORSDOF 7
