REMARK  3 active torsions:
REMARK  status: ('A' for Active; 'I' for Inactive)
REMARK    1  A    between atoms: C9_13  and  O2_2 
REMARK    2  A    between atoms: C10_14  and  O4_4 
REMARK    3  A    between atoms: C3_7  and  C5_9 
ROOT
HETATM    1  O1  UNK     1       0.155   0.831   0.331  1.00  0.00    -0.309 OA
HETATM    2  O3  UNK     1      -1.882  -1.645  -2.183  1.00  0.00    -0.287 OA
HETATM    3  C1  UNK     1      -1.659  -0.748  -0.009  1.00  0.00     0.051 A 
HETATM    4  C2  UNK     1      -0.918   0.115   0.797  1.00  0.00     0.093 A 
HETATM    5  C3  UNK     1       0.511   0.694  -1.003  1.00  0.00     0.090 A 
HETATM    6  C4  UNK     1      -1.279  -0.902  -1.421  1.00  0.00     0.187 A 
HETATM    7  C6  UNK     1      -0.119  -0.108  -1.875  1.00  0.00     0.093 A 
HETATM    8  C7  UNK     1      -2.743  -1.452   0.521  1.00  0.00     0.057 A 
HETATM    9  C8  UNK     1      -1.257   0.278   2.140  1.00  0.00     0.077 A 
HETATM   10  C9  UNK     1      -3.080  -1.287   1.864  1.00  0.00     0.099 A 
HETATM   11  C10 UNK     1      -2.339  -0.424   2.673  1.00  0.00     0.101 A 
ENDROOT
BRANCH   5  12
HETATM   12  C5  UNK     1       1.682   1.504  -1.397  1.00  0.00    -0.002 A 
HETATM   13  C11 UNK     1       2.540   1.053  -2.403  1.00  0.00     0.014 A 
HETATM   14  C13 UNK     1       3.645   1.818  -2.775  1.00  0.00     0.001 A 
HETATM   15  C15 UNK     1       3.896   3.036  -2.143  1.00  0.00     0.000 A 
HETATM   16  C14 UNK     1       3.041   3.489  -1.138  1.00  0.00     0.001 A 
HETATM   17  C12 UNK     1       1.936   2.724  -0.766  1.00  0.00     0.014 A 
ENDBRANCH   5  12
BRANCH  11  18
HETATM   18  O4  UNK     1      -2.662  -0.258   3.986  1.00  0.00    -0.358 OA
HETATM   19  H10 UNK     1      -2.042   0.374   4.388  1.00  0.00     0.217 HD
ENDBRANCH  11  18
BRANCH  10  20
HETATM   20  O2  UNK     1      -4.138  -1.976   2.378  1.00  0.00    -0.358 OA
HETATM   21  H9  UNK     1      -4.228  -1.742   3.318  1.00  0.00     0.217 HD
ENDBRANCH  10  20
TORSDOF 3
