REMARK  7 active torsions:
REMARK  status: ('A' for Active; 'I' for Inactive)
REMARK    1  A    between atoms: C2_7  and  O1_1 
REMARK    2  A    between atoms: C5_10  and  O2_2 
REMARK    3  A    between atoms: C3_8  and  O3_3 
REMARK    4  A    between atoms: C13_18  and  O5_5 
REMARK    5  A    between atoms: C1_6  and  C6_11 
REMARK    6  A    between atoms: C6_11  and  C9_14 
REMARK    7  A    between atoms: C10_15  and  C8_13 
ROOT
HETATM    1  C1  UNK     1      -1.591  -0.681   0.192  1.00  0.00     0.081 A 
HETATM    2  C2  UNK     1      -1.466  -0.512   1.571  1.00  0.00     0.087 A 
HETATM    3  C3  UNK     1      -2.822  -1.040  -0.358  1.00  0.00     0.085 A 
HETATM    4  C4  UNK     1      -2.572  -0.702   2.400  1.00  0.00     0.074 A 
HETATM    5  C5  UNK     1      -3.803  -1.061   1.850  1.00  0.00     0.073 A 
HETATM    6  C7  UNK     1      -3.928  -1.230   0.471  1.00  0.00     0.074 A 
ENDROOT
BRANCH   1   7
HETATM    7  C6  UNK     1      -0.416  -0.478  -0.688  1.00  0.00     0.187 C 
HETATM    8  O4  UNK     1      -0.462   0.363  -1.580  1.00  0.00    -0.287 OA
BRANCH   7   9
HETATM    9  C9  UNK     1       0.775  -1.344  -0.463  1.00  0.00     0.056 C 
HETATM   10  C10 UNK     1       2.013  -0.896  -0.771  1.00  0.00     0.015 C 
BRANCH  10  11
HETATM   11  C8  UNK     1       2.317   0.412  -1.329  1.00  0.00    -0.036 A 
HETATM   12  C11 UNK     1       1.976   1.567  -0.625  1.00  0.00     0.014 A 
HETATM   13  C14 UNK     1       2.269   2.821  -1.160  1.00  0.00     0.037 A 
HETATM   14  C13 UNK     1       2.903   2.921  -2.399  1.00  0.00     0.068 A 
HETATM   15  C15 UNK     1       3.244   1.765  -3.102  1.00  0.00     0.037 A 
HETATM   16  C12 UNK     1       2.951   0.511  -2.568  1.00  0.00     0.014 A 
BRANCH  14  17
HETATM   17  O5  UNK     1       3.190   4.145  -2.920  1.00  0.00    -0.356 OA
HETATM   18  C18 UNK     1       2.814   5.284  -2.148  1.00  0.00     0.210 C 
ENDBRANCH  14  17
ENDBRANCH  10  11
ENDBRANCH   7   9
ENDBRANCH   1   7
BRANCH   2  19
HETATM   19  O1  UNK     1      -0.274  -0.163   2.130  1.00  0.00    -0.355 OA
HETATM   20  C16 UNK     1      -0.242  -0.013   3.548  1.00  0.00     0.210 C 
ENDBRANCH   2  19
BRANCH   3  21
HETATM   21  O3  UNK     1      -2.966  -1.208  -1.703  1.00  0.00    -0.360 OA
HETATM   22  H9  UNK     1      -2.122  -1.054  -2.158  1.00  0.00     0.217 HD
ENDBRANCH   3  21
BRANCH   5  23
HETATM   23  O2  UNK     1      -4.882  -1.245   2.658  1.00  0.00    -0.356 OA
HETATM   24  C17 UNK     1      -4.684  -1.056   4.059  1.00  0.00     0.210 C 
ENDBRANCH   5  23
TORSDOF 7
