REMARK  1 active torsions:
REMARK  status: ('A' for Active; 'I' for Inactive)
REMARK    1  A    between atoms: C1_4  and  C2_5 
ROOT
HETATM    1  O1  UNK     1      -1.358  -0.660   1.488  1.00  0.00    -0.314 OA
HETATM    2  O2  UNK     1       2.653   1.413  -0.250  1.00  0.00    -0.275 OA
HETATM    3  O3  UNK     1       4.511   2.386  -1.171  1.00  0.00    -0.260 OA
HETATM    4  C2  UNK     1      -2.479  -1.112   0.868  1.00  0.00     0.058 A 
HETATM    5  C3  UNK     1      -1.140  -0.301  -0.732  1.00  0.00     0.001 A 
HETATM    6  C4  UNK     1      -0.540  -0.165   0.516  1.00  0.00     0.088 A 
HETATM    7  C5  UNK     1      -2.397  -0.917  -0.491  1.00  0.00     0.047 A 
HETATM    8  C6  UNK     1      -0.446   0.153  -1.871  1.00  0.00     0.028 A 
HETATM    9  C7  UNK     1       0.824   0.727  -1.705  1.00  0.00    -0.001 A 
HETATM   10  C10 UNK     1       0.716   0.398   0.725  1.00  0.00     0.076 A 
HETATM   11  C11 UNK     1       1.374   0.837  -0.428  1.00  0.00     0.092 A 
HETATM   12  C12 UNK     1       1.591   1.214  -2.841  1.00  0.00     0.020 A 
HETATM   13  C13 UNK     1       2.798   1.756  -2.661  1.00  0.00     0.083 A 
HETATM   14  C14 UNK     1       3.402   1.885  -1.323  1.00  0.00     0.288 A 
ENDROOT
BRANCH   4  15
HETATM   15  C1  UNK     1      -3.511  -1.694   1.737  1.00  0.00     0.035 C 
HETATM   16  C8  UNK     1      -3.036  -2.960   2.495  1.00  0.00     0.016 C 
HETATM   17  C9  UNK     1      -4.098  -0.686   2.757  1.00  0.00     0.016 C 
ENDBRANCH   4  15
TORSDOF 1
