REMARK  1 active torsions:
REMARK  status: ('A' for Active; 'I' for Inactive)
REMARK    1  A    between atoms: C4_7  and  N1_3 
ROOT
HETATM    1  O1  UNK     1      -0.763  -0.379   1.463  1.00  0.00    -0.275 OA
HETATM    2  O2  UNK     1      -2.762  -1.372   1.976  1.00  0.00    -0.260 OA
HETATM    3  C1  UNK     1      -0.255   0.126  -0.864  1.00  0.00     0.000 A 
HETATM    4  C2  UNK     1       0.106   0.140   0.481  1.00  0.00     0.089 A 
HETATM    5  C3  UNK     1       0.632   0.649  -1.807  1.00  0.00     0.043 A 
HETATM    6  C4  UNK     1       1.860   1.174  -1.394  1.00  0.00     0.026 A 
HETATM    7  C5  UNK     1       1.326   0.660   0.907  1.00  0.00     0.040 A 
HETATM    8  C6  UNK     1      -1.544  -0.433  -1.237  1.00  0.00     0.020 A 
HETATM    9  C7  UNK     1       2.206   1.180  -0.041  1.00  0.00     0.032 A 
HETATM   10  C8  UNK     1      -2.361  -0.922  -0.302  1.00  0.00     0.083 A 
HETATM   11  C9  UNK     1      -2.001  -0.918   1.129  1.00  0.00     0.288 A 
ENDROOT
BRANCH   6  12
HETATM   12  N1  UNK     1       2.755   1.702  -2.349  1.00  0.00    -0.399 N 
HETATM   13  H6  UNK     1       2.508   1.699  -3.330  1.00  0.00     0.156 HD
HETATM   14  H7  UNK     1       3.644   2.083  -2.054  1.00  0.00     0.156 HD
ENDBRANCH   6  12
TORSDOF 1
