REMARK  2 active torsions:
REMARK  status: ('A' for Active; 'I' for Inactive)
REMARK    1  A    between atoms: C5_12  and  N1_7 
REMARK       I    between atoms: C6_13  and  N1_7 
REMARK    2  A    between atoms: C2_9  and  C6_13 
ROOT
HETATM    1  O2  UNK     1      -0.961  -0.650  -1.728  1.00  0.00    -0.267 OA
HETATM    2  N1  UNK     1      -0.728  -0.231   0.578  1.00  0.00    -0.321 N 
HETATM    3  C6  UNK     1      -0.350  -0.204  -0.758  1.00  0.00     0.262 C 
HETATM    4  H3  UNK     1      -0.116   0.203   1.265  1.00  0.00     0.169 HD
ENDROOT
BRANCH   3   5
HETATM    5  C2  UNK     1       0.947   0.453  -0.954  1.00  0.00     0.108 A 
HETATM    6  C4  UNK     1       1.123   1.078  -2.124  1.00  0.00     0.037 A 
HETATM    7  C1  UNK     1       2.376   1.758  -2.412  1.00  0.00    -0.001 A 
HETATM    8  C3  UNK     1       3.383   1.747  -1.452  1.00  0.00     0.089 A 
HETATM    9  C7  UNK     1       2.603   2.422  -3.620  1.00  0.00     0.014 A 
HETATM   10  O1  UNK     1       3.192   1.089  -0.222  1.00  0.00    -0.274 OA
HETATM   11  C9  UNK     1       4.606   2.380  -1.665  1.00  0.00     0.038 A 
HETATM   12  C8  UNK     1       2.004   0.429   0.082  1.00  0.00     0.304 A 
HETATM   13  O3  UNK     1       1.847  -0.142   1.155  1.00  0.00    -0.259 OA
HETATM   14  C13 UNK     1       4.824   3.039  -2.873  1.00  0.00     0.003 A 
HETATM   15  C12 UNK     1       3.825   3.061  -3.848  1.00  0.00     0.001 A 
ENDBRANCH   3   5
BRANCH   2  16
HETATM   16  C5  UNK     1      -1.910  -0.780   1.131  1.00  0.00     0.058 A 
HETATM   17  C10 UNK     1      -2.145  -0.729   2.495  1.00  0.00     0.062 A 
HETATM   18 Cl1  UNK     1      -1.027  -0.001   3.594  1.00  0.00    -0.082 Cl
HETATM   19  C15 UNK     1      -3.319  -1.281   3.008  1.00  0.00     0.051 A 
HETATM   20  C16 UNK     1      -4.243  -1.876   2.150  1.00  0.00     0.057 A 
HETATM   21  C14 UNK     1      -3.993  -1.921   0.778  1.00  0.00     0.058 A 
HETATM   22 Cl3  UNK     1      -5.677  -2.546   2.846  1.00  0.00    -0.082 Cl
HETATM   23  C11 UNK     1      -2.819  -1.369   0.265  1.00  0.00     0.057 A 
HETATM   24 Cl2  UNK     1      -5.096  -2.648  -0.336  1.00  0.00    -0.082 Cl
ENDBRANCH   2  16
TORSDOF 2
