REMARK  6 active torsions:
REMARK  status: ('A' for Active; 'I' for Inactive)
REMARK    1  A    between atoms: C1_10  and  O1_3 
REMARK    2  A    between atoms: C3_12  and  O1_3 
REMARK       I    between atoms: C5_14  and  N1_8 
REMARK    3  A    between atoms: N1_8  and  N2_9 
REMARK       I    between atoms: C19_28  and  N2_9 
REMARK    4  A    between atoms: C1_10  and  C2_11 
REMARK    5  A    between atoms: C1_10  and  C5_14 
REMARK    6  A    between atoms: C14_23  and  C19_28 
ROOT
HETATM    1  O3  UNK     1       0.036   1.878  -0.147  1.00  0.00    -0.269 OA
HETATM    2  N1  UNK     1       0.301  -0.352   0.434  1.00  0.00    -0.265 N 
HETATM    3  C5  UNK     1       0.747   0.889   0.022  1.00  0.00     0.265 C 
HETATM    4  H10 UNK     1       0.899  -1.167   0.524  1.00  0.00     0.190 HD
ENDROOT
BRANCH   2   5
HETATM    5  N2  UNK     1      -1.037  -0.530   0.684  1.00  0.00    -0.263 N 
HETATM    6  C19 UNK     1      -1.417  -1.454   1.631  1.00  0.00     0.276 C 
HETATM    7  O4  UNK     1      -0.677  -2.165   2.303  1.00  0.00    -0.266 OA
HETATM    8  H15 UNK     1      -1.681   0.014   0.119  1.00  0.00     0.190 HD
BRANCH   6   9
HETATM    9  C14 UNK     1      -2.881  -1.532   1.785  1.00  0.00     0.110 A 
HETATM   10  C16 UNK     1      -3.375  -2.721   2.152  1.00  0.00     0.037 A 
HETATM   11  C13 UNK     1      -4.808  -2.896   2.330  1.00  0.00     0.000 A 
HETATM   12  C15 UNK     1      -5.651  -1.811   2.112  1.00  0.00     0.089 A 
HETATM   13  C20 UNK     1      -5.367  -4.118   2.711  1.00  0.00     0.033 A 
HETATM   14  O2  UNK     1      -5.125  -0.562   1.727  1.00  0.00    -0.274 OA
HETATM   15  C22 UNK     1      -7.032  -1.912   2.264  1.00  0.00     0.039 A 
HETATM   16  C21 UNK     1      -3.758  -0.364   1.549  1.00  0.00     0.304 A 
HETATM   17  O5  UNK     1      -3.309   0.727   1.212  1.00  0.00    -0.259 OA
HETATM   18  C24 UNK     1      -7.582  -3.134   2.645  1.00  0.00     0.022 A 
HETATM   19  C23 UNK     1      -6.751  -4.235   2.868  1.00  0.00     0.011 A 
HETATM   20 Br2  UNK     1      -7.504  -5.891   3.386  1.00  0.00    -0.051 Br
ENDBRANCH   6   9
ENDBRANCH   2   5
BRANCH   3  21
HETATM   21  C1  UNK     1       2.256   0.922  -0.192  1.00  0.00     0.222 C 
BRANCH  21  22
HETATM   22  O1  UNK     1       2.641   2.206  -0.653  1.00  0.00    -0.335 OA
BRANCH  22  23
HETATM   23  C3  UNK     1       3.217   2.274  -1.896  1.00  0.00     0.088 A 
HETATM   24  C9  UNK     1       2.468   1.827  -2.976  1.00  0.00     0.039 A 
HETATM   25  C10 UNK     1       3.009   1.875  -4.262  1.00  0.00     0.015 A 
HETATM   26  C6  UNK     1       4.305   2.371  -4.475  1.00  0.00    -0.024 A 
HETATM   27  C12 UNK     1       4.866   2.427  -5.762  1.00  0.00     0.012 A 
HETATM   28  C4  UNK     1       5.063   2.825  -3.370  1.00  0.00    -0.006 A 
HETATM   29  C18 UNK     1       6.155   2.924  -5.955  1.00  0.00     0.001 A 
HETATM   30  C17 UNK     1       6.901   3.370  -4.868  1.00  0.00     0.001 A 
HETATM   31  C11 UNK     1       6.360   3.321  -3.583  1.00  0.00     0.014 A 
HETATM   32  C7  UNK     1       4.503   2.769  -2.083  1.00  0.00     0.055 A 
HETATM   33 Br1  UNK     1       5.445   3.358  -0.520  1.00  0.00    -0.047 Br
ENDBRANCH  22  23
ENDBRANCH  21  22
BRANCH  21  34
HETATM   34  C2  UNK     1       3.037   0.588   1.082  1.00  0.00     0.038 C 
HETATM   35  C8  UNK     1       2.763   1.544   2.237  1.00  0.00     0.008 C 
ENDBRANCH  21  34
ENDBRANCH   3  21
TORSDOF 6
