REMARK  4 active torsions:
REMARK  status: ('A' for Active; 'I' for Inactive)
REMARK    1  A    between atoms: C13_19  and  O3_3 
REMARK    2  A    between atoms: N1_5  and  N2_6 
REMARK       I    between atoms: C15_21  and  N2_6 
REMARK    3  A    between atoms: C11_17  and  C7_13 
REMARK    4  A    between atoms: C12_18  and  C15_21 
ROOT
HETATM    1  N1  UNK     1       0.584   0.532  -0.348  1.00  0.00    -0.183 NA
HETATM    2  C11 UNK     1       0.481   0.163   0.888  1.00  0.00     0.156 C 
ENDROOT
BRANCH   1   3
HETATM    3  N2  UNK     1       1.773   1.103  -0.655  1.00  0.00    -0.243 N 
HETATM    4  C15 UNK     1       1.997   1.501  -1.960  1.00  0.00     0.274 C 
HETATM    5  O4  UNK     1       1.191   1.377  -2.879  1.00  0.00    -0.266 OA
HETATM    6  H12 UNK     1       2.468   1.161   0.082  1.00  0.00     0.192 HD
BRANCH   4   7
HETATM    7  C12 UNK     1       3.329   2.100  -2.234  1.00  0.00     0.066 A 
HETATM    8  C13 UNK     1       3.899   1.962  -3.483  1.00  0.00     0.081 A 
HETATM    9  C16 UNK     1       5.151   2.531  -3.720  1.00  0.00     0.037 A 
HETATM   10  C18 UNK     1       5.805   3.225  -2.702  1.00  0.00     0.003 A 
HETATM   11  C17 UNK     1       5.208   3.351  -1.448  1.00  0.00     0.001 A 
HETATM   12  C14 UNK     1       3.957   2.782  -1.211  1.00  0.00     0.020 A 
BRANCH   8  13
HETATM   13  O3  UNK     1       3.277   1.287  -4.490  1.00  0.00    -0.360 OA
HETATM   14  H14 UNK     1       3.841   1.305  -5.282  1.00  0.00     0.217 HD
ENDBRANCH   8  13
ENDBRANCH   4   7
ENDBRANCH   1   3
BRANCH   2  15
HETATM   15  C7  UNK     1      -0.724  -0.474   1.419  1.00  0.00     0.056 A 
HETATM   16  C5  UNK     1      -1.928  -0.756   0.606  1.00  0.00     0.198 A 
HETATM   17  C1  UNK     1      -3.048  -1.404   1.314  1.00  0.00     0.049 A 
HETATM   18  O2  UNK     1      -1.993  -0.469  -0.581  1.00  0.00    -0.286 OA
HETATM   19  C2  UNK     1      -2.910  -1.705   2.671  1.00  0.00     0.089 A 
HETATM   20  C4  UNK     1      -4.231  -1.715   0.641  1.00  0.00     0.025 A 
HETATM   21  O1  UNK     1      -1.770  -1.423   3.383  1.00  0.00    -0.321 OA
HETATM   22  C6  UNK     1      -3.957  -2.318   3.360  1.00  0.00     0.039 A 
HETATM   23  C9  UNK     1      -0.733  -0.819   2.711  1.00  0.00     0.159 A 
HETATM   24  C8  UNK     1      -5.140  -2.628   2.689  1.00  0.00     0.009 A 
HETATM   25  C3  UNK     1      -5.277  -2.328   1.333  1.00  0.00    -0.061 A 
HETATM   26  C10 UNK     1      -6.545  -2.663   0.622  1.00  0.00     0.048 C 
ENDBRANCH   2  15
TORSDOF 4
