REMARK  1 active torsions:
REMARK  status: ('A' for Active; 'I' for Inactive)
REMARK       I    between atoms: C6_10  and  N1_4 
REMARK    1  A    between atoms: C6_10  and  C9_13 
ROOT
HETATM    1  O1  UNK     1       1.540   0.064   2.495  1.00  0.00    -0.267 OA
HETATM    2  N1  UNK     1      -0.335  -0.729   1.360  1.00  0.00    -0.343 N 
HETATM    3  C1  UNK     1      -0.719  -1.631   2.447  1.00  0.00     0.131 C 
HETATM    4  C2  UNK     1      -2.179  -1.431   2.831  1.00  0.00     0.059 C 
HETATM    5  C3  UNK     1      -1.161  -0.787   0.142  1.00  0.00     0.165 C 
HETATM    6  C4  UNK     1      -3.071  -1.572   1.628  1.00  0.00    -0.049 A 
HETATM    7  C5  UNK     1      -2.580  -1.258   0.350  1.00  0.00    -0.034 A 
HETATM    8  C6  UNK     1       0.843   0.010   1.480  1.00  0.00     0.260 C 
HETATM    9  C7  UNK     1      -4.405  -1.972   1.782  1.00  0.00     0.008 A 
HETATM   10  C8  UNK     1      -3.430  -1.375  -0.759  1.00  0.00     0.009 A 
HETATM   11  C10 UNK     1      -5.240  -2.085   0.671  1.00  0.00     0.001 A 
HETATM   12  C11 UNK     1      -4.752  -1.789  -0.599  1.00  0.00     0.001 A 
ENDROOT
BRANCH   8  13
HETATM   13  C9  UNK     1       1.287   0.777   0.298  1.00  0.00     0.108 A 
HETATM   14  C12 UNK     1       2.099   0.136  -0.551  1.00  0.00     0.037 A 
HETATM   15  C13 UNK     1       2.590   0.808  -1.744  1.00  0.00    -0.001 A 
HETATM   16  C15 UNK     1       2.203   2.123  -1.984  1.00  0.00     0.089 A 
HETATM   17  C16 UNK     1       3.439   0.178  -2.658  1.00  0.00     0.014 A 
HETATM   18  O2  UNK     1       1.348   2.792  -1.087  1.00  0.00    -0.274 OA
HETATM   19  C17 UNK     1       2.638   2.823  -3.108  1.00  0.00     0.038 A 
HETATM   20  C14 UNK     1       0.862   2.175   0.063  1.00  0.00     0.304 A 
HETATM   21  O3  UNK     1       0.119   2.766   0.839  1.00  0.00    -0.259 OA
HETATM   22  C19 UNK     1       3.484   2.187  -4.013  1.00  0.00     0.003 A 
HETATM   23  C18 UNK     1       3.884   0.868  -3.790  1.00  0.00     0.001 A 
ENDBRANCH   8  13
TORSDOF 1
