REMARK  4 active torsions:
REMARK  status: ('A' for Active; 'I' for Inactive)
REMARK    1  A    between atoms: C4_7  and  O1_2 
REMARK    2  A    between atoms: C1_4  and  C3_6 
REMARK    3  A    between atoms: C2_5  and  C5_8 
REMARK    4  A    between atoms: C3_6  and  C7_10 
ROOT
HETATM    1  O2  UNK     1       0.076  -0.591  -0.311  1.00  0.00    -0.287 OA
HETATM    2  C3  UNK     1      -0.449  -0.162   0.711  1.00  0.00     0.184 C 
ENDROOT
BRANCH   2   3
HETATM    3  C1  UNK     1      -1.818  -0.600   1.075  1.00  0.00     0.047 A 
HETATM    4  C4  UNK     1      -2.296  -1.851   0.685  1.00  0.00     0.079 A 
HETATM    5  C10 UNK     1      -3.587  -2.245   1.037  1.00  0.00     0.037 A 
HETATM    6  C12 UNK     1      -4.400  -1.387   1.779  1.00  0.00     0.003 A 
HETATM    7  C11 UNK     1      -3.921  -0.136   2.169  1.00  0.00     0.001 A 
HETATM    8  C6  UNK     1      -2.630   0.257   1.817  1.00  0.00     0.018 A 
BRANCH   4   9
HETATM    9  O1  UNK     1      -1.517  -2.704  -0.039  1.00  0.00    -0.360 OA
HETATM   10  H11 UNK     1      -2.017  -3.519  -0.214  1.00  0.00     0.217 HD
ENDBRANCH   4   9
ENDBRANCH   2   3
BRANCH   2  11
HETATM   11  C7  UNK     1       0.248   0.771   1.640  1.00  0.00     0.056 C 
HETATM   12  C5  UNK     1       1.173   1.638   1.170  1.00  0.00     0.015 C 
BRANCH  12  13
HETATM   13  C2  UNK     1       1.579   1.758  -0.221  1.00  0.00    -0.036 A 
HETATM   14  C8  UNK     1       2.909   1.540  -0.581  1.00  0.00     0.012 A 
HETATM   15  C13 UNK     1       3.299   1.657  -1.916  1.00  0.00     0.020 A 
HETATM   16  C15 UNK     1       2.358   1.991  -2.890  1.00  0.00     0.011 A 
HETATM   17 Br1  UNK     1       2.886   2.149  -4.698  1.00  0.00    -0.051 Br
HETATM   18  C14 UNK     1       1.028   2.208  -2.530  1.00  0.00     0.020 A 
HETATM   19  C9  UNK     1       0.639   2.092  -1.196  1.00  0.00     0.012 A 
ENDBRANCH  12  13
ENDBRANCH   2  11
TORSDOF 4
