REMARK  7 active torsions:
REMARK  status: ('A' for Active; 'I' for Inactive)
REMARK    1  A    between atoms: C15_22  and  O3_3 
REMARK    2  A    between atoms: C22_29  and  O3_3 
REMARK    3  A    between atoms: C5_12  and  N1_5 
REMARK    4  A    between atoms: C6_13  and  N2_6 
REMARK    5  A    between atoms: C17_24  and  N3_7 
REMARK       I    between atoms: C9_16  and  N3_7 
REMARK    6  A    between atoms: C5_12  and  C7_14 
REMARK    7  A    between atoms: C6_13  and  C9_16 
ROOT
HETATM    1  N1  UNK     1       1.482  -0.248  -0.646  1.00  0.00     0.096 N 
HETATM    2  N2  UNK     1      -0.371  -1.140   1.386  1.00  0.00     0.100 N 
HETATM    3  C1  UNK     1       0.137  -0.722  -0.995  1.00  0.00     0.303 C 
HETATM    4  C2  UNK     1       1.953  -0.902   0.582  1.00  0.00     0.303 C 
HETATM    5  C3  UNK     1      -0.842  -0.486   0.159  1.00  0.00     0.303 C 
HETATM    6  C4  UNK     1       0.973  -0.665   1.736  1.00  0.00     0.303 C 
ENDROOT
BRANCH   1   7
HETATM    7  C5  UNK     1       2.416  -0.478  -1.747  1.00  0.00     0.312 C 
BRANCH   7   8
HETATM    8  C7  UNK     1       2.300   0.561  -2.808  1.00  0.00    -0.011 A 
HETATM    9  C10 UNK     1       1.457   0.406  -3.839  1.00  0.00     0.092 A 
HETATM   10  C13 UNK     1       1.308   1.405  -4.911  1.00  0.00     0.288 A 
HETATM   11  O1  UNK     1       2.092   2.544  -4.815  1.00  0.00    -0.275 OA
HETATM   12  O4  UNK     1       0.526   1.229  -5.839  1.00  0.00    -0.260 OA
HETATM   13  C11 UNK     1       2.987   2.734  -3.743  1.00  0.00     0.090 A 
HETATM   14  C8  UNK     1       3.118   1.779  -2.734  1.00  0.00     0.009 A 
HETATM   15  C14 UNK     1       3.726   3.919  -3.750  1.00  0.00     0.041 A 
HETATM   16  C12 UNK     1       4.031   2.043  -1.704  1.00  0.00     0.051 A 
HETATM   17  C15 UNK     1       4.779   3.225  -1.697  1.00  0.00     0.069 A 
HETATM   18  C16 UNK     1       4.627   4.162  -2.718  1.00  0.00     0.039 A 
BRANCH  17  19
HETATM   19  O3  UNK     1       5.661   3.462  -0.687  1.00  0.00    -0.351 OA
BRANCH  19  20
HETATM   20  C22 UNK     1       5.353   2.901   0.588  1.00  0.00     0.171 C 
HETATM   21  C24 UNK     1       5.938   3.784   1.669  1.00  0.00     0.034 C 
ENDBRANCH  19  20
ENDBRANCH  17  19
ENDBRANCH   7   8
ENDBRANCH   1   7
BRANCH   2  22
HETATM   22  C6  UNK     1      -1.305  -0.913   2.487  1.00  0.00     0.375 C 
BRANCH  22  23
HETATM   23  C9  UNK     1      -2.476  -1.872   2.362  1.00  0.00     0.250 C 
HETATM   24  O2  UNK     1      -2.368  -2.986   1.858  1.00  0.00    -0.271 OA
HETATM   25  N3  UNK     1      -3.628  -1.299   2.897  1.00  0.00    -0.326 N 
HETATM   26  H15 UNK     1      -3.552  -0.363   3.290  1.00  0.00     0.169 HD
BRANCH  25  27
HETATM   27  C17 UNK     1      -4.921  -1.868   2.972  1.00  0.00     0.034 A 
HETATM   28  C18 UNK     1      -5.968  -1.146   3.545  1.00  0.00     0.030 A 
HETATM   29  C20 UNK     1      -7.243  -1.707   3.619  1.00  0.00     0.009 A 
HETATM   30  C23 UNK     1      -7.472  -2.989   3.119  1.00  0.00    -0.062 A 
HETATM   31  C21 UNK     1      -6.424  -3.711   2.546  1.00  0.00     0.009 A 
HETATM   32  C25 UNK     1      -8.835  -3.588   3.198  1.00  0.00     0.048 C 
HETATM   33  C19 UNK     1      -5.149  -3.150   2.473  1.00  0.00     0.030 A 
ENDBRANCH  25  27
ENDBRANCH  22  23
ENDBRANCH   2  22
TORSDOF 7
