REMARK  8 active torsions:
REMARK  status: ('A' for Active; 'I' for Inactive)
REMARK    1  A    between atoms: C6_10  and  N1_4 
REMARK       I    between atoms: C9_13  and  N1_4 
REMARK    2  A    between atoms: C1_5  and  C2_6 
REMARK    3  A    between atoms: C1_5  and  C3_7 
REMARK    4  A    between atoms: C2_6  and  C4_8 
REMARK    5  A    between atoms: C3_7  and  C5_9 
REMARK    6  A    between atoms: C4_8  and  C6_10 
REMARK    7  A    between atoms: C5_9  and  C7_11 
REMARK    8  A    between atoms: C10_14  and  C9_13 
ROOT
HETATM    1  O2  UNK     1      -1.393  -1.527  -2.305  1.00  0.00    -0.267 OA
HETATM    2  N1  UNK     1      -0.986   0.738  -1.927  1.00  0.00    -0.357 N 
HETATM    3  C9  UNK     1      -1.345  -0.550  -1.566  1.00  0.00     0.257 C 
HETATM    4  H15 UNK     1      -1.002   1.483  -1.237  1.00  0.00     0.162 HD
ENDROOT
BRANCH   3   5
HETATM    5  C10 UNK     1      -1.686  -0.672  -0.137  1.00  0.00     0.108 A 
HETATM    6  C14 UNK     1      -1.069   0.191   0.895  1.00  0.00     0.304 A 
HETATM    7  O1  UNK     1      -1.472  -0.020   2.210  1.00  0.00    -0.274 OA
HETATM    8  O3  UNK     1      -0.243   1.052   0.610  1.00  0.00    -0.259 OA
HETATM    9  C13 UNK     1      -2.421  -1.005   2.548  1.00  0.00     0.089 A 
HETATM   10  C11 UNK     1      -2.989  -1.806   1.563  1.00  0.00    -0.001 A 
HETATM   11  C16 UNK     1      -2.762  -1.141   3.892  1.00  0.00     0.038 A 
HETATM   12  C12 UNK     1      -2.588  -1.610   0.178  1.00  0.00     0.037 A 
HETATM   13  C15 UNK     1      -3.926  -2.772   1.937  1.00  0.00     0.014 A 
HETATM   14  C17 UNK     1      -4.278  -2.921   3.282  1.00  0.00     0.001 A 
HETATM   15  C18 UNK     1      -3.697  -2.107   4.257  1.00  0.00     0.003 A 
ENDBRANCH   3   5
BRANCH   2  16
HETATM   16  C6  UNK     1      -0.610   1.101  -3.265  1.00  0.00     0.123 C 
BRANCH  16  17
HETATM   17  C4  UNK     1       0.889   0.957  -3.510  1.00  0.00     0.020 C 
BRANCH  17  18
HETATM   18  C2  UNK     1       1.724   1.855  -2.591  1.00  0.00     0.002 C 
BRANCH  18  19
HETATM   19  C1  UNK     1       3.230   1.771  -2.860  1.00  0.00     0.000 C 
BRANCH  19  20
HETATM   20  C3  UNK     1       4.125   2.582  -1.919  1.00  0.00     0.000 C 
BRANCH  20  21
HETATM   21  C5  UNK     1       5.620   2.407  -2.197  1.00  0.00    -0.000 C 
BRANCH  21  22
HETATM   22  C7  UNK     1       6.461   3.308  -1.292  1.00  0.00    -0.005 C 
HETATM   23  C8  UNK     1       7.948   3.114  -1.540  1.00  0.00     0.005 C 
ENDBRANCH  21  22
ENDBRANCH  20  21
ENDBRANCH  19  20
ENDBRANCH  18  19
ENDBRANCH  17  18
ENDBRANCH  16  17
ENDBRANCH   2  16
TORSDOF 8
