REMARK  2 active torsions:
REMARK  status: ('A' for Active; 'I' for Inactive)
REMARK       I    between atoms: C6_11  and  N1_4 
REMARK    1  A    between atoms: C9_14  and  N1_4 
REMARK    2  A    between atoms: C3_8  and  C6_11 
ROOT
HETATM    1  O1  UNK     1       1.373   0.794  -2.786  1.00  0.00    -0.274 OA
HETATM    2  O3  UNK     1      -0.453  -0.487  -2.288  1.00  0.00    -0.259 OA
HETATM    3  C1  UNK     1       2.747   1.678  -0.986  1.00  0.00    -0.001 A 
HETATM    4  C2  UNK     1       2.480   1.544  -2.345  1.00  0.00     0.089 A 
HETATM    5  C3  UNK     1       0.812   0.321  -0.454  1.00  0.00     0.108 A 
HETATM    6  C4  UNK     1       1.863   1.032  -0.028  1.00  0.00     0.037 A 
HETATM    7  C5  UNK     1       3.854   2.430  -0.587  1.00  0.00     0.014 A 
HETATM    8  C7  UNK     1       0.509   0.164  -1.894  1.00  0.00     0.304 A 
HETATM    9  C8  UNK     1       3.287   2.138  -3.313  1.00  0.00     0.038 A 
HETATM   10  C10 UNK     1       4.673   3.032  -1.547  1.00  0.00     0.001 A 
HETATM   11  C11 UNK     1       4.390   2.886  -2.907  1.00  0.00     0.003 A 
ENDROOT
BRANCH   5  12
HETATM   12  C6  UNK     1      -0.020  -0.293   0.588  1.00  0.00     0.263 C 
HETATM   13  O2  UNK     1       0.489  -0.631   1.655  1.00  0.00    -0.267 OA
HETATM   14  N1  UNK     1      -1.346  -0.413   0.196  1.00  0.00    -0.307 N 
HETATM   15  H4  UNK     1      -1.628  -0.069  -0.718  1.00  0.00     0.170 HD
BRANCH  14  16
HETATM   16  C9  UNK     1      -2.422  -0.957   0.941  1.00  0.00     0.130 A 
HETATM   17  C13 UNK     1      -2.131  -1.423   2.204  1.00  0.00     0.051 A 
HETATM   18  C14 UNK     1      -3.181  -1.957   2.944  1.00  0.00     0.012 A 
HETATM   19  C12 UNK     1      -4.458  -2.002   2.396  1.00  0.00    -0.044 A 
HETATM   20  C15 UNK     1      -4.632  -1.503   1.115  1.00  0.00     0.125 A 
HETATM   21  C16 UNK     1      -5.601  -2.565   3.163  1.00  0.00     0.049 C 
HETATM   22  N2  UNK     1      -3.637  -0.977   0.366  1.00  0.00    -0.243 NA
ENDBRANCH  14  16
ENDBRANCH   5  12
TORSDOF 2
