REMARK  3 active torsions:
REMARK  status: ('A' for Active; 'I' for Inactive)
REMARK    1  A    between atoms: C11_15  and  O2_3 
REMARK    2  A    between atoms: C13_17  and  O2_3 
REMARK    3  A    between atoms: C13_17  and  C14_18 
ROOT
HETATM    1  O1  UNK     1       2.636   1.350   0.239  1.00  0.00    -0.274 OA
HETATM    2  O3  UNK     1       4.720   2.303   0.391  1.00  0.00    -0.259 OA
HETATM    3  C1  UNK     1       2.973   2.041  -3.962  1.00  0.00     0.040 C 
HETATM    4  C2  UNK     1       2.732   1.746  -2.522  1.00  0.00    -0.033 A 
HETATM    5  C3  UNK     1       4.472   2.365  -3.982  1.00  0.00     0.009 C 
HETATM    6  C4  UNK     1       4.857   2.741  -2.548  1.00  0.00     0.046 C 
HETATM    7  C5  UNK     1       3.757   2.125  -1.757  1.00  0.00     0.025 A 
HETATM    8  C6  UNK     1       1.552   1.136  -1.945  1.00  0.00     0.005 A 
HETATM    9  C7  UNK     1       1.537   0.950  -0.560  1.00  0.00     0.092 A 
HETATM   10  C8  UNK     1       3.774   1.949  -0.302  1.00  0.00     0.295 A 
HETATM   11  C9  UNK     1       0.441   0.729  -2.686  1.00  0.00     0.017 A 
HETATM   12  C10 UNK     1       0.450   0.371   0.093  1.00  0.00     0.075 A 
HETATM   13  C11 UNK     1      -0.651  -0.032  -0.658  1.00  0.00     0.071 A 
HETATM   14  C12 UNK     1      -0.656   0.147  -2.043  1.00  0.00     0.038 A 
ENDROOT
BRANCH  13  15
HETATM   15  O2  UNK     1      -1.724  -0.600  -0.043  1.00  0.00    -0.347 OA
BRANCH  15  16
HETATM   16  C13 UNK     1      -1.654  -0.753   1.374  1.00  0.00     0.214 C 
BRANCH  16  17
HETATM   17  C14 UNK     1      -2.908  -1.421   1.857  1.00  0.00    -0.034 A 
HETATM   18  C15 UNK     1      -4.004  -0.647   2.221  1.00  0.00     0.012 A 
HETATM   19  C17 UNK     1      -5.169  -1.268   2.670  1.00  0.00     0.043 A 
HETATM   20  C19 UNK     1      -5.232  -2.659   2.752  1.00  0.00     0.116 A 
HETATM   21  C18 UNK     1      -4.128  -3.429   2.384  1.00  0.00     0.043 A 
HETATM   22  F1  UNK     1      -6.351  -3.255   3.183  1.00  0.00    -0.206 F 
HETATM   23  C16 UNK     1      -2.962  -2.808   1.935  1.00  0.00     0.012 A 
ENDBRANCH  16  17
ENDBRANCH  15  16
ENDBRANCH  13  15
TORSDOF 3
