REMARK  5 active torsions:
REMARK  status: ('A' for Active; 'I' for Inactive)
REMARK    1  A    between atoms: C14_22  and  O3_3 
REMARK    2  A    between atoms: C22_30  and  O3_3 
REMARK    3  A    between atoms: C4_12  and  N2_7 
REMARK    4  A    between atoms: C2_10  and  N3_8 
REMARK       I    between atoms: C7_15  and  N3_8 
REMARK    5  A    between atoms: C7_15  and  C8_16 
ROOT
HETATM    1  O4  UNK     1      -1.444   0.968  -1.029  1.00  0.00    -0.267 OA
HETATM    2  N3  UNK     1      -0.169   0.067   0.709  1.00  0.00    -0.316 N 
HETATM    3  C7  UNK     1      -0.364   0.743  -0.484  1.00  0.00     0.262 C 
HETATM    4  H7  UNK     1       0.745   0.095   1.151  1.00  0.00     0.169 HD
ENDROOT
BRANCH   2   5
HETATM    5  C2  UNK     1      -1.173  -0.448   1.453  1.00  0.00     0.130 A 
HETATM    6  C1  UNK     1      -1.263  -0.631   2.776  1.00  0.00     0.057 A 
HETATM    7  N1  UNK     1      -2.499  -1.172   3.132  1.00  0.00    -0.289 N 
HETATM    8  C6  UNK     1      -0.247  -0.279   3.809  1.00  0.00     0.072 C 
HETATM    9  C5  UNK     1      -3.239  -0.656   4.280  1.00  0.00     0.178 C 
HETATM   10  N2  UNK     1      -3.205  -1.428   1.941  1.00  0.00    -0.217 N 
HETATM   11  C3  UNK     1      -2.450  -0.936   0.869  1.00  0.00     0.295 A 
HETATM   12  O1  UNK     1      -2.676  -0.945  -0.330  1.00  0.00    -0.264 OA
BRANCH  10  13
HETATM   13  C4  UNK     1      -4.303  -2.321   1.861  1.00  0.00     0.060 A 
HETATM   14  C10 UNK     1      -4.571  -3.202   2.913  1.00  0.00     0.031 A 
HETATM   15  C17 UNK     1      -5.651  -4.082   2.834  1.00  0.00     0.002 A 
HETATM   16  C19 UNK     1      -6.468  -4.084   1.703  1.00  0.00     0.000 A 
HETATM   17  C16 UNK     1      -6.205  -3.207   0.651  1.00  0.00     0.002 A 
HETATM   18  C9  UNK     1      -5.125  -2.328   0.730  1.00  0.00     0.031 A 
ENDBRANCH  10  13
ENDBRANCH   2   5
BRANCH   3  19
HETATM   19  C8  UNK     1       0.892   1.198  -1.091  1.00  0.00     0.108 A 
HETATM   20  C13 UNK     1       0.909   1.278  -2.427  1.00  0.00     0.037 A 
HETATM   21  C11 UNK     1       2.109   1.720  -3.120  1.00  0.00     0.002 A 
HETATM   22  C12 UNK     1       3.233   2.055  -2.372  1.00  0.00     0.123 A 
HETATM   23  C18 UNK     1       2.171   1.820  -4.512  1.00  0.00     0.014 A 
HETATM   24  O2  UNK     1       3.210   1.968  -0.966  1.00  0.00    -0.271 OA
HETATM   25  C14 UNK     1       4.414   2.485  -2.974  1.00  0.00     0.103 A 
HETATM   26  C15 UNK     1       2.076   1.550  -0.275  1.00  0.00     0.304 A 
HETATM   27  O5  UNK     1       2.065   1.478   0.949  1.00  0.00    -0.259 OA
HETATM   28  C20 UNK     1       4.467   2.581  -4.363  1.00  0.00     0.040 A 
HETATM   29  C21 UNK     1       3.349   2.250  -5.131  1.00  0.00     0.004 A 
BRANCH  25  30
HETATM   30  O3  UNK     1       5.506   2.808  -2.231  1.00  0.00    -0.349 OA
BRANCH  30  31
HETATM   31  C22 UNK     1       6.785   2.599  -2.830  1.00  0.00     0.171 C 
HETATM   32  C23 UNK     1       7.795   2.302  -1.742  1.00  0.00     0.034 C 
ENDBRANCH  30  31
ENDBRANCH  25  30
ENDBRANCH   3  19
TORSDOF 5
