REMARK  3 active torsions:
REMARK  status: ('A' for Active; 'I' for Inactive)
REMARK    1  A    between atoms: N1_5  and  N2_6 
REMARK    2  A    between atoms: C15_22  and  N2_6 
REMARK    3  A    between atoms: C15_22  and  N3_7 
ROOT
HETATM    1  O1  UNK     1       1.220   1.051   1.549  1.00  0.00    -0.334 OA
HETATM    2  O2  UNK     1      -2.814  -0.827  -0.358  1.00  0.00    -0.274 OA
HETATM    3  O3  UNK     1      -4.746  -1.720  -1.203  1.00  0.00    -0.260 OA
HETATM    4  N1  UNK     1       1.327   1.306  -2.156  1.00  0.00    -0.178 NA
HETATM    5  C1  UNK     1       1.842   1.222   0.272  1.00  0.00     0.103 C 
HETATM    6  C2  UNK     1       0.908   1.149  -0.942  1.00  0.00     0.071 C 
HETATM    7  C3  UNK     1      -0.556   0.917  -0.706  1.00  0.00     0.104 C 
HETATM    8  C4  UNK     1      -0.769   0.107   0.532  1.00  0.00     0.016 A 
HETATM    9  C5  UNK     1       0.125   0.233   1.597  1.00  0.00     0.079 A 
HETATM   10  C6  UNK     1       2.482   2.616   0.317  1.00  0.00     0.053 C 
HETATM   11  C7  UNK     1       2.934   0.151   0.151  1.00  0.00     0.053 C 
HETATM   12  C8  UNK     1      -1.890  -0.716   0.707  1.00  0.00     0.099 A 
HETATM   13  C9  UNK     1      -2.118  -1.411   1.894  1.00  0.00    -0.001 A 
HETATM   14  C10 UNK     1      -0.100  -0.439   2.802  1.00  0.00     0.038 A 
HETATM   15  C11 UNK     1      -1.214  -1.268   2.947  1.00  0.00     0.017 A 
HETATM   16  C12 UNK     1      -3.297  -2.254   2.006  1.00  0.00     0.020 A 
HETATM   17  C13 UNK     1      -4.155  -2.354   0.987  1.00  0.00     0.083 A 
HETATM   18  C14 UNK     1      -3.950  -1.625  -0.276  1.00  0.00     0.288 A 
ENDROOT
BRANCH   4  19
HETATM   19  N2  UNK     1       2.661   1.507  -2.243  1.00  0.00    -0.254 N 
HETATM   20  H13 UNK     1       3.273   1.534  -1.455  1.00  0.00     0.191 HD
BRANCH  19  21
HETATM   21  C15 UNK     1       3.267   1.693  -3.461  1.00  0.00     0.185 C 
HETATM   22  S1  UNK     1       4.915   1.943  -3.589  1.00  0.00    -0.040 SA
BRANCH  21  23
HETATM   23  N3  UNK     1       2.460   1.664  -4.566  1.00  0.00    -0.375 N 
HETATM   24  H14 UNK     1       1.460   1.512  -4.487  1.00  0.00     0.158 HD
HETATM   25  H15 UNK     1       2.836   1.793  -5.500  1.00  0.00     0.158 HD
ENDBRANCH  21  23
ENDBRANCH  19  21
ENDBRANCH   4  19
TORSDOF 3
