REMARK  6 active torsions:
REMARK  status: ('A' for Active; 'I' for Inactive)
REMARK    1  A    between atoms: C1_6  and  O1_1 
REMARK    2  A    between atoms: C4_9  and  O1_1 
REMARK    3  A    between atoms: C10_15  and  O3_3 
REMARK    4  A    between atoms: C15_20  and  O3_3 
REMARK    5  A    between atoms: C1_6  and  C2_7 
REMARK    6  A    between atoms: C1_6  and  C10_15 
ROOT
HETATM    1  O2  UNK     1       2.585   1.119   0.289  1.00  0.00    -0.275 OA
HETATM    2  O5  UNK     1       4.544   2.179   0.809  1.00  0.00    -0.260 OA
HETATM    3  C3  UNK     1       1.733   1.238  -1.997  1.00  0.00     0.004 A 
HETATM    4  C4  UNK     1      -0.450  -0.340  -1.161  1.00  0.00     0.072 A 
HETATM    5  C5  UNK     1       1.614   0.795  -0.679  1.00  0.00     0.092 A 
HETATM    6  C6  UNK     1       0.540   0.013  -0.249  1.00  0.00     0.075 A 
HETATM    7  C7  UNK     1       2.898   2.056  -2.362  1.00  0.00    -0.043 A 
HETATM    8  C8  UNK     1       0.726   0.872  -2.900  1.00  0.00     0.017 A 
HETATM    9  C9  UNK     1      -0.357   0.089  -2.484  1.00  0.00     0.038 A 
HETATM   10  C12 UNK     1       3.806   2.349  -1.420  1.00  0.00     0.090 A 
HETATM   11  C13 UNK     1       3.055   2.548  -3.771  1.00  0.00     0.049 C 
HETATM   12  C14 UNK     1       3.694   1.890  -0.026  1.00  0.00     0.288 A 
ENDROOT
BRANCH   4  13
HETATM   13  O1  UNK     1      -1.505  -1.101  -0.762  1.00  0.00    -0.336 OA
BRANCH  13  14
HETATM   14  C1  UNK     1      -2.333  -0.573   0.273  1.00  0.00     0.228 C 
BRANCH  14  15
HETATM   15  C2  UNK     1      -3.766  -0.457  -0.244  1.00  0.00     0.038 C 
HETATM   16  C11 UNK     1      -4.332  -1.802  -0.680  1.00  0.00     0.008 C 
ENDBRANCH  14  15
BRANCH  14  17
HETATM   17  C10 UNK     1      -2.255  -1.512   1.461  1.00  0.00     0.288 C 
HETATM   18  O4  UNK     1      -1.626  -2.562   1.476  1.00  0.00    -0.262 OA
BRANCH  17  19
HETATM   19  O3  UNK     1      -3.009  -1.019   2.487  1.00  0.00    -0.320 OA
BRANCH  19  20
HETATM   20  C15 UNK     1      -3.046  -1.825   3.669  1.00  0.00     0.174 C 
HETATM   21  C16 UNK     1      -3.918  -1.145   4.703  1.00  0.00     0.034 C 
ENDBRANCH  19  20
ENDBRANCH  17  19
ENDBRANCH  14  17
ENDBRANCH  13  14
ENDBRANCH   4  13
TORSDOF 6
