REMARK  6 active torsions:
REMARK  status: ('A' for Active; 'I' for Inactive)
REMARK    1  A    between atoms: C19_26  and  O3_3 
REMARK    2  A    between atoms: C21_28  and  O3_3 
REMARK    3  A    between atoms: C5_12  and  N1_5 
REMARK    4  A    between atoms: C10_17  and  N2_6 
REMARK       I    between atoms: C11_18  and  N3_7 
REMARK    5  A    between atoms: C11_18  and  C5_12 
REMARK    6  A    between atoms: C10_17  and  C12_19 
ROOT
HETATM    1  C10 UNK     1       1.318  -0.717  -1.881  1.00  0.00     0.312 C 
ENDROOT
BRANCH   1   2
HETATM    2  N2  UNK     1       0.100  -0.509  -1.101  1.00  0.00     0.096 N 
HETATM    3  C3  UNK     1      -1.082  -0.498  -1.971  1.00  0.00     0.303 C 
HETATM    4  C1  UNK     1      -2.361  -0.284  -1.154  1.00  0.00     0.303 C 
HETATM    5  N1  UNK     1      -2.497  -1.315  -0.117  1.00  0.00     0.100 N 
HETATM    6  C2  UNK     1      -1.315  -1.324   0.754  1.00  0.00     0.303 C 
HETATM    7  C4  UNK     1      -0.037  -1.539  -0.063  1.00  0.00     0.303 C 
BRANCH   5   8
HETATM    8  C5  UNK     1      -3.715  -1.109   0.663  1.00  0.00     0.374 C 
BRANCH   8   9
HETATM    9  C11 UNK     1      -4.146  -2.360   1.386  1.00  0.00     0.248 C 
HETATM   10  O1  UNK     1      -3.869  -3.470   0.931  1.00  0.00    -0.271 OA
HETATM   11  N3  UNK     1      -4.858  -2.158   2.555  1.00  0.00    -0.351 N 
HETATM   12  C6  UNK     1      -5.350  -3.262   3.365  1.00  0.00     0.126 C 
HETATM   13  C7  UNK     1      -5.215  -0.873   3.148  1.00  0.00     0.126 C 
HETATM   14  C8  UNK     1      -5.767  -2.615   4.677  1.00  0.00     0.021 C 
HETATM   15  C9  UNK     1      -6.213  -1.224   4.242  1.00  0.00     0.021 C 
ENDBRANCH   8   9
ENDBRANCH   5   8
ENDBRANCH   1   2
BRANCH   1  16
HETATM   16  C12 UNK     1       1.784   0.535  -2.540  1.00  0.00    -0.011 A 
HETATM   17  C13 UNK     1       2.718   1.428  -1.839  1.00  0.00     0.009 A 
HETATM   18  C15 UNK     1       3.137   2.594  -2.481  1.00  0.00     0.090 A 
HETATM   19  C16 UNK     1       3.218   1.178  -0.554  1.00  0.00     0.051 A 
HETATM   20  C18 UNK     1       4.021   3.496  -1.887  1.00  0.00     0.041 A 
HETATM   21  O2  UNK     1       2.681   2.917  -3.775  1.00  0.00    -0.275 OA
HETATM   22  C20 UNK     1       4.506   3.230  -0.611  1.00  0.00     0.039 A 
HETATM   23  C19 UNK     1       4.106   2.073   0.054  1.00  0.00     0.069 A 
HETATM   24  C17 UNK     1       1.801   2.094  -4.461  1.00  0.00     0.288 A 
HETATM   25  C14 UNK     1       1.368   0.868  -3.770  1.00  0.00     0.092 A 
HETATM   26  O4  UNK     1       1.399   2.365  -5.586  1.00  0.00    -0.260 OA
BRANCH  23  27
HETATM   27  O3  UNK     1       4.580   1.811   1.304  1.00  0.00    -0.351 OA
BRANCH  27  28
HETATM   28  C21 UNK     1       3.731   1.070   2.178  1.00  0.00     0.171 C 
HETATM   29  C22 UNK     1       4.021   1.475   3.608  1.00  0.00     0.034 C 
ENDBRANCH  27  28
ENDBRANCH  23  27
ENDBRANCH   1  16
TORSDOF 6
