REMARK  6 active torsions:
REMARK  status: ('A' for Active; 'I' for Inactive)
REMARK    1  A    between atoms: C10_15  and  S1_1 
REMARK    2  A    between atoms: C5_10  and  S1_1 
REMARK       I    between atoms: C12_17  and  N3_5 
REMARK    3  A    between atoms: C9_14  and  N3_5 
REMARK    4  A    between atoms: C10_15  and  C12_17 
REMARK    5  A    between atoms: C11_16  and  C17_22 
REMARK    6  A    between atoms: C18_23  and  C19_24 
ROOT
HETATM    1  O1  UNK     1       1.614  -1.454   0.205  1.00  0.00    -0.272 OA
HETATM    2  N3  UNK     1      -0.055  -0.209  -0.884  1.00  0.00    -0.327 N 
HETATM    3  C12 UNK     1       1.244  -0.637  -0.634  1.00  0.00     0.231 C 
HETATM    4  H10 UNK     1      -0.187   0.492  -1.610  1.00  0.00     0.169 HD
ENDROOT
BRANCH   2   5
HETATM    5  C9  UNK     1      -1.241  -0.634  -0.239  1.00  0.00     0.034 A 
HETATM    6  C13 UNK     1      -1.163  -1.584   0.766  1.00  0.00     0.030 A 
HETATM    7  C15 UNK     1      -2.332  -2.004   1.400  1.00  0.00     0.013 A 
HETATM    8  C11 UNK     1      -3.562  -1.468   1.021  1.00  0.00    -0.036 A 
HETATM    9  C16 UNK     1      -3.624  -0.511   0.007  1.00  0.00     0.013 A 
HETATM   10  C14 UNK     1      -2.455  -0.091  -0.627  1.00  0.00     0.030 A 
BRANCH   8  11
HETATM   11  C17 UNK     1      -4.781  -1.905   1.683  1.00  0.00     0.012 C 
HETATM   12  C19 UNK     1      -4.839  -2.508   2.894  1.00  0.00     0.012 C 
BRANCH  12  13
HETATM   13  C18 UNK     1      -6.075  -2.934   3.573  1.00  0.00    -0.036 A 
HETATM   14  C20 UNK     1      -7.230  -3.113   2.830  1.00  0.00     0.011 A 
HETATM   15  C22 UNK     1      -8.401  -3.516   3.473  1.00  0.00     0.001 A 
HETATM   16  C24 UNK     1      -8.400  -3.734   4.851  1.00  0.00     0.000 A 
HETATM   17  C23 UNK     1      -7.228  -3.549   5.585  1.00  0.00     0.001 A 
HETATM   18  C21 UNK     1      -6.058  -3.146   4.942  1.00  0.00     0.011 A 
ENDBRANCH  12  13
ENDBRANCH   8  11
ENDBRANCH   2   5
BRANCH   3  19
HETATM   19  C10 UNK     1       2.250   0.051  -1.532  1.00  0.00     0.185 C 
BRANCH  19  20
HETATM   20  S1  UNK     1       2.838   1.571  -0.702  1.00  0.00    -0.083 SA
BRANCH  20  21
HETATM   21  C5  UNK     1       3.961   2.236  -1.827  1.00  0.00     0.168 A 
HETATM   22  N1  UNK     1       4.619   3.401  -1.546  1.00  0.00    -0.333 N 
HETATM   23  C1  UNK     1       5.437   3.686  -2.609  1.00  0.00     0.063 A 
HETATM   24  H2  UNK     1       4.519   3.954  -0.705  1.00  0.00     0.168 HD
HETATM   25  C2  UNK     1       5.220   2.641  -3.503  1.00  0.00     0.086 A 
HETATM   26  C3  UNK     1       6.321   4.737  -2.858  1.00  0.00     0.038 A 
HETATM   27  N2  UNK     1       4.300   1.750  -3.000  1.00  0.00    -0.223 NA
HETATM   28  C6  UNK     1       5.918   2.627  -4.722  1.00  0.00     0.034 A 
HETATM   29  C7  UNK     1       6.811   3.671  -4.994  1.00  0.00     0.009 A 
HETATM   30  C4  UNK     1       7.007   4.706  -4.077  1.00  0.00    -0.060 A 
HETATM   31  C8  UNK     1       7.968   5.803  -4.401  1.00  0.00     0.048 C 
ENDBRANCH  20  21
ENDBRANCH  19  20
ENDBRANCH   3  19
TORSDOF 6
