REMARK  4 active torsions:
REMARK  status: ('A' for Active; 'I' for Inactive)
REMARK    1  A    between atoms: C13_18  and  O3_3 
REMARK    2  A    between atoms: C9_14  and  O4_4 
REMARK    3  A    between atoms: C10_15  and  O5_5 
REMARK    4  A    between atoms: C5_10  and  C6_11 
ROOT
HETATM    1  O1  UNK     1      -2.471  -0.498  -0.659  1.00  0.00    -0.306 OA
HETATM    2  O2  UNK     1       0.690   0.031   0.847  1.00  0.00    -0.284 OA
HETATM    3  C1  UNK     1      -1.523  -0.682   1.439  1.00  0.00     0.051 A 
HETATM    4  C2  UNK     1      -2.671  -0.826   0.662  1.00  0.00     0.093 A 
HETATM    5  C3  UNK     1      -1.136  -0.123  -0.757  1.00  0.00     0.128 A 
HETATM    6  C4  UNK     1      -0.459  -0.216   0.559  1.00  0.00     0.218 A 
HETATM    7  C6  UNK     1      -0.541   0.270  -1.884  1.00  0.00     0.055 C 
HETATM    8  C7  UNK     1      -1.504  -0.958   2.790  1.00  0.00     0.021 A 
HETATM    9  C8  UNK     1      -3.858  -1.256   1.214  1.00  0.00     0.074 A 
HETATM   10  C10 UNK     1      -3.865  -1.543   2.583  1.00  0.00     0.068 A 
HETATM   11  C11 UNK     1      -2.700  -1.396   3.363  1.00  0.00     0.037 A 
ENDROOT
BRANCH   7  12
HETATM   12  C5  UNK     1       0.837   0.658  -1.987  1.00  0.00     0.003 A 
HETATM   13  C12 UNK     1       1.808  -0.305  -2.313  1.00  0.00     0.014 A 
HETATM   14  C14 UNK     1       3.154   0.046  -2.419  1.00  0.00     0.004 A 
HETATM   15  C15 UNK     1       3.550   1.366  -2.200  1.00  0.00     0.039 A 
HETATM   16  C13 UNK     1       2.600   2.334  -1.876  1.00  0.00     0.102 A 
HETATM   17  C9  UNK     1       1.254   1.983  -1.770  1.00  0.00     0.109 A 
BRANCH  16  18
HETATM   18  O3  UNK     1       3.001   3.619  -1.664  1.00  0.00    -0.353 OA
HETATM   19  C16 UNK     1       3.355   3.976  -0.330  1.00  0.00     0.210 C 
ENDBRANCH  16  18
BRANCH  17  20
HETATM   20  O4  UNK     1       0.335   2.941  -1.451  1.00  0.00    -0.357 OA
HETATM   21  H8  UNK     1       0.789   3.798  -1.383  1.00  0.00     0.217 HD
ENDBRANCH  17  20
ENDBRANCH   7  12
BRANCH  10  22
HETATM   22  O5  UNK     1      -5.016  -1.973   3.174  1.00  0.00    -0.361 OA
HETATM   23  H9  UNK     1      -4.847  -2.125   4.120  1.00  0.00     0.217 HD
ENDBRANCH  10  22
TORSDOF 4
