REMARK  5 active torsions:
REMARK  status: ('A' for Active; 'I' for Inactive)
REMARK    1  A    between atoms: C1_6  and  N1_5 
REMARK       I    between atoms: C6_11  and  N1_5 
REMARK    2  A    between atoms: C1_6  and  C2_7 
REMARK    3  A    between atoms: C2_7  and  C3_8 
REMARK    4  A    between atoms: C3_8  and  C5_10 
REMARK    5  A    between atoms: C6_11  and  C7_12 
ROOT
HETATM    1  O2  UNK     1       1.190   1.615   2.010  1.00  0.00    -0.267 OA
HETATM    2  N1  UNK     1       0.159  -0.357   1.316  1.00  0.00    -0.352 N 
HETATM    3  C6  UNK     1       0.897   0.799   1.138  1.00  0.00     0.258 C 
HETATM    4  H9  UNK     1       0.040  -1.003   0.542  1.00  0.00     0.163 HD
ENDROOT
BRANCH   3   5
HETATM    5  C7  UNK     1       1.333   0.990  -0.250  1.00  0.00     0.108 A 
HETATM    6  C10 UNK     1       2.485   1.650  -0.423  1.00  0.00     0.037 A 
HETATM    7  C11 UNK     1       3.000   1.888  -1.762  1.00  0.00     0.000 A 
HETATM    8  C12 UNK     1       2.276   1.420  -2.855  1.00  0.00     0.089 A 
HETATM    9  C17 UNK     1       4.197   2.572  -1.990  1.00  0.00     0.033 A 
HETATM   10  O1  UNK     1       1.065   0.726  -2.666  1.00  0.00    -0.274 OA
HETATM   11  C18 UNK     1       2.713   1.616  -4.163  1.00  0.00     0.039 A 
HETATM   12  C13 UNK     1       0.547   0.483  -1.397  1.00  0.00     0.304 A 
HETATM   13  O3  UNK     1      -0.509  -0.121  -1.242  1.00  0.00    -0.259 OA
HETATM   14  C20 UNK     1       3.908   2.298  -4.381  1.00  0.00     0.022 A 
HETATM   15  C19 UNK     1       4.648   2.775  -3.297  1.00  0.00     0.011 A 
HETATM   16 Br1  UNK     1       6.270   3.700  -3.600  1.00  0.00    -0.051 Br
ENDBRANCH   3   5
BRANCH   2  17
HETATM   17  C1  UNK     1      -0.377  -0.760   2.596  1.00  0.00     0.081 C 
HETATM   18  C4  UNK     1       0.666  -1.585   3.351  1.00  0.00     0.032 C 
BRANCH  17  19
HETATM   19  C2  UNK     1      -1.675  -1.570   2.418  1.00  0.00     0.029 C 
BRANCH  19  20
HETATM   20  C3  UNK     1      -2.823  -0.812   1.733  1.00  0.00     0.040 C 
BRANCH  20  21
HETATM   21  C5  UNK     1      -4.102  -1.605   1.630  1.00  0.00    -0.058 A 
HETATM   22  C8  UNK     1      -4.326  -2.394   0.513  1.00  0.00     0.007 A 
HETATM   23  C14 UNK     1      -5.509  -3.127   0.417  1.00  0.00     0.001 A 
HETATM   24  C16 UNK     1      -6.454  -3.061   1.441  1.00  0.00     0.000 A 
HETATM   25  C15 UNK     1      -6.216  -2.263   2.560  1.00  0.00     0.001 A 
HETATM   26  C9  UNK     1      -5.033  -1.531   2.655  1.00  0.00     0.007 A 
ENDBRANCH  20  21
ENDBRANCH  19  20
ENDBRANCH  17  19
ENDBRANCH   2  17
TORSDOF 5
