REMARK  1 active torsions:
REMARK  status: ('A' for Active; 'I' for Inactive)
REMARK    1  A    between atoms: C12_16  and  O3_3 
ROOT
HETATM    1  O1  UNK     1      -2.148   0.205   0.660  1.00  0.00    -0.309 OA
HETATM    2  O2  UNK     1       1.190   1.105  -3.095  1.00  0.00    -0.275 OA
HETATM    3  O4  UNK     1      -0.492   0.496  -4.518  1.00  0.00    -0.260 OA
HETATM    4  C1  UNK     1      -0.360   0.029  -0.969  1.00  0.00     0.017 A 
HETATM    5  C2  UNK     1       0.958   0.634  -0.712  1.00  0.00     0.011 A 
HETATM    6  C3  UNK     1      -1.211  -0.533   0.006  1.00  0.00     0.088 A 
HETATM    7  C4  UNK     1      -2.258  -1.919   1.422  1.00  0.00     0.000 A 
HETATM    8  C5  UNK     1       1.690   1.152  -1.780  1.00  0.00     0.093 A 
HETATM    9  C6  UNK     1      -1.239  -1.841   0.437  1.00  0.00     0.052 A 
HETATM   10  C7  UNK     1      -2.786  -0.636   1.522  1.00  0.00     0.086 A 
HETATM   11  C8  UNK     1      -0.806   0.001  -2.237  1.00  0.00     0.097 A 
HETATM   12  C9  UNK     1       1.521   0.717   0.569  1.00  0.00     0.018 A 
HETATM   13  C10 UNK     1       2.944   1.739  -1.605  1.00  0.00     0.075 A 
HETATM   14  C11 UNK     1      -2.792  -2.931   2.239  1.00  0.00     0.014 A 
HETATM   15  C12 UNK     1       3.488   1.813  -0.327  1.00  0.00     0.070 A 
HETATM   16  C13 UNK     1       2.778   1.302   0.759  1.00  0.00     0.038 A 
HETATM   17  C14 UNK     1      -3.821  -0.282   2.387  1.00  0.00     0.038 A 
HETATM   18  C15 UNK     1      -0.045   0.543  -3.377  1.00  0.00     0.289 A 
HETATM   19  C16 UNK     1      -3.833  -2.605   3.119  1.00  0.00     0.001 A 
HETATM   20  C17 UNK     1      -4.337  -1.304   3.190  1.00  0.00     0.003 A 
ENDROOT
BRANCH  15  21
HETATM   21  O3  UNK     1       4.709   2.381  -0.136  1.00  0.00    -0.356 OA
HETATM   22  C18 UNK     1       5.380   2.882  -1.291  1.00  0.00     0.210 C 
ENDBRANCH  15  21
TORSDOF 1
