REMARK  3 active torsions:
REMARK  status: ('A' for Active; 'I' for Inactive)
REMARK    1  A    between atoms: C10_15  and  O2_3 
REMARK    2  A    between atoms: C11_16  and  O2_3 
REMARK    3  A    between atoms: C10_15  and  C4_9 
ROOT
HETATM    1 Cl1  UNK     1       4.618   2.809  -1.103  1.00  0.00    -0.084 Cl
HETATM    2  O1  UNK     1      -0.471  -0.051  -1.948  1.00  0.00    -0.274 OA
HETATM    3  O3  UNK     1      -2.266  -1.193  -1.117  1.00  0.00    -0.259 OA
HETATM    4  C1  UNK     1       1.242   0.766  -0.427  1.00  0.00     0.001 A 
HETATM    5  C2  UNK     1       0.742   0.628  -1.718  1.00  0.00     0.089 A 
HETATM    6  C3  UNK     1       0.491   0.198   0.682  1.00  0.00     0.038 A 
HETATM    7  C4  UNK     1      -0.661  -0.445   0.458  1.00  0.00     0.115 A 
HETATM    8  C5  UNK     1       2.448   1.445  -0.239  1.00  0.00     0.038 A 
HETATM    9  C6  UNK     1       1.412   1.149  -2.823  1.00  0.00     0.040 A 
HETATM   10  C7  UNK     1      -1.211  -0.604  -0.908  1.00  0.00     0.304 A 
HETATM   11  C8  UNK     1       3.131   1.973  -1.339  1.00  0.00     0.035 A 
HETATM   12  C9  UNK     1       2.614   1.825  -2.628  1.00  0.00     0.026 A 
ENDROOT
BRANCH   7  13
HETATM   13  C10 UNK     1      -1.345  -0.983   1.640  1.00  0.00     0.299 C 
HETATM   14  O4  UNK     1      -0.762  -1.354   2.644  1.00  0.00    -0.259 OA
BRANCH  13  15
HETATM   15  O2  UNK     1      -2.681  -0.983   1.403  1.00  0.00    -0.318 OA
BRANCH  15  16
HETATM   16  C11 UNK     1      -3.490  -1.483   2.473  1.00  0.00     0.174 C 
HETATM   17  C12 UNK     1      -4.945  -1.420   2.061  1.00  0.00     0.034 C 
ENDBRANCH  15  16
ENDBRANCH  13  15
ENDBRANCH   7  13
TORSDOF 3
