REMARK  3 active torsions:
REMARK  status: ('A' for Active; 'I' for Inactive)
REMARK       I    between atoms: C14_19  and  N1_4 
REMARK    1  A    between atoms: N1_4  and  N2_5 
REMARK    2  A    between atoms: C14_19  and  C3_8 
REMARK    3  A    between atoms: C11_16  and  C19_24 
ROOT
HETATM    1  N2  UNK     1      -0.085   0.214  -0.165  1.00  0.00    -0.183 NA
HETATM    2  C19 UNK     1      -0.216  -0.169   1.064  1.00  0.00     0.156 C 
ENDROOT
BRANCH   1   3
HETATM    3  N1  UNK     1       1.112   0.785  -0.440  1.00  0.00    -0.243 N 
HETATM    4  C14 UNK     1       1.364   1.198  -1.734  1.00  0.00     0.271 C 
HETATM    5  O3  UNK     1       0.579   1.087  -2.672  1.00  0.00    -0.266 OA
HETATM    6  H16 UNK     1       1.790   0.831   0.313  1.00  0.00     0.192 HD
BRANCH   4   7
HETATM    7  C3  UNK     1       2.704   1.797  -1.973  1.00  0.00     0.034 A 
HETATM    8  C4  UNK     1       3.254   1.716  -3.235  1.00  0.00     0.024 A 
HETATM    9  C1  UNK     1       4.511   2.278  -3.458  1.00  0.00    -0.055 A 
HETATM   10  C2  UNK     1       5.189   2.908  -2.414  1.00  0.00    -0.056 A 
HETATM   11  C10 UNK     1       5.112   2.193  -4.823  1.00  0.00     0.049 C 
HETATM   12  C12 UNK     1       6.535   3.517  -2.629  1.00  0.00     0.049 C 
HETATM   13  C6  UNK     1       4.609   2.976  -1.147  1.00  0.00     0.008 A 
HETATM   14  C8  UNK     1       3.353   2.414  -0.924  1.00  0.00     0.017 A 
ENDBRANCH   4   7
ENDBRANCH   1   3
BRANCH   2  15
HETATM   15  C11 UNK     1      -1.434  -0.809   1.562  1.00  0.00     0.056 A 
HETATM   16  C9  UNK     1      -2.620  -1.079   0.719  1.00  0.00     0.198 A 
HETATM   17  C5  UNK     1      -3.757  -1.731   1.396  1.00  0.00     0.049 A 
HETATM   18  O2  UNK     1      -2.657  -0.782  -0.467  1.00  0.00    -0.286 OA
HETATM   19  C13 UNK     1      -4.927  -2.029   0.693  1.00  0.00     0.018 A 
HETATM   20  C7  UNK     1      -3.649  -2.048   2.751  1.00  0.00     0.089 A 
HETATM   21  C17 UNK     1      -5.989  -2.646   1.356  1.00  0.00     0.001 A 
HETATM   22  C18 UNK     1      -5.882  -2.964   2.711  1.00  0.00     0.003 A 
HETATM   23  C15 UNK     1      -4.713  -2.665   3.410  1.00  0.00     0.038 A 
HETATM   24  O1  UNK     1      -2.524  -1.779   3.491  1.00  0.00    -0.321 OA
HETATM   25  C16 UNK     1      -1.472  -1.168   2.849  1.00  0.00     0.159 A 
ENDBRANCH   2  15
TORSDOF 3
