REMARK  2 active torsions:
REMARK  status: ('A' for Active; 'I' for Inactive)
REMARK    1  A    between atoms: C15_20  and  O4_4 
REMARK       I    between atoms: C8_13  and  N1_5 
REMARK    2  A    between atoms: C8_13  and  C9_14 
ROOT
HETATM    1  O2  UNK     1      -2.459  -0.674  -0.455  1.00  0.00    -0.271 OA
HETATM    2  O3  UNK     1      -1.744   0.027  -2.509  1.00  0.00    -0.259 OA
HETATM    3  C9  UNK     1      -0.065  -0.495  -0.920  1.00  0.00     0.108 A 
HETATM    4  C10 UNK     1       0.234  -0.910   0.316  1.00  0.00     0.037 A 
HETATM    5  C11 UNK     1      -1.466  -0.353  -1.376  1.00  0.00     0.304 A 
HETATM    6  C12 UNK     1      -0.827  -1.236   1.257  1.00  0.00     0.002 A 
HETATM    7  C13 UNK     1      -2.151  -1.110   0.849  1.00  0.00     0.123 A 
HETATM    8  C14 UNK     1      -0.561  -1.671   2.558  1.00  0.00     0.014 A 
HETATM    9  C15 UNK     1      -3.213  -1.407   1.700  1.00  0.00     0.102 A 
HETATM   10  C16 UNK     1      -1.616  -1.972   3.424  1.00  0.00     0.004 A 
HETATM   11  C17 UNK     1      -2.939  -1.841   2.995  1.00  0.00     0.040 A 
ENDROOT
BRANCH   3  12
HETATM   12  C8  UNK     1       1.080  -0.189  -1.800  1.00  0.00     0.260 C 
HETATM   13  N1  UNK     1       1.574   1.113  -1.794  1.00  0.00    -0.347 N 
HETATM   14  C4  UNK     1       1.066   2.237  -0.995  1.00  0.00     0.130 C 
HETATM   15  C5  UNK     1       2.685   1.464  -2.681  1.00  0.00     0.130 C 
HETATM   16  C1  UNK     1       2.174   2.851  -0.129  1.00  0.00    -0.000 C 
HETATM   17  C3  UNK     1       3.395   3.207  -0.994  1.00  0.00     0.011 C 
HETATM   18  C6  UNK     1       2.549   1.927   1.033  1.00  0.00     0.011 C 
HETATM   19  C2  UNK     1       3.861   2.036  -1.877  1.00  0.00    -0.000 C 
HETATM   20  C7  UNK     1       4.988   2.478  -2.809  1.00  0.00     0.011 C 
HETATM   21  O1  UNK     1       1.533  -1.107  -2.485  1.00  0.00    -0.267 OA
ENDBRANCH   3  12
BRANCH   9  22
HETATM   22  O4  UNK     1      -4.502  -1.280   1.288  1.00  0.00    -0.353 OA
HETATM   23  C18 UNK     1      -5.131  -0.015   1.496  1.00  0.00     0.210 C 
ENDBRANCH   9  22
TORSDOF 2
