REMARK  3 active torsions:
REMARK  status: ('A' for Active; 'I' for Inactive)
REMARK    1  A    between atoms: C14_18  and  O3_3 
REMARK    2  A    between atoms: C4_8  and  C6_10 
REMARK    3  A    between atoms: C14_18  and  C7_11 
ROOT
HETATM    1  O1  UNK     1       0.201   0.234   0.195  1.00  0.00    -0.307 OA
HETATM    2  O2  UNK     1      -0.749   0.202  -3.763  1.00  0.00    -0.287 OA
HETATM    3  C1  UNK     1       0.801   0.768  -2.090  1.00  0.00     0.050 A 
HETATM    4  C2  UNK     1       1.071   0.752  -0.726  1.00  0.00     0.107 A 
HETATM    5  C3  UNK     1      -1.396  -0.345  -1.539  1.00  0.00     0.024 A 
HETATM    6  C4  UNK     1      -0.996  -0.298  -0.252  1.00  0.00     0.096 A 
HETATM    7  C5  UNK     1      -0.472   0.209  -2.570  1.00  0.00     0.193 A 
HETATM    8  C7  UNK     1       2.270   1.278  -0.244  1.00  0.00     0.072 A 
HETATM    9  C8  UNK     1       1.728   1.310  -2.985  1.00  0.00     0.018 A 
HETATM   10  C9  UNK     1      -2.695  -0.893  -2.055  1.00  0.00     0.055 C 
HETATM   11  C10 UNK     1       3.198   1.820  -1.134  1.00  0.00     0.021 A 
HETATM   12  C11 UNK     1       2.927   1.835  -2.502  1.00  0.00     0.002 A 
ENDROOT
BRANCH   6  13
HETATM   13  C6  UNK     1      -1.814  -0.818   0.852  1.00  0.00    -0.002 A 
HETATM   14  C12 UNK     1      -1.682  -2.147   1.255  1.00  0.00     0.014 A 
HETATM   15  C15 UNK     1      -2.458  -2.640   2.304  1.00  0.00     0.001 A 
HETATM   16  C17 UNK     1      -3.367  -1.804   2.951  1.00  0.00     0.000 A 
HETATM   17  C16 UNK     1      -3.501  -0.475   2.549  1.00  0.00     0.001 A 
HETATM   18  C13 UNK     1      -2.724   0.018   1.500  1.00  0.00     0.014 A 
ENDBRANCH   6  13
BRANCH   8  19
HETATM   19  C14 UNK     1       2.583   1.275   1.179  1.00  0.00     0.179 C 
HETATM   20  O4  UNK     1       1.754   1.340   2.091  1.00  0.00    -0.646 OA
BRANCH  19  21
HETATM   21  O3  UNK     1       3.919   1.190   1.416  1.00  0.00    -0.773 OA
HETATM   22  H12 UNK     1       4.121   1.188   2.376  1.00  0.00     0.167 HD
ENDBRANCH  19  21
ENDBRANCH   8  19
TORSDOF 3
