REMARK  7 active torsions:
REMARK  status: ('A' for Active; 'I' for Inactive)
REMARK    1  A    between atoms: C15_23  and  O3_4 
REMARK    2  A    between atoms: C20_28  and  O3_4 
REMARK    3  A    between atoms: C5_13  and  N1_6 
REMARK    4  A    between atoms: C6_14  and  N2_7 
REMARK    5  A    between atoms: C17_25  and  N3_8 
REMARK       I    between atoms: C9_17  and  N3_8 
REMARK    6  A    between atoms: C5_13  and  C7_15 
REMARK    7  A    between atoms: C6_14  and  C9_17 
ROOT
HETATM    1  N1  UNK     1       1.077  -0.594  -1.264  1.00  0.00     0.096 N 
HETATM    2  N2  UNK     1      -1.603  -1.650  -1.012  1.00  0.00     0.100 N 
HETATM    3  C1  UNK     1       0.524  -0.967   0.044  1.00  0.00     0.303 C 
HETATM    4  C2  UNK     1       0.475  -1.410  -2.326  1.00  0.00     0.303 C 
HETATM    5  C3  UNK     1      -1.003  -0.832   0.050  1.00  0.00     0.303 C 
HETATM    6  C4  UNK     1      -1.051  -1.276  -2.320  1.00  0.00     0.303 C 
ENDROOT
BRANCH   1   7
HETATM    7  C5  UNK     1       2.532  -0.726  -1.269  1.00  0.00     0.312 C 
BRANCH   7   8
HETATM    8  C7  UNK     1       3.201   0.402  -0.564  1.00  0.00    -0.011 A 
HETATM    9  C10 UNK     1       3.461   0.341   0.750  1.00  0.00     0.092 A 
HETATM   10  C13 UNK     1       4.120   1.431   1.490  1.00  0.00     0.288 A 
HETATM   11  O1  UNK     1       4.472   2.555   0.760  1.00  0.00    -0.275 OA
HETATM   12  O4  UNK     1       4.342   1.340   2.692  1.00  0.00    -0.260 OA
HETATM   13  C11 UNK     1       4.211   2.649  -0.622  1.00  0.00     0.090 A 
HETATM   14  C8  UNK     1       3.586   1.608  -1.310  1.00  0.00     0.009 A 
HETATM   15  C14 UNK     1       4.609   3.828  -1.254  1.00  0.00     0.041 A 
HETATM   16  C12 UNK     1       3.361   1.779  -2.682  1.00  0.00     0.051 A 
HETATM   17  C15 UNK     1       3.753   2.956  -3.330  1.00  0.00     0.069 A 
HETATM   18  C16 UNK     1       4.377   3.979  -2.617  1.00  0.00     0.039 A 
BRANCH  17  19
HETATM   19  O3  UNK     1       3.525   3.103  -4.665  1.00  0.00    -0.351 OA
BRANCH  19  20
HETATM   20  C20 UNK     1       3.311   4.429  -5.145  1.00  0.00     0.171 C 
HETATM   21  C24 UNK     1       2.408   4.375  -6.358  1.00  0.00     0.034 C 
ENDBRANCH  19  20
ENDBRANCH  17  19
ENDBRANCH   7   8
ENDBRANCH   1   7
BRANCH   2  22
HETATM   22  C6  UNK     1      -3.059  -1.520  -1.006  1.00  0.00     0.375 C 
BRANCH  22  23
HETATM   23  C9  UNK     1      -3.636  -2.351   0.127  1.00  0.00     0.250 C 
HETATM   24  O2  UNK     1      -3.471  -3.564   0.207  1.00  0.00    -0.271 OA
HETATM   25  N3  UNK     1      -4.340  -1.537   1.011  1.00  0.00    -0.326 N 
HETATM   26  H15 UNK     1      -4.382  -0.540   0.811  1.00  0.00     0.169 HD
BRANCH  25  27
HETATM   27  C17 UNK     1      -5.022  -1.928   2.188  1.00  0.00     0.036 A 
HETATM   28  C18 UNK     1      -5.680  -0.973   2.964  1.00  0.00     0.053 A 
HETATM   29  C21 UNK     1      -6.351  -1.359   4.124  1.00  0.00     0.036 A 
HETATM   30 Cl1  UNK     1      -7.162  -0.182   5.082  1.00  0.00    -0.084 Cl
HETATM   31  C23 UNK     1      -6.364  -2.700   4.509  1.00  0.00     0.024 A 
HETATM   32  C22 UNK     1      -5.706  -3.654   3.734  1.00  0.00     0.004 A 
HETATM   33  C19 UNK     1      -5.035  -3.268   2.573  1.00  0.00     0.029 A 
ENDBRANCH  25  27
ENDBRANCH  22  23
ENDBRANCH   2  22
TORSDOF 7
