REMARK  4 active torsions:
REMARK  status: ('A' for Active; 'I' for Inactive)
REMARK    1  A    between atoms: C15_22  and  O4_4 
REMARK    2  A    between atoms: C16_23  and  O6_6 
REMARK       I    between atoms: C6_13  and  N1_7 
REMARK    3  A    between atoms: C3_10  and  C6_13 
REMARK    4  A    between atoms: C3_10  and  C7_14 
ROOT
HETATM    1  O2  UNK     1       1.943   0.521   1.096  1.00  0.00    -0.274 OA
HETATM    2  O5  UNK     1       0.742  -0.631   2.639  1.00  0.00    -0.259 OA
HETATM    3  C7  UNK     1      -0.073  -0.701   0.402  1.00  0.00     0.033 A 
HETATM    4  C8  UNK     1       0.073  -0.279  -0.873  1.00  0.00    -0.036 A 
HETATM    5  C9  UNK     1       1.230   0.566  -1.230  1.00  0.00     0.007 A 
HETATM    6  C10 UNK     1       2.126   0.938  -0.232  1.00  0.00     0.093 A 
HETATM    7  C11 UNK     1       0.882  -0.286   1.470  1.00  0.00     0.295 A 
HETATM    8  C12 UNK     1      -0.899  -0.609  -1.979  1.00  0.00     0.050 C 
HETATM    9  C13 UNK     1       1.499   1.019  -2.531  1.00  0.00     0.054 A 
HETATM   10  C14 UNK     1       3.246   1.735  -0.484  1.00  0.00     0.077 A 
HETATM   11  C15 UNK     1       2.617   1.817  -2.803  1.00  0.00     0.102 A 
HETATM   12  C16 UNK     1       3.489   2.176  -1.779  1.00  0.00     0.104 A 
ENDROOT
BRANCH   3  13
HETATM   13  C3  UNK     1      -1.169  -1.615   0.886  1.00  0.00     0.148 C 
BRANCH  13  14
HETATM   14  C6  UNK     1      -2.317  -0.735   1.310  1.00  0.00     0.224 C 
HETATM   15  O3  UNK     1      -2.219   0.488   1.188  1.00  0.00    -0.273 OA
HETATM   16  N1  UNK     1      -3.441  -1.382   1.820  1.00  0.00    -0.348 N 
HETATM   17  C1  UNK     1      -4.602  -0.603   2.250  1.00  0.00     0.152 C 
HETATM   18  C2  UNK     1      -3.543  -2.819   2.097  1.00  0.00     0.152 C 
HETATM   19  C4  UNK     1      -5.886  -1.235   1.732  1.00  0.00     0.187 C 
HETATM   20  O1  UNK     1      -5.960  -2.605   2.135  1.00  0.00    -0.388 OA
HETATM   21  C5  UNK     1      -4.874  -3.360   1.590  1.00  0.00     0.187 C 
ENDBRANCH  13  14
ENDBRANCH   3  13
BRANCH  11  22
HETATM   22  O4  UNK     1       2.842   2.237  -4.080  1.00  0.00    -0.353 OA
HETATM   23  C17 UNK     1       3.639   1.393  -4.908  1.00  0.00     0.210 C 
ENDBRANCH  11  22
BRANCH  12  24
HETATM   24  O6  UNK     1       4.579   2.951  -2.033  1.00  0.00    -0.353 OA
HETATM   25  C18 UNK     1       4.409   4.364  -1.931  1.00  0.00     0.210 C 
ENDBRANCH  12  24
TORSDOF 4
