REMARK  3 active torsions:
REMARK  status: ('A' for Active; 'I' for Inactive)
REMARK       I    between atoms: C10_20  and  N1_6 
REMARK    1  A    between atoms: N1_6  and  N2_7 
REMARK    2  A    between atoms: C6_16  and  N3_8 
REMARK    3  A    between atoms: C10_20  and  C3_13 
ROOT
HETATM    1  O1  UNK     1      -0.391   0.288  -2.437  1.00  0.00    -0.274 OA
HETATM    2  O2  UNK     1      -2.253  -0.812  -1.701  1.00  0.00    -0.259 OA
HETATM    3  C1  UNK     1       1.392   0.811  -0.870  1.00  0.00     0.001 A 
HETATM    4  C2  UNK     1       0.870   0.851  -2.159  1.00  0.00     0.089 A 
HETATM    5  C3  UNK     1      -0.581  -0.355  -0.086  1.00  0.00     0.110 A 
HETATM    6  C4  UNK     1       0.616   0.179   0.185  1.00  0.00     0.037 A 
HETATM    7  C5  UNK     1       2.646   1.380  -0.633  1.00  0.00     0.050 A 
HETATM    8  C6  UNK     1       3.353   1.977  -1.682  1.00  0.00     0.103 A 
HETATM    9  C7  UNK     1       1.562   1.443  -3.214  1.00  0.00     0.041 A 
HETATM   10  C8  UNK     1      -1.157  -0.324  -1.449  1.00  0.00     0.304 A 
HETATM   11  C9  UNK     1       2.811   2.008  -2.969  1.00  0.00     0.039 A 
ENDROOT
BRANCH   5  12
HETATM   12  C10 UNK     1      -1.287  -0.970   1.044  1.00  0.00     0.276 C 
HETATM   13  O3  UNK     1      -0.667  -1.481   1.975  1.00  0.00    -0.266 OA
HETATM   14  N1  UNK     1      -2.662  -0.896   0.913  1.00  0.00    -0.257 N 
HETATM   15  H5  UNK     1      -3.141  -0.444   0.141  1.00  0.00     0.191 HD
BRANCH  14  16
HETATM   16  N2  UNK     1      -3.470  -1.423   1.882  1.00  0.00    -0.237 N 
HETATM   17  C11 UNK     1      -3.941  -2.681   1.925  1.00  0.00     0.258 A 
HETATM   18  N4  UNK     1      -4.677  -2.820   3.004  1.00  0.00    -0.142 NA
HETATM   19  N5  UNK     1      -4.672  -1.609   3.668  1.00  0.00    -0.142 NA
HETATM   20  C12 UNK     1      -3.933  -0.779   2.968  1.00  0.00     0.258 A 
ENDBRANCH  14  16
ENDBRANCH   5  12
BRANCH   8  21
HETATM   21  N3  UNK     1       4.627   2.554  -1.437  1.00  0.00    -0.116 N 
HETATM   22  O4  UNK     1       5.246   3.086  -2.390  1.00  0.00    -0.532 OA
HETATM   23  O5  UNK     1       5.098   2.518  -0.275  1.00  0.00    -0.532 OA
ENDBRANCH   8  21
TORSDOF 3
