REMARK  8 active torsions:
REMARK  status: ('A' for Active; 'I' for Inactive)
REMARK    1  A    between atoms: C2_8  and  S1_1 
REMARK    2  A    between atoms: C8_14  and  S1_1 
REMARK    3  A    between atoms: C3_9  and  O1_2 
REMARK    4  A    between atoms: C24_30  and  O3_4 
REMARK    5  A    between atoms: C1_7  and  C2_8 
REMARK    6  A    between atoms: C13_19  and  C6_12 
REMARK    7  A    between atoms: C16_22  and  C18_24 
REMARK    8  A    between atoms: C17_23  and  C18_24 
ROOT
HETATM    1  C1  UNK     1       0.011   2.463   0.794  1.00  0.00    -0.014 A 
HETATM    2  C3  UNK     1       1.387   2.577   0.991  1.00  0.00     0.075 A 
HETATM    3  C4  UNK     1      -0.769   1.761   1.713  1.00  0.00     0.022 A 
HETATM    4  C6  UNK     1      -0.173   1.174   2.829  1.00  0.00    -0.035 A 
HETATM    5  C9  UNK     1       1.983   1.990   2.106  1.00  0.00     0.038 A 
HETATM    6  C10 UNK     1       1.203   1.288   3.026  1.00  0.00     0.014 A 
ENDROOT
BRANCH   1   7
HETATM    7  C2  UNK     1      -0.649   3.089  -0.404  1.00  0.00     0.123 C 
BRANCH   7   8
HETATM    8  S1  UNK     1      -1.064   1.854  -1.687  1.00  0.00    -0.087 SA
BRANCH   8   9
HETATM    9  C8  UNK     1       0.433   1.597  -2.499  1.00  0.00     0.167 A 
HETATM   10  N1  UNK     1       0.715   0.387  -3.071  1.00  0.00    -0.333 N 
HETATM   11  C5  UNK     1       1.961   0.473  -3.638  1.00  0.00     0.063 A 
HETATM   12  H4  UNK     1       0.113  -0.425  -3.074  1.00  0.00     0.168 HD
HETATM   13  C11 UNK     1       2.737  -0.448  -4.343  1.00  0.00     0.032 A 
HETATM   14  C7  UNK     1       2.376   1.774  -3.367  1.00  0.00     0.086 A 
HETATM   15  C14 UNK     1       3.989  -0.008  -4.786  1.00  0.00     0.002 A 
HETATM   16  C15 UNK     1       4.432   1.292  -4.530  1.00  0.00     0.002 A 
HETATM   17  C12 UNK     1       3.636   2.199  -3.820  1.00  0.00     0.034 A 
HETATM   18  N2  UNK     1       1.414   2.457  -2.659  1.00  0.00    -0.223 NA
ENDBRANCH   8   9
ENDBRANCH   7   8
ENDBRANCH   1   7
BRANCH   2  19
HETATM   19  O1  UNK     1       2.164   3.258   0.102  1.00  0.00    -0.355 OA
HETATM   20  C19 UNK     1       3.561   3.325   0.382  1.00  0.00     0.210 C 
ENDBRANCH   2  19
BRANCH   4  21
HETATM   21  C13 UNK     1      -0.986   0.442   3.788  1.00  0.00     0.015 C 
HETATM   22  C16 UNK     1      -1.735  -0.647   3.504  1.00  0.00     0.056 C 
BRANCH  22  23
HETATM   23  C18 UNK     1      -1.774  -1.193   2.118  1.00  0.00     0.182 C 
HETATM   24  O2  UNK     1      -0.830  -1.094   1.342  1.00  0.00    -0.288 OA
BRANCH  23  25
HETATM   25  C17 UNK     1      -3.003  -1.906   1.694  1.00  0.00     0.014 A 
HETATM   26  C20 UNK     1      -4.238  -1.552   2.238  1.00  0.00     0.018 A 
HETATM   27  C22 UNK     1      -5.394  -2.224   1.840  1.00  0.00     0.037 A 
HETATM   28  C24 UNK     1      -5.315  -3.249   0.897  1.00  0.00     0.065 A 
HETATM   29  C23 UNK     1      -4.080  -3.603   0.353  1.00  0.00     0.037 A 
HETATM   30  C21 UNK     1      -2.924  -2.931   0.751  1.00  0.00     0.018 A 
BRANCH  28  31
HETATM   31  O3  UNK     1      -6.443  -3.905   0.509  1.00  0.00    -0.361 OA
HETATM   32  H20 UNK     1      -6.203  -4.582  -0.147  1.00  0.00     0.217 HD
ENDBRANCH  28  31
ENDBRANCH  23  25
ENDBRANCH  22  23
ENDBRANCH   4  21
TORSDOF 8
