REMARK  5 active torsions:
REMARK  status: ('A' for Active; 'I' for Inactive)
REMARK    1  A    between atoms: C5_11  and  N1_4 
REMARK       I    between atoms: C6_12  and  N2_5 
REMARK    2  A    between atoms: C14_20  and  N3_6 
REMARK    3  A    between atoms: C6_12  and  C7_13 
REMARK    4  A    between atoms: C10_16  and  C7_13 
REMARK    5  A    between atoms: C13_19  and  C15_21 
ROOT
HETATM    1  O1  UNK     1       1.035   3.157  -1.269  1.00  0.00    -0.267 OA
HETATM    2  N1  UNK     1      -1.796  -0.512   0.176  1.00  0.00    -0.378 N 
HETATM    3  N2  UNK     1       0.265   0.976  -1.049  1.00  0.00    -0.345 N 
HETATM    4  C1  UNK     1      -2.021   0.905  -0.155  1.00  0.00     0.143 C 
HETATM    5  C2  UNK     1      -0.396  -0.918   0.371  1.00  0.00     0.143 C 
HETATM    6  C3  UNK     1      -1.126   1.333  -1.317  1.00  0.00     0.146 C 
HETATM    7  C4  UNK     1       0.457  -0.457  -0.810  1.00  0.00     0.146 C 
HETATM    8  C6  UNK     1       1.246   1.961  -1.062  1.00  0.00     0.254 C 
ENDROOT
BRANCH   8   9
HETATM    9  C7  UNK     1       2.640   1.548  -0.805  1.00  0.00     0.043 C 
HETATM   10  C13 UNK     1       3.342   1.207  -1.899  1.00  0.00     0.029 C 
BRANCH   9  11
HETATM   11  C10 UNK     1       3.147   1.536   0.574  1.00  0.00    -0.021 A 
HETATM   12  C16 UNK     1       4.131   0.626   0.933  1.00  0.00     0.012 A 
HETATM   13  C18 UNK     1       4.614   0.617   2.241  1.00  0.00     0.001 A 
HETATM   14  C22 UNK     1       4.107   1.518   3.178  1.00  0.00     0.000 A 
HETATM   15  C19 UNK     1       3.117   2.428   2.805  1.00  0.00     0.001 A 
HETATM   16  C17 UNK     1       2.635   2.437   1.496  1.00  0.00     0.012 A 
ENDBRANCH   9  11
BRANCH  10  17
HETATM   17  C15 UNK     1       2.839   1.217  -3.281  1.00  0.00    -0.035 A 
HETATM   18  C20 UNK     1       2.251   0.074  -3.801  1.00  0.00     0.011 A 
HETATM   19  C23 UNK     1       1.773   0.085  -5.111  1.00  0.00     0.001 A 
HETATM   20  C25 UNK     1       1.888   1.239  -5.886  1.00  0.00     0.000 A 
HETATM   21  C24 UNK     1       2.482   2.382  -5.350  1.00  0.00     0.001 A 
HETATM   22  C21 UNK     1       2.960   2.371  -4.040  1.00  0.00     0.011 A 
ENDBRANCH  10  17
ENDBRANCH   8   9
BRANCH   2  23
HETATM   23  C5  UNK     1      -2.812  -1.188   0.862  1.00  0.00     0.030 A 
HETATM   24  C8  UNK     1      -2.583  -1.772   2.131  1.00  0.00     0.032 A 
HETATM   25  C11 UNK     1      -3.595  -2.446   2.814  1.00  0.00     0.038 A 
HETATM   26  C14 UNK     1      -4.865  -2.555   2.248  1.00  0.00     0.103 A 
HETATM   27  C12 UNK     1      -5.123  -1.991   0.999  1.00  0.00     0.038 A 
HETATM   28  C9  UNK     1      -4.111  -1.317   0.316  1.00  0.00     0.032 A 
BRANCH  26  29
HETATM   29  N3  UNK     1      -5.896  -3.241   2.943  1.00  0.00    -0.116 N 
HETATM   30  O2  UNK     1      -5.644  -3.741   4.066  1.00  0.00    -0.532 OA
HETATM   31  O3  UNK     1      -7.032  -3.328   2.416  1.00  0.00    -0.532 OA
ENDBRANCH  26  29
ENDBRANCH   2  23
TORSDOF 5
