REMARK  5 active torsions:
REMARK  status: ('A' for Active; 'I' for Inactive)
REMARK    1  A    between atoms: C3_10  and  N1_6 
REMARK       I    between atoms: C9_16  and  N1_6 
REMARK       I    between atoms: C14_21  and  N2_7 
REMARK    2  A    between atoms: C1_8  and  C2_9 
REMARK    3  A    between atoms: C1_8  and  C6_13 
REMARK    4  A    between atoms: C14_21  and  C4_11 
REMARK    5  A    between atoms: C7_14  and  C9_16 
ROOT
HETATM    1  S1  UNK     1      -1.871   0.430   1.039  1.00  0.00    -0.076 SA
HETATM    2  C2  UNK     1      -3.332  -0.454   0.906  1.00  0.00    -0.010 A 
HETATM    3  C3  UNK     1      -1.439  -0.030  -0.531  1.00  0.00     0.093 A 
HETATM    4  C4  UNK     1      -2.332  -0.816  -1.160  1.00  0.00     0.066 A 
HETATM    5  C5  UNK     1      -3.454  -1.071  -0.319  1.00  0.00     0.035 A 
ENDROOT
BRANCH   3   6
HETATM    6  N1  UNK     1      -0.193   0.470  -0.983  1.00  0.00    -0.316 N 
HETATM    7  C9  UNK     1       0.696   1.281  -0.292  1.00  0.00     0.262 C 
HETATM    8  O2  UNK     1       0.584   1.729   0.849  1.00  0.00    -0.267 OA
HETATM    9  H4  UNK     1       0.050   0.161  -1.921  1.00  0.00     0.169 HD
BRANCH   7  10
HETATM   10  C7  UNK     1       1.889   1.598  -1.085  1.00  0.00     0.108 A 
HETATM   11  C10 UNK     1       3.019   1.803  -0.397  1.00  0.00     0.037 A 
HETATM   12  C8  UNK     1       4.255   2.122  -1.095  1.00  0.00    -0.001 A 
HETATM   13  C11 UNK     1       4.240   2.211  -2.483  1.00  0.00     0.089 A 
HETATM   14  C16 UNK     1       5.457   2.343  -0.418  1.00  0.00     0.014 A 
HETATM   15  O1  UNK     1       3.048   1.995  -3.201  1.00  0.00    -0.274 OA
HETATM   16  C17 UNK     1       5.389   2.514  -3.211  1.00  0.00     0.038 A 
HETATM   17  C15 UNK     1       1.850   1.686  -2.562  1.00  0.00     0.304 A 
HETATM   18  O4  UNK     1       0.817   1.500  -3.195  1.00  0.00    -0.259 OA
HETATM   19  C22 UNK     1       6.583   2.733  -2.529  1.00  0.00     0.003 A 
HETATM   20  C21 UNK     1       6.617   2.647  -1.135  1.00  0.00     0.001 A 
ENDBRANCH   7  10
ENDBRANCH   3   6
BRANCH   4  21
HETATM   21  C14 UNK     1      -2.172  -1.325  -2.498  1.00  0.00     0.252 C 
HETATM   22  O3  UNK     1      -1.167  -1.098  -3.198  1.00  0.00    -0.268 OA
HETATM   23  N2  UNK     1      -3.192  -2.128  -3.006  1.00  0.00    -0.366 N 
HETATM   24  H15 UNK     1      -4.035  -2.365  -2.497  1.00  0.00     0.159 HD
HETATM   25  H16 UNK     1      -3.117  -2.514  -3.942  1.00  0.00     0.159 HD
ENDBRANCH   4  21
BRANCH   2  26
HETATM   26  C1  UNK     1      -4.274  -0.476   2.046  1.00  0.00     0.084 C 
BRANCH  26  27
HETATM   27  C6  UNK     1      -4.038  -1.609   3.033  1.00  0.00    -0.053 A 
HETATM   28  C12 UNK     1      -3.186  -1.400   4.099  1.00  0.00     0.007 A 
HETATM   29  C18 UNK     1      -2.970  -2.440   5.004  1.00  0.00     0.001 A 
HETATM   30  C20 UNK     1      -3.610  -3.666   4.824  1.00  0.00     0.000 A 
HETATM   31  C19 UNK     1      -4.467  -3.853   3.739  1.00  0.00     0.001 A 
HETATM   32  C13 UNK     1      -4.683  -2.813   2.834  1.00  0.00     0.007 A 
ENDBRANCH  26  27
ENDBRANCH   2  26
TORSDOF 5
