REMARK  2 active torsions:
REMARK  status: ('A' for Active; 'I' for Inactive)
REMARK    1  A    between atoms: C4_8  and  N1_3 
REMARK    2  A    between atoms: C10_14  and  N2_4 
ROOT
HETATM    1  O1  UNK     1      -3.690  -1.831   0.855  1.00  0.00    -0.275 OA
HETATM    2  O2  UNK     1      -4.859  -2.795   2.573  1.00  0.00    -0.260 OA
HETATM    3  C1  UNK     1      -1.652  -0.598   1.356  1.00  0.00     0.000 A 
HETATM    4  C2  UNK     1      -2.581  -1.070   0.432  1.00  0.00     0.089 A 
HETATM    5  C3  UNK     1      -0.566   0.152   0.898  1.00  0.00     0.047 A 
HETATM    6  C4  UNK     1      -0.426   0.417  -0.467  1.00  0.00     0.080 A 
HETATM    7  C5  UNK     1      -2.453  -0.815  -0.932  1.00  0.00     0.040 A 
HETATM    8  C6  UNK     1      -1.847  -0.901   2.763  1.00  0.00     0.020 A 
HETATM    9  C7  UNK     1      -1.367  -0.066  -1.380  1.00  0.00     0.036 A 
HETATM   10  C8  UNK     1      -2.900  -1.623   3.156  1.00  0.00     0.083 A 
HETATM   11  C9  UNK     1      -3.896  -2.135   2.196  1.00  0.00     0.288 A 
ENDROOT
BRANCH   6  12
HETATM   12  N1  UNK     1       0.663   1.169  -0.922  1.00  0.00    -0.150 NA
HETATM   13  N2  UNK     1       1.652   0.449  -1.202  1.00  0.00    -0.150 NA
BRANCH  13  14
HETATM   14  C10 UNK     1       2.720   1.245  -1.650  1.00  0.00     0.079 A 
HETATM   15  C11 UNK     1       3.643   1.742  -0.734  1.00  0.00     0.033 A 
HETATM   16  C13 UNK     1       4.703   2.532  -1.179  1.00  0.00     0.002 A 
HETATM   17  C15 UNK     1       4.835   2.821  -2.537  1.00  0.00     0.000 A 
HETATM   18  C14 UNK     1       3.907   2.321  -3.450  1.00  0.00     0.002 A 
HETATM   19  C12 UNK     1       2.847   1.531  -3.005  1.00  0.00     0.033 A 
ENDBRANCH  13  14
ENDBRANCH   6  12
TORSDOF 2
