REMARK  4 active torsions:
REMARK  status: ('A' for Active; 'I' for Inactive)
REMARK    1  A    between atoms: C12_19  and  O4_5 
REMARK    2  A    between atoms: C11_18  and  N1_7 
REMARK       I    between atoms: C7_14  and  N1_7 
REMARK    3  A    between atoms: C3_10  and  C7_14 
REMARK    4  A    between atoms: C11_18  and  C12_19 
ROOT
HETATM    1 Cl1  UNK     1       3.933   2.959  -4.173  1.00  0.00    -0.084 Cl
HETATM    2  O1  UNK     1       1.834   0.587   0.802  1.00  0.00    -0.274 OA
HETATM    3  O3  UNK     1       0.186  -0.524   1.929  1.00  0.00    -0.259 OA
HETATM    4  C1  UNK     1       1.547   1.086  -1.560  1.00  0.00     0.001 A 
HETATM    5  C2  UNK     1       2.312   1.145  -0.400  1.00  0.00     0.089 A 
HETATM    6  C3  UNK     1      -0.203  -0.091  -0.368  1.00  0.00     0.108 A 
HETATM    7  C4  UNK     1       0.245   0.438  -1.512  1.00  0.00     0.037 A 
HETATM    8  C5  UNK     1       2.054   1.652  -2.732  1.00  0.00     0.038 A 
HETATM    9  C6  UNK     1       0.593  -0.040   0.879  1.00  0.00     0.304 A 
HETATM   10  C8  UNK     1       3.566   1.752  -0.378  1.00  0.00     0.040 A 
HETATM   11  C9  UNK     1       3.311   2.264  -2.726  1.00  0.00     0.035 A 
HETATM   12  C10 UNK     1       4.065   2.313  -1.551  1.00  0.00     0.026 A 
ENDROOT
BRANCH   6  13
HETATM   13  C7  UNK     1      -1.527  -0.724  -0.420  1.00  0.00     0.258 C 
HETATM   14  O2  UNK     1      -2.386  -0.325  -1.204  1.00  0.00    -0.267 OA
HETATM   15  N1  UNK     1      -1.662  -1.764   0.482  1.00  0.00    -0.347 N 
HETATM   16  H4  UNK     1      -0.885  -2.027   1.079  1.00  0.00     0.163 HD
BRANCH  15  17
HETATM   17  C11 UNK     1      -2.876  -2.537   0.616  1.00  0.00     0.233 C 
BRANCH  17  18
HETATM   18  C12 UNK     1      -3.837  -1.964   1.631  1.00  0.00     0.276 C 
HETATM   19  O5  UNK     1      -4.921  -2.485   1.871  1.00  0.00    -0.263 OA
BRANCH  18  20
HETATM   20  O4  UNK     1      -3.358  -0.834   2.220  1.00  0.00    -0.325 OA
HETATM   21  C13 UNK     1      -4.214  -0.230   3.195  1.00  0.00     0.213 C 
ENDBRANCH  18  20
ENDBRANCH  17  18
ENDBRANCH  15  17
ENDBRANCH   6  13
TORSDOF 4
