REMARK  4 active torsions:
REMARK  status: ('A' for Active; 'I' for Inactive)
REMARK    1  A    between atoms: C20_25  and  O4_4 
REMARK    2  A    between atoms: C11_16  and  N1_5 
REMARK       I    between atoms: C13_18  and  N1_5 
REMARK    3  A    between atoms: C1_6  and  C11_16 
REMARK    4  A    between atoms: C13_18  and  C14_19 
ROOT
HETATM    1  O1  UNK     1      -1.614   0.431  -2.420  1.00  0.00    -0.267 OA
HETATM    2  N1  UNK     1      -0.921  -0.985  -0.702  1.00  0.00    -0.352 N 
HETATM    3  C13 UNK     1      -0.773   0.041  -1.618  1.00  0.00     0.258 C 
HETATM    4  H20 UNK     1      -0.132  -1.258  -0.125  1.00  0.00     0.163 HD
ENDROOT
BRANCH   3   5
HETATM    5  C14 UNK     1       0.556   0.677  -1.554  1.00  0.00     0.108 A 
HETATM    6  C15 UNK     1       1.022   1.189  -2.699  1.00  0.00     0.037 A 
HETATM    7  C17 UNK     1       2.324   1.837  -2.737  1.00  0.00     0.002 A 
HETATM    8  C18 UNK     1       3.072   1.913  -1.566  1.00  0.00     0.123 A 
HETATM    9  C19 UNK     1       2.849   2.385  -3.909  1.00  0.00     0.014 A 
HETATM   10  O2  UNK     1       2.576   1.372  -0.364  1.00  0.00    -0.271 OA
HETATM   11  C20 UNK     1       4.326   2.519  -1.535  1.00  0.00     0.102 A 
HETATM   12  C16 UNK     1       1.334   0.747  -0.297  1.00  0.00     0.304 A 
HETATM   13  O3  UNK     1       0.910   0.279   0.755  1.00  0.00    -0.259 OA
HETATM   14  C22 UNK     1       4.843   3.064  -2.708  1.00  0.00     0.040 A 
HETATM   15  C21 UNK     1       4.106   2.997  -3.893  1.00  0.00     0.004 A 
BRANCH  11  16
HETATM   16  O4  UNK     1       5.046   2.586  -0.383  1.00  0.00    -0.353 OA
HETATM   17  C23 UNK     1       5.937   1.505  -0.109  1.00  0.00     0.210 C 
ENDBRANCH  11  16
ENDBRANCH   3   5
BRANCH   2  18
HETATM   18  C11 UNK     1      -2.133  -1.753  -0.575  1.00  0.00     0.089 C 
HETATM   19  C12 UNK     1      -1.866  -3.221  -0.865  1.00  0.00     0.033 C 
BRANCH  18  20
HETATM   20  C1  UNK     1      -2.734  -1.570   0.821  1.00  0.00    -0.019 C 
HETATM   21  C5  UNK     1      -1.767  -2.117   1.898  1.00  0.00     0.016 C 
HETATM   22  C2  UNK     1      -2.369  -1.935   3.303  1.00  0.00    -0.013 C 
HETATM   23  C8  UNK     1      -2.619  -0.439   3.556  1.00  0.00     0.009 C 
HETATM   24  C9  UNK     1      -3.704  -2.693   3.384  1.00  0.00     0.009 C 
HETATM   25  C3  UNK     1      -3.595   0.118   2.505  1.00  0.00    -0.013 C 
HETATM   26  C10 UNK     1      -4.924  -0.651   2.591  1.00  0.00     0.009 C 
HETATM   27  C6  UNK     1      -2.990  -0.070   1.103  1.00  0.00     0.016 C 
HETATM   28  C4  UNK     1      -4.685  -2.148   2.333  1.00  0.00    -0.013 C 
HETATM   29  C7  UNK     1      -4.077  -2.329   0.931  1.00  0.00     0.016 C 
ENDBRANCH  18  20
ENDBRANCH   2  18
TORSDOF 4
