REMARK  2 active torsions:
REMARK  status: ('A' for Active; 'I' for Inactive)
REMARK    1  A    between atoms: C1_3  and  C4_6 
REMARK    2  A    between atoms: C3_5  and  C7_9 
ROOT
HETATM    1  N1  UNK     1       3.681   1.658   1.903  1.00  0.00    -0.191 NA
HETATM    2  C4  UNK     1       0.555   0.170   1.793  1.00  0.00     0.034 C 
HETATM    3  C7  UNK     1       1.466   0.715   0.947  1.00  0.00     0.055 C 
HETATM    4  C16 UNK     1       2.688   1.235   1.476  1.00  0.00     0.100 C 
ENDROOT
BRANCH   3   5
HETATM    5  C3  UNK     1       1.251   0.788  -0.512  1.00  0.00    -0.015 A 
HETATM    6  C10 UNK     1       1.671  -0.262  -1.311  1.00  0.00     0.014 A 
HETATM    7  C13 UNK     1       1.467  -0.193  -2.689  1.00  0.00     0.024 A 
HETATM    8  C15 UNK     1       0.846   0.924  -3.247  1.00  0.00     0.034 A 
HETATM    9  C14 UNK     1       0.430   1.973  -2.427  1.00  0.00     0.024 A 
HETATM   10 Cl1  UNK     1       0.594   1.009  -4.947  1.00  0.00    -0.084 Cl
HETATM   11  C11 UNK     1       0.634   1.904  -1.049  1.00  0.00     0.014 A 
ENDBRANCH   3   5
BRANCH   2  12
HETATM   12  C1  UNK     1      -0.743  -0.384   1.440  1.00  0.00    -0.035 A 
HETATM   13  C5  UNK     1      -1.873   0.434   1.435  1.00  0.00     0.012 A 
HETATM   14  C8  UNK     1      -3.117  -0.098   1.096  1.00  0.00     0.007 A 
HETATM   15  C2  UNK     1      -3.231  -1.448   0.762  1.00  0.00    -0.062 A 
HETATM   16  C12 UNK     1      -4.562  -2.016   0.400  1.00  0.00     0.048 C 
HETATM   17  C9  UNK     1      -2.101  -2.265   0.767  1.00  0.00     0.007 A 
HETATM   18  C6  UNK     1      -0.857  -1.734   1.106  1.00  0.00     0.012 A 
ENDBRANCH   2  12
TORSDOF 2
