REMARK  5 active torsions:
REMARK  status: ('A' for Active; 'I' for Inactive)
REMARK    1  A    between atoms: C13_22  and  O2_5 
REMARK    2  A    between atoms: C3_12  and  N1_9 
REMARK       I    between atoms: C8_17  and  N1_9 
REMARK    3  A    between atoms: C1_10  and  C4_13 
REMARK    4  A    between atoms: C13_22  and  C2_11 
REMARK    5  A    between atoms: C6_15  and  C8_17 
ROOT
HETATM    1  S1  UNK     1       0.314   0.519   2.433  1.00  0.00    -0.082 SA
HETATM    2  C1  UNK     1      -1.901  -0.682   1.935  1.00  0.00    -0.000 A 
HETATM    3  C2  UNK     1      -1.327  -0.370   0.668  1.00  0.00     0.085 A 
HETATM    4  C3  UNK     1      -0.140   0.274   0.814  1.00  0.00     0.094 A 
HETATM    5  C5  UNK     1      -1.112  -0.255   2.980  1.00  0.00     0.065 A 
ENDROOT
BRANCH   4   6
HETATM    6  N1  UNK     1       0.752   0.759  -0.147  1.00  0.00    -0.316 N 
HETATM    7  C8  UNK     1       1.952   1.410   0.106  1.00  0.00     0.262 C 
HETATM    8  O3  UNK     1       2.462   1.685   1.190  1.00  0.00    -0.267 OA
HETATM    9  H2  UNK     1       0.469   0.583  -1.107  1.00  0.00     0.169 HD
BRANCH   7  10
HETATM   10  C6  UNK     1       2.641   1.786  -1.134  1.00  0.00     0.108 A 
HETATM   11  C14 UNK     1       1.904   2.102  -2.378  1.00  0.00     0.304 A 
HETATM   12  O1  UNK     1       2.670   2.446  -3.489  1.00  0.00    -0.274 OA
HETATM   13  O5  UNK     1       0.680   2.065  -2.433  1.00  0.00    -0.259 OA
HETATM   14  C10 UNK     1       4.077   2.492  -3.436  1.00  0.00     0.089 A 
HETATM   15  C7  UNK     1       4.750   2.191  -2.256  1.00  0.00    -0.001 A 
HETATM   16  C18 UNK     1       4.757   2.847  -4.599  1.00  0.00     0.038 A 
HETATM   17  C15 UNK     1       6.146   2.247  -2.244  1.00  0.00     0.014 A 
HETATM   18  C9  UNK     1       3.978   1.828  -1.078  1.00  0.00     0.037 A 
HETATM   19  C20 UNK     1       6.842   2.602  -3.403  1.00  0.00     0.001 A 
HETATM   20  C21 UNK     1       6.149   2.901  -4.578  1.00  0.00     0.003 A 
ENDBRANCH   7  10
ENDBRANCH   4   6
BRANCH   3  21
HETATM   21  C13 UNK     1      -1.906  -0.683  -0.615  1.00  0.00     0.296 C 
HETATM   22  O4  UNK     1      -1.378  -0.396  -1.699  1.00  0.00    -0.259 OA
BRANCH  21  23
HETATM   23  O2  UNK     1      -3.115  -1.339  -0.538  1.00  0.00    -0.322 OA
HETATM   24  C22 UNK     1      -3.747  -1.679  -1.777  1.00  0.00     0.213 C 
ENDBRANCH  21  23
ENDBRANCH   3  21
BRANCH   2  25
HETATM   25  C4  UNK     1      -3.146  -1.358   2.195  1.00  0.00    -0.023 A 
HETATM   26  C11 UNK     1      -3.170  -2.745   2.320  1.00  0.00     0.038 A 
HETATM   27  C16 UNK     1      -4.375  -3.399   2.573  1.00  0.00     0.056 A 
HETATM   28  C19 UNK     1      -5.554  -2.664   2.700  1.00  0.00     0.055 A 
HETATM   29 Cl1  UNK     1      -4.346  -5.122   2.719  1.00  0.00    -0.083 Cl
HETATM   30  C17 UNK     1      -5.527  -1.275   2.573  1.00  0.00     0.026 A 
HETATM   31 Cl2  UNK     1      -7.079  -3.416   3.011  1.00  0.00    -0.083 Cl
HETATM   32  C12 UNK     1      -4.321  -0.621   2.320  1.00  0.00     0.014 A 
ENDBRANCH   2  25
TORSDOF 5
