REMARK  6 active torsions:
REMARK  status: ('A' for Active; 'I' for Inactive)
REMARK    1  A    between atoms: C2_6  and  O1_2 
REMARK    2  A    between atoms: C3_7  and  O1_2 
REMARK    3  A    between atoms: C5_9  and  O2_3 
REMARK    4  A    between atoms: C1_5  and  C2_6 
REMARK    5  A    between atoms: C14_18  and  C4_8 
REMARK    6  A    between atoms: C15_19  and  C16_20 
ROOT
HETATM    1  N1  UNK     1      -1.374  -3.855   1.455  1.00  0.00    -0.191 NA
HETATM    2  C14 UNK     1      -2.604  -0.605   0.998  1.00  0.00     0.036 C 
HETATM    3  C15 UNK     1      -2.917  -1.787   1.552  1.00  0.00     0.055 C 
HETATM    4  C24 UNK     1      -2.070  -2.928   1.499  1.00  0.00     0.100 C 
ENDROOT
BRANCH   3   5
HETATM    5  C16 UNK     1      -4.170  -1.883   2.285  1.00  0.00    -0.015 A 
HETATM    6  C18 UNK     1      -4.210  -1.559   3.641  1.00  0.00     0.013 A 
HETATM    7  C20 UNK     1      -5.411  -1.650   4.344  1.00  0.00     0.001 A 
HETATM    8  C23 UNK     1      -6.572  -2.065   3.691  1.00  0.00     0.000 A 
HETATM    9  C21 UNK     1      -6.531  -2.388   2.335  1.00  0.00     0.001 A 
HETATM   10  C19 UNK     1      -5.330  -2.297   1.632  1.00  0.00     0.013 A 
ENDBRANCH   3   5
BRANCH   2  11
HETATM   11  C4  UNK     1      -1.420  -0.287   0.243  1.00  0.00    -0.015 A 
HETATM   12  C10 UNK     1      -1.352  -0.391  -1.157  1.00  0.00     0.024 A 
HETATM   13 Br1  UNK     1      -2.843  -0.971  -2.183  1.00  0.00    -0.050 Br
HETATM   14  C7  UNK     1      -0.178  -0.069  -1.837  1.00  0.00     0.059 A 
HETATM   15  C3  UNK     1       0.943   0.362  -1.128  1.00  0.00     0.103 A 
HETATM   16  C5  UNK     1       0.890   0.470   0.262  1.00  0.00     0.102 A 
HETATM   17  C6  UNK     1      -0.284   0.148   0.942  1.00  0.00     0.052 A 
BRANCH  15  18
HETATM   18  O1  UNK     1       2.084   0.673  -1.803  1.00  0.00    -0.344 OA
BRANCH  18  19
HETATM   19  C2  UNK     1       2.001   1.721  -2.768  1.00  0.00     0.214 C 
BRANCH  19  20
HETATM   20  C1  UNK     1       3.339   2.389  -2.882  1.00  0.00    -0.034 A 
HETATM   21  C8  UNK     1       4.267   1.919  -3.805  1.00  0.00     0.010 A 
HETATM   22  C12 UNK     1       5.511   2.541  -3.911  1.00  0.00     0.007 A 
HETATM   23  C11 UNK     1       5.820   3.628  -3.094  1.00  0.00    -0.062 A 
HETATM   24  C13 UNK     1       4.884   4.094  -2.170  1.00  0.00     0.007 A 
HETATM   25  C17 UNK     1       7.150   4.292  -3.207  1.00  0.00     0.048 C 
HETATM   26  C9  UNK     1       3.639   3.473  -2.064  1.00  0.00     0.010 A 
ENDBRANCH  19  20
ENDBRANCH  18  19
ENDBRANCH  15  18
BRANCH  16  27
HETATM   27  O2  UNK     1       1.979   0.889   0.965  1.00  0.00    -0.353 OA
HETATM   28  C22 UNK     1       2.890  -0.115   1.409  1.00  0.00     0.210 C 
ENDBRANCH  16  27
ENDBRANCH   2  11
TORSDOF 6
