REMARK  7 active torsions:
REMARK  status: ('A' for Active; 'I' for Inactive)
REMARK    1  A    between atoms: C17_25  and  O2_3 
REMARK    2  A    between atoms: C18_26  and  O3_4 
REMARK       I    between atoms: C16_24  and  N1_8 
REMARK    3  A    between atoms: C4_12  and  N1_8 
REMARK    4  A    between atoms: C1_9  and  C2_10 
REMARK    5  A    between atoms: C17_25  and  C3_11 
REMARK    6  A    between atoms: C5_13  and  C9_17 
REMARK    7  A    between atoms: C13_21  and  C16_24 
ROOT
HETATM    1  S1  UNK     1      -0.003   0.141   2.881  1.00  0.00    -0.082 SA
HETATM    2  C1  UNK     1      -2.194  -1.048   2.260  1.00  0.00    -0.000 A 
HETATM    3  C3  UNK     1      -1.586  -0.671   1.028  1.00  0.00     0.085 A 
HETATM    4  C4  UNK     1      -0.408  -0.028   1.240  1.00  0.00     0.094 A 
HETATM    5  C8  UNK     1      -1.439  -0.667   3.348  1.00  0.00     0.065 A 
ENDROOT
BRANCH   4   6
HETATM    6  N1  UNK     1       0.508   0.508   0.330  1.00  0.00    -0.316 N 
HETATM    7  C16 UNK     1       1.695   1.152   0.649  1.00  0.00     0.262 C 
HETATM    8  O4  UNK     1       2.171   1.378   1.760  1.00  0.00    -0.267 OA
HETATM    9  H8  UNK     1       0.260   0.378  -0.646  1.00  0.00     0.169 HD
BRANCH   7  10
HETATM   10  C13 UNK     1       2.418   1.591  -0.551  1.00  0.00     0.108 A 
HETATM   11  C15 UNK     1       3.752   1.638  -0.453  1.00  0.00     0.037 A 
HETATM   12  C12 UNK     1       4.556   2.062  -1.589  1.00  0.00     0.002 A 
HETATM   13  C14 UNK     1       3.915   2.416  -2.772  1.00  0.00     0.123 A 
HETATM   14  C19 UNK     1       5.950   2.124  -1.533  1.00  0.00     0.014 A 
HETATM   15  O1  UNK     1       2.511   2.365  -2.869  1.00  0.00    -0.271 OA
HETATM   16  C18 UNK     1       4.627   2.830  -3.896  1.00  0.00     0.102 A 
HETATM   17  C20 UNK     1       1.715   1.963  -1.799  1.00  0.00     0.304 A 
HETATM   18  O6  UNK     1       0.493   1.921  -1.892  1.00  0.00    -0.259 OA
HETATM   19  C22 UNK     1       6.017   2.890  -3.832  1.00  0.00     0.040 A 
HETATM   20  C23 UNK     1       6.678   2.538  -2.653  1.00  0.00     0.004 A 
BRANCH  16  21
HETATM   21  O3  UNK     1       3.988   3.174  -5.046  1.00  0.00    -0.353 OA
HETATM   22  C25 UNK     1       3.752   2.135  -5.996  1.00  0.00     0.210 C 
ENDBRANCH  16  21
ENDBRANCH   7  10
ENDBRANCH   4   6
BRANCH   3  23
HETATM   23  C17 UNK     1      -2.125  -0.925  -0.286  1.00  0.00     0.296 C 
HETATM   24  O5  UNK     1      -3.198  -1.510  -0.491  1.00  0.00    -0.259 OA
BRANCH  23  25
HETATM   25  O2  UNK     1      -1.336  -0.456  -1.313  1.00  0.00    -0.322 OA
HETATM   26  C24 UNK     1      -1.812  -0.675  -2.646  1.00  0.00     0.213 C 
ENDBRANCH  23  25
ENDBRANCH   3  23
BRANCH   2  27
HETATM   27  C2  UNK     1      -3.441  -1.742   2.451  1.00  0.00    -0.024 A 
HETATM   28  C6  UNK     1      -3.458  -3.134   2.507  1.00  0.00     0.013 A 
HETATM   29  C10 UNK     1      -4.666  -3.807   2.692  1.00  0.00     0.008 A 
HETATM   30  C5  UNK     1      -5.853  -3.086   2.819  1.00  0.00    -0.059 A 
HETATM   31  C11 UNK     1      -5.833  -1.693   2.761  1.00  0.00     0.008 A 
HETATM   32  C7  UNK     1      -4.625  -1.020   2.577  1.00  0.00     0.013 A 
BRANCH  30  33
HETATM   33  C9  UNK     1      -7.145  -3.806   3.015  1.00  0.00     0.034 C 
HETATM   34  C21 UNK     1      -7.830  -4.140   1.693  1.00  0.00     0.010 C 
ENDBRANCH  30  33
ENDBRANCH   2  27
TORSDOF 7
