REMARK  6 active torsions:
REMARK  status: ('A' for Active; 'I' for Inactive)
REMARK    1  A    between atoms: C13_17  and  O2_2 
REMARK    2  A    between atoms: C15_19  and  O2_2 
REMARK    3  A    between atoms: C1_5  and  C2_6 
REMARK    4  A    between atoms: C1_5  and  C3_7 
REMARK    5  A    between atoms: C3_7  and  C6_10 
REMARK    6  A    between atoms: C15_19  and  C16_20 
ROOT
HETATM    1  O1  UNK     1       0.517  -0.631   1.361  1.00  0.00    -0.274 OA
HETATM    2  O3  UNK     1      -0.751  -1.487   3.037  1.00  0.00    -0.259 OA
HETATM    3  C2  UNK     1      -1.771  -1.392   0.885  1.00  0.00     0.024 A 
HETATM    4  C4  UNK     1      -1.659  -1.021  -0.408  1.00  0.00    -0.037 A 
HETATM    5  C5  UNK     1      -0.385  -0.450  -0.892  1.00  0.00     0.005 A 
HETATM    6  C7  UNK     1       0.659  -0.273   0.011  1.00  0.00     0.093 A 
HETATM    7  C8  UNK     1      -0.652  -1.187   1.851  1.00  0.00     0.295 A 
HETATM    8  C9  UNK     1      -2.778  -1.139  -1.412  1.00  0.00     0.050 C 
HETATM    9  C10 UNK     1      -0.148  -0.077  -2.224  1.00  0.00     0.017 A 
HETATM   10  C11 UNK     1       1.896   0.260  -0.363  1.00  0.00     0.075 A 
HETATM   11  C13 UNK     1       2.106   0.628  -1.687  1.00  0.00     0.082 A 
HETATM   12  C14 UNK     1       1.085   0.458  -2.617  1.00  0.00     0.038 A 
ENDROOT
BRANCH  11  13
HETATM   13  O2  UNK     1       3.302   1.148  -2.071  1.00  0.00    -0.279 OA
BRANCH  13  14
HETATM   14  C15 UNK     1       3.381   2.551  -1.978  1.00  0.00     0.263 C 
HETATM   15  O4  UNK     1       2.481   3.284  -1.590  1.00  0.00    -0.265 OA
BRANCH  14  16
HETATM   16  C16 UNK     1       4.749   3.009  -2.430  1.00  0.00     0.107 C 
HETATM   17  C17 UNK     1       4.907   4.516  -2.333  1.00  0.00     0.015 C 
ENDBRANCH  14  16
ENDBRANCH  13  14
ENDBRANCH  11  13
BRANCH   3  18
HETATM   18  C1  UNK     1      -2.987  -2.044   1.493  1.00  0.00     0.045 C 
BRANCH  18  19
HETATM   19  C3  UNK     1      -3.958  -1.005   2.038  1.00  0.00     0.004 C 
BRANCH  19  20
HETATM   20  C6  UNK     1      -5.199  -1.679   2.623  1.00  0.00    -0.004 C 
HETATM   21  C12 UNK     1      -6.198  -0.656   3.139  1.00  0.00     0.005 C 
ENDBRANCH  19  20
ENDBRANCH  18  19
ENDBRANCH   3  18
TORSDOF 6
