REMARK  6 active torsions:
REMARK  status: ('A' for Active; 'I' for Inactive)
REMARK    1  A    between atoms: C13_17  and  O2_2 
REMARK    2  A    between atoms: C15_19  and  O2_2 
REMARK    3  A    between atoms: C1_5  and  C2_6 
REMARK    4  A    between atoms: C2_6  and  C3_7 
REMARK    5  A    between atoms: C15_19  and  C16_20 
REMARK    6  A    between atoms: C16_20  and  C17_21 
ROOT
HETATM    1  O1  UNK     1      -1.781  -1.951  -0.168  1.00  0.00    -0.274 OA
HETATM    2  O3  UNK     1      -3.659  -3.098  -0.725  1.00  0.00    -0.259 OA
HETATM    3  C3  UNK     1      -3.600  -2.173   1.470  1.00  0.00     0.025 A 
HETATM    4  C4  UNK     1      -2.892  -1.491   2.395  1.00  0.00    -0.037 A 
HETATM    5  C5  UNK     1      -1.559  -0.959   2.042  1.00  0.00     0.005 A 
HETATM    6  C8  UNK     1      -1.049  -1.210   0.772  1.00  0.00     0.092 A 
HETATM    7  C9  UNK     1      -3.042  -2.450   0.114  1.00  0.00     0.295 A 
HETATM    8  C10 UNK     1      -3.376  -1.241   3.802  1.00  0.00     0.050 C 
HETATM    9  C11 UNK     1      -0.763  -0.198   2.912  1.00  0.00     0.017 A 
HETATM   10  C12 UNK     1       0.202  -0.745   0.358  1.00  0.00     0.075 A 
HETATM   11  C13 UNK     1       0.975   0.002   1.238  1.00  0.00     0.072 A 
HETATM   12  C14 UNK     1       0.492   0.277   2.514  1.00  0.00     0.038 A 
ENDROOT
BRANCH  11  13
HETATM   13  O2  UNK     1       2.195   0.465   0.855  1.00  0.00    -0.344 OA
BRANCH  13  14
HETATM   14  C15 UNK     1       2.376   0.750  -0.532  1.00  0.00     0.259 C 
BRANCH  14  15
HETATM   15  C16 UNK     1       3.395   1.859  -0.706  1.00  0.00     0.183 C 
HETATM   16  O4  UNK     1       3.919   2.411   0.258  1.00  0.00    -0.290 OA
BRANCH  15  17
HETATM   17  C17 UNK     1       3.761   2.286  -2.088  1.00  0.00     0.012 A 
HETATM   18  C18 UNK     1       3.161   1.656  -3.155  1.00  0.00     0.016 A 
HETATM   19  C21 UNK     1       3.506   2.055  -4.447  1.00  0.00     0.007 A 
HETATM   20  C20 UNK     1       4.441   3.072  -4.637  1.00  0.00    -0.062 A 
HETATM   21  C22 UNK     1       5.031   3.691  -3.535  1.00  0.00     0.007 A 
HETATM   22  C23 UNK     1       4.808   3.500  -6.018  1.00  0.00     0.048 C 
HETATM   23  C19 UNK     1       4.687   3.293  -2.243  1.00  0.00     0.016 A 
ENDBRANCH  15  17
ENDBRANCH  14  15
ENDBRANCH  13  14
ENDBRANCH  11  13
BRANCH   3  24
HETATM   24  C2  UNK     1      -4.993  -2.713   1.675  1.00  0.00     0.049 C 
BRANCH  24  25
HETATM   25  C1  UNK     1      -6.080  -1.710   1.275  1.00  0.00    -0.018 C 
HETATM   26  C6  UNK     1      -5.967  -1.285  -0.192  1.00  0.00     0.010 C 
HETATM   27  C7  UNK     1      -5.992  -0.478   2.178  1.00  0.00     0.010 C 
ENDBRANCH  24  25
ENDBRANCH   3  24
TORSDOF 6
