REMARK  4 active torsions:
REMARK  status: ('A' for Active; 'I' for Inactive)
REMARK    1  A    between atoms: C7_16  and  O2_3 
REMARK    2  A    between atoms: C4_13  and  N1_8 
REMARK       I    between atoms: C6_15  and  N1_8 
REMARK    3  A    between atoms: C12_21  and  N2_9 
REMARK    4  A    between atoms: C2_11  and  C6_15 
ROOT
HETATM    1  O3  UNK     1       0.123   0.610   1.553  1.00  0.00    -0.267 OA
HETATM    2  N1  UNK     1      -1.077  -0.455  -0.171  1.00  0.00    -0.320 N 
HETATM    3  C6  UNK     1      -0.074   0.338   0.370  1.00  0.00     0.262 C 
HETATM    4  H2  UNK     1      -1.090  -0.603  -1.177  1.00  0.00     0.169 HD
ENDROOT
BRANCH   3   5
HETATM    5  C2  UNK     1       0.819   0.881  -0.661  1.00  0.00     0.108 A 
HETATM    6  C10 UNK     1       0.349   1.167  -2.035  1.00  0.00     0.304 A 
HETATM    7  O1  UNK     1       1.290   1.679  -2.924  1.00  0.00    -0.274 OA
HETATM    8  O4  UNK     1      -0.811   0.966  -2.379  1.00  0.00    -0.259 OA
HETATM    9  C3  UNK     1       2.625   1.915  -2.539  1.00  0.00     0.089 A 
HETATM   10  C1  UNK     1       3.045   1.638  -1.242  1.00  0.00     0.000 A 
HETATM   11  C11 UNK     1       3.494   2.430  -3.499  1.00  0.00     0.039 A 
HETATM   12  C5  UNK     1       2.085   1.102  -0.290  1.00  0.00     0.037 A 
HETATM   13  C8  UNK     1       4.377   1.885  -0.898  1.00  0.00     0.033 A 
HETATM   14  C15 UNK     1       5.261   2.401  -1.850  1.00  0.00     0.011 A 
HETATM   15 Br1  UNK     1       7.062   2.733  -1.381  1.00  0.00    -0.051 Br
HETATM   16  C16 UNK     1       4.820   2.673  -3.148  1.00  0.00     0.022 A 
ENDBRANCH   3   5
BRANCH   2  17
HETATM   17  C4  UNK     1      -2.108  -1.136   0.522  1.00  0.00     0.071 A 
HETATM   18  C9  UNK     1      -2.164  -1.029   1.902  1.00  0.00     0.068 A 
HETATM   19  C12 UNK     1      -3.173  -1.694   2.598  1.00  0.00     0.105 A 
HETATM   20  C14 UNK     1      -4.113  -2.456   1.905  1.00  0.00     0.039 A 
HETATM   21  C13 UNK     1      -4.043  -2.554   0.515  1.00  0.00     0.041 A 
HETATM   22  C7  UNK     1      -3.033  -1.889  -0.181  1.00  0.00     0.095 A 
BRANCH  19  23
HETATM   23  N2  UNK     1      -3.246  -1.594   4.013  1.00  0.00    -0.116 N 
HETATM   24  O5  UNK     1      -4.162  -2.199   4.619  1.00  0.00    -0.532 OA
HETATM   25  O6  UNK     1      -2.391  -0.903   4.618  1.00  0.00    -0.532 OA
ENDBRANCH  19  23
BRANCH  22  26
HETATM   26  O2  UNK     1      -2.983  -1.998  -1.539  1.00  0.00    -0.354 OA
HETATM   27  C17 UNK     1      -3.708  -1.028  -2.293  1.00  0.00     0.210 C 
ENDBRANCH  22  26
ENDBRANCH   2  17
TORSDOF 4
