REMARK  5 active torsions:
REMARK  status: ('A' for Active; 'I' for Inactive)
REMARK    1  A    between atoms: C7_10  and  O1_1 
REMARK    2  A    between atoms: C8_11  and  O2_2 
REMARK    3  A    between atoms: C14_17  and  O3_3 
REMARK    4  A    between atoms: C1_4  and  C3_6 
REMARK    5  A    between atoms: C2_5  and  C4_7 
ROOT
HETATM    1  C1  UNK     1      -1.532  -0.661   0.368  1.00  0.00    -0.031 A 
HETATM    2  C5  UNK     1      -1.276  -0.898   1.709  1.00  0.00     0.048 A 
HETATM    3  C6  UNK     1      -2.768  -0.942  -0.191  1.00  0.00     0.048 A 
HETATM    4  C7  UNK     1      -3.776  -1.475   0.613  1.00  0.00     0.069 A 
HETATM    5  C8  UNK     1      -2.283  -1.430   2.513  1.00  0.00     0.069 A 
HETATM    6  C11 UNK     1      -3.533  -1.719   1.965  1.00  0.00     0.073 A 
ENDROOT
BRANCH   1   7
HETATM    7  C3  UNK     1      -0.467  -0.099  -0.482  1.00  0.00     0.012 C 
HETATM    8  C4  UNK     1       0.622   0.567  -0.030  1.00  0.00     0.012 C 
BRANCH   8   9
HETATM    9  C2  UNK     1       1.683   1.105  -0.867  1.00  0.00    -0.036 A 
HETATM   10  C10 UNK     1       2.520   2.106  -0.374  1.00  0.00     0.014 A 
HETATM   11  C13 UNK     1       3.538   2.622  -1.176  1.00  0.00     0.037 A 
HETATM   12  C14 UNK     1       3.719   2.136  -2.471  1.00  0.00     0.065 A 
HETATM   13  C12 UNK     1       2.883   1.134  -2.963  1.00  0.00     0.037 A 
HETATM   14  C9  UNK     1       1.865   0.619  -2.161  1.00  0.00     0.014 A 
BRANCH  12  15
HETATM   15  O3  UNK     1       4.713   2.638  -3.253  1.00  0.00    -0.361 OA
HETATM   16  H12 UNK     1       4.693   2.188  -4.115  1.00  0.00     0.217 HD
ENDBRANCH  12  15
ENDBRANCH   8   9
ENDBRANCH   1   7
BRANCH   5  17
HETATM   17  O2  UNK     1      -2.047  -1.670   3.832  1.00  0.00    -0.361 OA
HETATM   18  H11 UNK     1      -2.852  -2.037   4.235  1.00  0.00     0.217 HD
ENDBRANCH   5  17
BRANCH   4  19
HETATM   19  O1  UNK     1      -4.996  -1.756   0.079  1.00  0.00    -0.361 OA
HETATM   20  H10 UNK     1      -4.987  -1.526  -0.866  1.00  0.00     0.217 HD
ENDBRANCH   4  19
TORSDOF 5
