REMARK  5 active torsions:
REMARK  status: ('A' for Active; 'I' for Inactive)
REMARK    1  A    between atoms: C13_18  and  O2_2 
REMARK    2  A    between atoms: C6_11  and  O2_2 
REMARK    3  A    between atoms: C3_8  and  N1_5 
REMARK       I    between atoms: C7_12  and  N1_5 
REMARK    4  A    between atoms: C2_7  and  C7_12 
REMARK    5  A    between atoms: C3_8  and  C6_11 
ROOT
HETATM    1  O3  UNK     1       1.705  -0.637   1.814  1.00  0.00    -0.267 OA
HETATM    2  N1  UNK     1      -0.125   0.807   1.824  1.00  0.00    -0.355 N 
HETATM    3  C7  UNK     1       1.015   0.235   1.289  1.00  0.00     0.257 C 
HETATM    4  H6  UNK     1      -0.617   1.537   1.318  1.00  0.00     0.162 HD
ENDROOT
BRANCH   3   5
HETATM    5  C2  UNK     1       1.360   0.775  -0.031  1.00  0.00     0.108 A 
HETATM    6  C5  UNK     1       2.661   0.789  -0.343  1.00  0.00     0.037 A 
HETATM    7  C1  UNK     1       3.101   1.306  -1.630  1.00  0.00    -0.001 A 
HETATM    8  C4  UNK     1       2.149   1.784  -2.524  1.00  0.00     0.089 A 
HETATM    9  C8  UNK     1       4.448   1.339  -1.998  1.00  0.00     0.014 A 
HETATM   10  C10 UNK     1       2.505   2.293  -3.772  1.00  0.00     0.038 A 
HETATM   11  O1  UNK     1       0.781   1.768  -2.190  1.00  0.00    -0.274 OA
HETATM   12  C12 UNK     1       3.850   2.323  -4.131  1.00  0.00     0.003 A 
HETATM   13  C11 UNK     1       4.820   1.847  -3.246  1.00  0.00     0.001 A 
HETATM   14  C9  UNK     1       0.329   1.279  -0.967  1.00  0.00     0.304 A 
HETATM   15  O4  UNK     1      -0.864   1.269  -0.684  1.00  0.00    -0.259 OA
ENDBRANCH   3   5
BRANCH   2  16
HETATM   16  C3  UNK     1      -0.663   0.435   3.113  1.00  0.00     0.149 C 
BRANCH  16  17
HETATM   17  C6  UNK     1      -1.659  -0.704   2.993  1.00  0.00     0.195 C 
BRANCH  17  18
HETATM   18  O2  UNK     1      -2.753  -0.292   2.183  1.00  0.00    -0.350 OA
BRANCH  18  19
HETATM   19  C13 UNK     1      -3.389  -1.268   1.462  1.00  0.00     0.068 A 
HETATM   20  C14 UNK     1      -3.431  -2.569   1.951  1.00  0.00     0.037 A 
HETATM   21  C16 UNK     1      -4.078  -3.562   1.217  1.00  0.00     0.003 A 
HETATM   22  C18 UNK     1      -4.679  -3.249  -0.002  1.00  0.00     0.000 A 
HETATM   23  C17 UNK     1      -4.633  -1.941  -0.486  1.00  0.00     0.003 A 
HETATM   24  C15 UNK     1      -3.986  -0.948   0.248  1.00  0.00     0.037 A 
ENDBRANCH  18  19
ENDBRANCH  17  18
ENDBRANCH  16  17
ENDBRANCH   2  16
TORSDOF 5
