REMARK  8 active torsions:
REMARK  status: ('A' for Active; 'I' for Inactive)
REMARK    1  A    between atoms: C1_11  and  O1_1 
REMARK    2  A    between atoms: C15_25  and  O1_1 
REMARK    3  A    between atoms: C13_23  and  O3_3 
REMARK    4  A    between atoms: C17_27  and  O3_3 
REMARK    5  A    between atoms: C10_20  and  N1_9 
REMARK       I    between atoms: C15_25  and  N1_9 
REMARK    6  A    between atoms: C24_34  and  N2_10 
REMARK    7  A    between atoms: C11_21  and  C5_15 
REMARK    8  A    between atoms: C10_20  and  C17_27 
ROOT
HETATM    1  O2  UNK     1      -1.410   1.150   0.600  1.00  0.00    -0.313 OA
HETATM    2  O4  UNK     1      -1.788  -2.900   0.639  1.00  0.00    -0.286 OA
HETATM    3  C5  UNK     1      -2.559  -0.801   1.451  1.00  0.00     0.054 A 
HETATM    4  C6  UNK     1      -0.666  -1.012  -0.199  1.00  0.00     0.049 A 
HETATM    5  C7  UNK     1      -0.586   0.376  -0.170  1.00  0.00     0.092 A 
HETATM    6  C8  UNK     1      -1.678  -1.680   0.630  1.00  0.00     0.198 A 
HETATM    7  C9  UNK     1      -2.375   0.536   1.388  1.00  0.00     0.065 A 
HETATM    8  C12 UNK     1       0.365   1.036  -0.949  1.00  0.00     0.075 A 
HETATM    9  C13 UNK     1       1.235   0.301  -1.755  1.00  0.00     0.082 A 
HETATM   10  C14 UNK     1       0.203  -1.753  -1.005  1.00  0.00     0.021 A 
HETATM   11  C16 UNK     1       1.154  -1.091  -1.783  1.00  0.00     0.038 A 
HETATM   12  C19 UNK     1      -3.180   1.547   2.156  1.00  0.00     0.077 C 
ENDROOT
BRANCH   9  13
HETATM   13  O3  UNK     1       2.164   0.944  -2.515  1.00  0.00    -0.277 OA
BRANCH  13  14
HETATM   14  C17 UNK     1       1.728   1.287  -3.804  1.00  0.00     0.286 C 
HETATM   15  O6  UNK     1       0.607   1.051  -4.244  1.00  0.00    -0.263 OA
BRANCH  14  16
HETATM   16  C10 UNK     1       2.798   2.003  -4.618  1.00  0.00     0.183 C 
HETATM   17  C18 UNK     1       3.122   1.210  -5.875  1.00  0.00     0.043 C 
BRANCH  16  18
HETATM   18  N1  UNK     1       3.994   2.235  -3.851  1.00  0.00    -0.323 N 
HETATM   19  C15 UNK     1       4.192   3.343  -3.049  1.00  0.00     0.362 C 
HETATM   20  O5  UNK     1       3.392   4.258  -2.887  1.00  0.00    -0.238 OA
HETATM   21  H13 UNK     1       4.718   1.522  -3.853  1.00  0.00     0.165 HD
BRANCH  19  22
HETATM   22  O1  UNK     1       5.421   3.273  -2.456  1.00  0.00    -0.294 OA
BRANCH  22  23
HETATM   23  C1  UNK     1       5.760   4.363  -1.591  1.00  0.00     0.061 C 
HETATM   24  C2  UNK     1       4.731   4.428  -0.464  1.00  0.00     0.046 C 
HETATM   25  C3  UNK     1       7.154   4.089  -1.031  1.00  0.00     0.046 C 
HETATM   26  C4  UNK     1       5.754   5.653  -2.410  1.00  0.00     0.046 C 
ENDBRANCH  22  23
ENDBRANCH  19  22
ENDBRANCH  16  18
ENDBRANCH  14  16
ENDBRANCH  13  14
ENDBRANCH   9  13
BRANCH   3  27
HETATM   27  C11 UNK     1      -3.584  -1.404   2.293  1.00  0.00    -0.019 A 
HETATM   28  C20 UNK     1      -3.285  -1.756   3.608  1.00  0.00     0.015 A 
HETATM   29  C22 UNK     1      -4.268  -2.331   4.414  1.00  0.00     0.037 A 
HETATM   30  C24 UNK     1      -5.547  -2.553   3.903  1.00  0.00     0.102 A 
HETATM   31  C23 UNK     1      -5.843  -2.200   2.587  1.00  0.00     0.037 A 
HETATM   32  C21 UNK     1      -4.861  -1.625   1.781  1.00  0.00     0.015 A 
BRANCH  30  33
HETATM   33  N2  UNK     1      -6.548  -3.139   4.723  1.00  0.00    -0.116 N 
HETATM   34  O7  UNK     1      -6.261  -3.450   5.904  1.00  0.00    -0.532 OA
HETATM   35  O8  UNK     1      -7.692  -3.329   4.244  1.00  0.00    -0.532 OA
ENDBRANCH  30  33
ENDBRANCH   3  27
TORSDOF 8
