REMARK  5 active torsions:
REMARK  status: ('A' for Active; 'I' for Inactive)
REMARK       I    between atoms: C4_10  and  N1_5 
REMARK    1  A    between atoms: C5_11  and  N1_5 
REMARK    2  A    between atoms: C11_17  and  N2_6 
REMARK    3  A    between atoms: C1_7  and  C2_8 
REMARK    4  A    between atoms: C1_7  and  C4_10 
REMARK    5  A    between atoms: C3_9  and  C6_12 
ROOT
HETATM    1  C1  UNK     1       1.497   1.205  -0.954  1.00  0.00     0.043 C 
HETATM    2  C3  UNK     1       2.444   1.228   0.021  1.00  0.00     0.029 C 
ENDROOT
BRANCH   1   3
HETATM    3  C2  UNK     1       1.815   1.511  -2.363  1.00  0.00    -0.021 A 
HETATM    4  C7  UNK     1       2.195   0.482  -3.208  1.00  0.00     0.012 A 
HETATM    5  C14 UNK     1       2.496   0.771  -4.539  1.00  0.00     0.001 A 
HETATM    6  C18 UNK     1       2.412   2.083  -5.004  1.00  0.00     0.000 A 
HETATM    7  C15 UNK     1       2.027   3.107  -4.138  1.00  0.00     0.001 A 
HETATM    8  C8  UNK     1       1.727   2.818  -2.807  1.00  0.00     0.012 A 
ENDBRANCH   1   3
BRANCH   1   9
HETATM    9  C4  UNK     1       0.101   0.815  -0.524  1.00  0.00     0.257 C 
HETATM   10  O1  UNK     1      -0.707   1.675  -0.186  1.00  0.00    -0.267 OA
HETATM   11  N1  UNK     1      -0.118  -0.556  -0.573  1.00  0.00    -0.321 N 
HETATM   12  H2  UNK     1       0.652  -1.147  -0.880  1.00  0.00     0.169 HD
BRANCH  11  13
HETATM   13  C5  UNK     1      -1.307  -1.251  -0.239  1.00  0.00     0.059 A 
HETATM   14  C10 UNK     1      -1.373  -2.632  -0.340  1.00  0.00     0.060 A 
HETATM   15 Cl1  UNK     1      -0.031  -3.581  -0.871  1.00  0.00    -0.082 Cl
HETATM   16  C16 UNK     1      -2.558  -3.286  -0.004  1.00  0.00     0.028 A 
HETATM   17  C17 UNK     1      -3.662  -2.550   0.428  1.00  0.00     0.038 A 
HETATM   18  C11 UNK     1      -3.580  -1.162   0.525  1.00  0.00     0.105 A 
HETATM   19  C9  UNK     1      -2.395  -0.507   0.189  1.00  0.00     0.067 A 
BRANCH  18  20
HETATM   20  N2  UNK     1      -4.704  -0.414   0.965  1.00  0.00    -0.116 N 
HETATM   21  O2  UNK     1      -5.761  -1.022   1.262  1.00  0.00    -0.532 OA
HETATM   22  O3  UNK     1      -4.610   0.835   1.046  1.00  0.00    -0.532 OA
ENDBRANCH  18  20
ENDBRANCH  11  13
ENDBRANCH   1   9
BRANCH   2  23
HETATM   23  C6  UNK     1       2.242   0.945   1.433  1.00  0.00    -0.035 A 
HETATM   24  C12 UNK     1       1.928   1.981   2.314  1.00  0.00     0.011 A 
HETATM   25  C19 UNK     1       1.734   1.710   3.668  1.00  0.00     0.001 A 
HETATM   26  C21 UNK     1       1.855   0.404   4.142  1.00  0.00     0.000 A 
HETATM   27  C20 UNK     1       2.169  -0.632   3.262  1.00  0.00     0.001 A 
HETATM   28  C13 UNK     1       2.363  -0.361   1.907  1.00  0.00     0.011 A 
ENDBRANCH   2  23
TORSDOF 5
