REMARK  4 active torsions:
REMARK  status: ('A' for Active; 'I' for Inactive)
REMARK    1  A    between atoms: C11_17  and  O2_2 
REMARK    2  A    between atoms: C12_18  and  O3_3 
REMARK    3  A    between atoms: C5_11  and  N1_6 
REMARK       I    between atoms: C6_12  and  N1_6 
REMARK    4  A    between atoms: C2_8  and  C6_12 
ROOT
HETATM    1  O4  UNK     1       0.583   0.607   1.612  1.00  0.00    -0.267 OA
HETATM    2  N1  UNK     1      -0.854  -0.229  -0.056  1.00  0.00    -0.323 N 
HETATM    3  C6  UNK     1       0.262   0.434   0.438  1.00  0.00     0.262 C 
HETATM    4  H2  UNK     1      -0.963  -0.304  -1.064  1.00  0.00     0.169 HD
ENDROOT
BRANCH   3   5
HETATM    5  C2  UNK     1       1.111   0.963  -0.636  1.00  0.00     0.108 A 
HETATM    6  C10 UNK     1       0.557   1.382  -1.942  1.00  0.00     0.304 A 
HETATM    7  O1  UNK     1       1.464   1.868  -2.880  1.00  0.00    -0.274 OA
HETATM    8  O5  UNK     1      -0.642   1.309  -2.191  1.00  0.00    -0.259 OA
HETATM    9  C3  UNK     1       2.842   1.957  -2.604  1.00  0.00     0.089 A 
HETATM   10  C1  UNK     1       3.343   1.557  -1.369  1.00  0.00    -0.001 A 
HETATM   11  C13 UNK     1       3.672   2.456  -3.605  1.00  0.00     0.038 A 
HETATM   12  C4  UNK     1       2.420   1.045  -0.368  1.00  0.00     0.037 A 
HETATM   13  C7  UNK     1       4.716   1.660  -1.133  1.00  0.00     0.014 A 
HETATM   14  C15 UNK     1       5.561   2.159  -2.128  1.00  0.00     0.001 A 
HETATM   15  C16 UNK     1       5.040   2.557  -3.362  1.00  0.00     0.003 A 
ENDBRANCH   3   5
BRANCH   2  16
HETATM   16  C5  UNK     1      -1.881  -0.861   0.686  1.00  0.00     0.040 A 
HETATM   17  C8  UNK     1      -1.822  -0.849   2.069  1.00  0.00     0.066 A 
HETATM   18  C12 UNK     1      -2.835  -1.471   2.800  1.00  0.00     0.073 A 
HETATM   19  C14 UNK     1      -3.891  -2.095   2.136  1.00  0.00     0.073 A 
HETATM   20  C11 UNK     1      -3.935  -2.097   0.742  1.00  0.00     0.073 A 
HETATM   21  C9  UNK     1      -2.922  -1.476   0.012  1.00  0.00     0.066 A 
BRANCH  18  22
HETATM   22  O3  UNK     1      -2.792  -1.469   4.161  1.00  0.00    -0.356 OA
HETATM   23  C18 UNK     1      -1.684  -0.813   4.775  1.00  0.00     0.210 C 
ENDBRANCH  18  22
BRANCH  20  24
HETATM   24  O2  UNK     1      -4.966  -2.707   0.095  1.00  0.00    -0.356 OA
HETATM   25  C17 UNK     1      -4.948  -2.673  -1.331  1.00  0.00     0.210 C 
ENDBRANCH  20  24
ENDBRANCH   2  16
TORSDOF 4
