REMARK  5 active torsions:
REMARK  status: ('A' for Active; 'I' for Inactive)
REMARK    1  A    between atoms: C5_14  and  N1_6 
REMARK    2  A    between atoms: C6_15  and  N2_7 
REMARK    3  A    between atoms: C6_15  and  N3_8 
REMARK    4  A    between atoms: C9_18  and  N3_8 
REMARK    5  A    between atoms: C12_21  and  N4_9 
ROOT
HETATM    1  S1  UNK     1      -3.154  -2.067  -3.906  1.00  0.00    -0.041 SA
HETATM    2  C6  UNK     1      -2.763  -1.275  -2.479  1.00  0.00     0.174 C 
ENDROOT
BRANCH   2   3
HETATM    3  N2  UNK     1      -1.575  -0.630  -2.366  1.00  0.00    -0.355 N 
HETATM    4  C3  UNK     1      -1.446   0.575  -1.561  1.00  0.00     0.145 C 
HETATM    5  C1  UNK     1      -0.321   1.480  -2.060  1.00  0.00     0.143 C 
HETATM    6  N1  UNK     1       0.946   0.742  -2.130  1.00  0.00    -0.378 N 
HETATM    7  C2  UNK     1       0.897  -0.712  -2.324  1.00  0.00     0.143 C 
HETATM    8  C4  UNK     1      -0.385  -1.119  -3.047  1.00  0.00     0.145 C 
BRANCH   6   9
HETATM    9  C5  UNK     1       2.165   1.406  -2.019  1.00  0.00     0.030 A 
HETATM   10  C7  UNK     1       2.317   2.746  -2.450  1.00  0.00     0.032 A 
HETATM   11  C10 UNK     1       3.538   3.411  -2.337  1.00  0.00     0.038 A 
HETATM   12  C12 UNK     1       4.641   2.756  -1.790  1.00  0.00     0.103 A 
HETATM   13  C11 UNK     1       4.524   1.436  -1.355  1.00  0.00     0.038 A 
HETATM   14  C8  UNK     1       3.303   0.770  -1.468  1.00  0.00     0.032 A 
BRANCH  12  15
HETATM   15  N4  UNK     1       5.884   3.433  -1.676  1.00  0.00    -0.116 N 
HETATM   16  O2  UNK     1       5.969   4.620  -2.074  1.00  0.00    -0.532 OA
HETATM   17  O3  UNK     1       6.864   2.826  -1.181  1.00  0.00    -0.532 OA
ENDBRANCH  12  15
ENDBRANCH   6   9
ENDBRANCH   2   3
BRANCH   2  18
HETATM   18  N3  UNK     1      -3.665  -1.222  -1.430  1.00  0.00    -0.333 N 
HETATM   19  H11 UNK     1      -4.640  -1.278  -1.716  1.00  0.00     0.168 HD
BRANCH  18  20
HETATM   20  C9  UNK     1      -3.483  -1.125  -0.051  1.00  0.00     0.036 A 
HETATM   21  C13 UNK     1      -2.335  -1.643   0.541  1.00  0.00     0.067 A 
HETATM   22  C15 UNK     1      -2.173  -1.534   1.923  1.00  0.00     0.092 A 
HETATM   23  C14 UNK     1      -3.126  -0.922   2.740  1.00  0.00     0.004 A 
HETATM   24  O1  UNK     1      -0.990  -2.076   2.464  1.00  0.00    -0.275 OA
HETATM   25  C17 UNK     1      -4.275  -0.407   2.124  1.00  0.00     0.017 A 
HETATM   26  C18 UNK     1      -2.873  -0.852   4.185  1.00  0.00    -0.043 A 
HETATM   27  C16 UNK     1      -4.451  -0.509   0.740  1.00  0.00     0.030 A 
HETATM   28  C19 UNK     1      -1.739  -1.376   4.672  1.00  0.00     0.090 A 
HETATM   29  C20 UNK     1      -3.877  -0.200   5.090  1.00  0.00     0.049 C 
HETATM   30  C21 UNK     1      -0.724  -2.024   3.824  1.00  0.00     0.288 A 
HETATM   31  O4  UNK     1       0.301  -2.493   4.305  1.00  0.00    -0.260 OA
ENDBRANCH  18  20
ENDBRANCH   2  18
TORSDOF 5
