REMARK  6 active torsions:
REMARK  status: ('A' for Active; 'I' for Inactive)
REMARK    1  A    between atoms: C13_21  and  O2_4 
REMARK       I    between atoms: C14_22  and  N1_8 
REMARK    2  A    between atoms: C7_15  and  N1_8 
REMARK    3  A    between atoms: C1_9  and  C2_10 
REMARK    4  A    between atoms: C1_9  and  C3_11 
REMARK    5  A    between atoms: C13_21  and  C6_14 
REMARK    6  A    between atoms: C12_20  and  C14_22 
ROOT
HETATM    1  S1  UNK     1       1.324  -0.236  -1.792  1.00  0.00    -0.075 SA
HETATM    2  C2  UNK     1       2.785   0.648  -1.902  1.00  0.00    -0.006 A 
HETATM    3  C5  UNK     1       3.103   1.272  -0.716  1.00  0.00     0.035 A 
HETATM    4  C6  UNK     1       2.134   1.021   0.298  1.00  0.00     0.074 A 
HETATM    5  C7  UNK     1       1.136   0.225  -0.166  1.00  0.00     0.093 A 
ENDROOT
BRANCH   5   6
HETATM    6  N1  UNK     1      -0.005  -0.267   0.476  1.00  0.00    -0.316 N 
HETATM    7  C14 UNK     1      -0.975  -1.082  -0.090  1.00  0.00     0.262 C 
HETATM    8  O3  UNK     1      -1.031  -1.526  -1.235  1.00  0.00    -0.267 OA
HETATM    9  H8  UNK     1      -0.106   0.039   1.440  1.00  0.00     0.169 HD
BRANCH   7  10
HETATM   10  C12 UNK     1      -2.038  -1.412   0.867  1.00  0.00     0.108 A 
HETATM   11  C17 UNK     1      -3.255  -1.623   0.351  1.00  0.00     0.037 A 
HETATM   12  C15 UNK     1      -4.373  -1.956   1.219  1.00  0.00     0.000 A 
HETATM   13  C18 UNK     1      -4.155  -2.050   2.590  1.00  0.00     0.089 A 
HETATM   14  C20 UNK     1      -5.659  -2.184   0.724  1.00  0.00     0.033 A 
HETATM   15  O1  UNK     1      -2.872  -1.827   3.128  1.00  0.00    -0.274 OA
HETATM   16  C21 UNK     1      -5.183  -2.364   3.477  1.00  0.00     0.039 A 
HETATM   17  C19 UNK     1      -1.783  -1.507   2.322  1.00  0.00     0.304 A 
HETATM   18  O5  UNK     1      -0.670  -1.314   2.799  1.00  0.00    -0.259 OA
HETATM   19  C23 UNK     1      -6.463  -2.590   2.974  1.00  0.00     0.022 A 
HETATM   20  C22 UNK     1      -6.700  -2.500   1.601  1.00  0.00     0.011 A 
HETATM   21 Br1  UNK     1      -8.439  -2.809   0.926  1.00  0.00    -0.051 Br
ENDBRANCH   7  10
ENDBRANCH   5   6
BRANCH   4  22
HETATM   22  C13 UNK     1       2.192   1.536   1.641  1.00  0.00     0.295 C 
HETATM   23  O4  UNK     1       1.337   1.305   2.509  1.00  0.00    -0.259 OA
BRANCH  22  24
HETATM   24  O2  UNK     1       3.295   2.324   1.892  1.00  0.00    -0.322 OA
HETATM   25  C24 UNK     1       3.415   2.870   3.210  1.00  0.00     0.213 C 
ENDBRANCH  22  24
ENDBRANCH   4  22
BRANCH   2  26
HETATM   26  C1  UNK     1       3.532   0.663  -3.179  1.00  0.00     0.054 C 
HETATM   27  C4  UNK     1       4.902  -0.056  -3.044  1.00  0.00     0.020 C 
BRANCH  26  28
HETATM   28  C3  UNK     1       3.631   2.061  -3.822  1.00  0.00    -0.050 A 
HETATM   29  C8  UNK     1       2.562   2.517  -4.548  1.00  0.00     0.008 A 
HETATM   30  C10 UNK     1       2.651   3.781  -5.130  1.00  0.00     0.001 A 
HETATM   31  C16 UNK     1       3.807   4.544  -4.965  1.00  0.00     0.000 A 
HETATM   32  C11 UNK     1       4.874   4.043  -4.218  1.00  0.00     0.001 A 
HETATM   33  C9  UNK     1       4.784   2.778  -3.636  1.00  0.00     0.008 A 
ENDBRANCH  26  28
ENDBRANCH   2  26
TORSDOF 6
