REMARK  7 active torsions:
REMARK  status: ('A' for Active; 'I' for Inactive)
REMARK    1  A    between atoms: C4_13  and  O2_2 
REMARK    2  A    between atoms: C7_16  and  O2_2 
REMARK    3  A    between atoms: C1_10  and  O3_3 
REMARK    4  A    between atoms: C2_11  and  O4_4 
REMARK    5  A    between atoms: C3_12  and  O5_5 
REMARK    6  A    between atoms: C6_15  and  O6_6 
REMARK    7  A    between atoms: C5_14  and  C6_15 
ROOT
HETATM    1  O1  UNK     1      -2.001  -0.066   0.484  1.00  0.00    -0.340 OA
HETATM    2  C1  UNK     1      -2.297  -2.165   2.423  1.00  0.00     0.183 C 
HETATM    3  C2  UNK     1      -1.382  -0.962   2.652  1.00  0.00     0.205 C 
HETATM    4  C3  UNK     1      -3.376  -1.856   1.385  1.00  0.00     0.189 C 
HETATM    5  C4  UNK     1      -0.894  -0.378   1.326  1.00  0.00     0.298 C 
HETATM    6  C5  UNK     1      -2.764  -1.218   0.144  1.00  0.00     0.253 C 
ENDROOT
BRANCH   5   7
HETATM    7  O2  UNK     1      -0.157   0.810   1.613  1.00  0.00    -0.318 OA
BRANCH   7   8
HETATM    8  C7  UNK     1       0.846   1.135   0.741  1.00  0.00     0.074 A 
HETATM    9  C9  UNK     1       1.962   1.826   1.198  1.00  0.00     0.038 A 
HETATM   10  C12 UNK     1       2.991   2.161   0.310  1.00  0.00     0.017 A 
HETATM   11  C10 UNK     1       2.913   1.808  -1.044  1.00  0.00     0.004 A 
HETATM   12  C11 UNK     1       1.778   1.115  -1.468  1.00  0.00     0.092 A 
HETATM   13  C13 UNK     1       3.953   2.127  -2.031  1.00  0.00    -0.043 A 
HETATM   14  O8  UNK     1       1.623   0.725  -2.813  1.00  0.00    -0.275 OA
HETATM   15  C8  UNK     1       0.743   0.774  -0.595  1.00  0.00     0.075 A 
HETATM   16  C16 UNK     1       2.587   1.011  -3.767  1.00  0.00     0.288 A 
HETATM   17  C14 UNK     1       3.779   1.743  -3.304  1.00  0.00     0.090 A 
HETATM   18  O9  UNK     1       2.462   0.676  -4.939  1.00  0.00    -0.260 OA
HETATM   19  C15 UNK     1       5.185   2.870  -1.607  1.00  0.00     0.049 C 
ENDBRANCH   7   8
ENDBRANCH   5   7
BRANCH   3  20
HETATM   20  O4  UNK     1      -0.242  -1.371   3.407  1.00  0.00    -0.388 OA
HETATM   21  H7  UNK     1      -0.568  -1.763   4.236  1.00  0.00     0.210 HD
ENDBRANCH   3  20
BRANCH   2  22
HETATM   22  O3  UNK     1      -2.948  -2.509   3.647  1.00  0.00    -0.390 OA
HETATM   23  H6  UNK     1      -3.527  -3.269   3.466  1.00  0.00     0.210 HD
ENDBRANCH   2  22
BRANCH   6  24
HETATM   24  C6  UNK     1      -3.825  -0.673  -0.756  1.00  0.00     0.172 C 
HETATM   25  O7  UNK     1      -3.969   0.507  -1.038  1.00  0.00    -0.648 OA
BRANCH  24  26
HETATM   26  O6  UNK     1      -4.616  -1.671  -1.222  1.00  0.00    -0.774 OA
HETATM   27  H12 UNK     1      -5.321  -1.334  -1.815  1.00  0.00     0.167 HD
ENDBRANCH  24  26
ENDBRANCH   6  24
BRANCH   4  28
HETATM   28  O5  UNK     1      -4.020  -3.071   1.005  1.00  0.00    -0.390 OA
HETATM   29  H8  UNK     1      -3.350  -3.657   0.612  1.00  0.00     0.210 HD
ENDBRANCH   4  28
TORSDOF 7
