REMARK  3 active torsions:
REMARK  status: ('A' for Active; 'I' for Inactive)
REMARK    1  A    between atoms: C5_10  and  O2_2 
REMARK    2  A    between atoms: C10_15  and  O4_4 
REMARK    3  A    between atoms: C10_15  and  C8_13 
ROOT
HETATM    1  O1  UNK     1      -0.546  -0.262   1.327  1.00  0.00    -0.303 OA
HETATM    2  O3  UNK     1      -1.585  -0.294  -2.617  1.00  0.00    -0.287 OA
HETATM    3  C1  UNK     1       0.023   0.268  -0.976  1.00  0.00     0.051 A 
HETATM    4  C2  UNK     1       0.317   0.249   0.388  1.00  0.00     0.090 A 
HETATM    5  C3  UNK     1       0.939   0.800  -1.887  1.00  0.00     0.055 A 
HETATM    6  C4  UNK     1      -1.264  -0.279  -1.436  1.00  0.00     0.188 A 
HETATM    7  C5  UNK     1       2.151   1.314  -1.423  1.00  0.00     0.069 A 
HETATM    8  C6  UNK     1       1.529   0.762   0.848  1.00  0.00     0.041 A 
HETATM    9  C7  UNK     1       2.445   1.295  -0.059  1.00  0.00     0.039 A 
HETATM   10  C8  UNK     1      -1.748  -0.773   0.885  1.00  0.00     0.153 A 
HETATM   11  C9  UNK     1      -2.157  -0.816  -0.389  1.00  0.00     0.100 A 
ENDROOT
BRANCH  10  12
HETATM   12  C10 UNK     1      -2.653  -1.312   1.901  1.00  0.00     0.201 C 
HETATM   13  O5  UNK     1      -3.747  -1.795   1.666  1.00  0.00    -0.645 OA
BRANCH  12  14
HETATM   14  O4  UNK     1      -2.090  -1.189   3.122  1.00  0.00    -0.771 OA
HETATM   15  H8  UNK     1      -2.668  -1.541   3.832  1.00  0.00     0.167 HD
ENDBRANCH  12  14
ENDBRANCH  10  12
BRANCH   7  16
HETATM   16  O2  UNK     1       3.049   1.834  -2.304  1.00  0.00    -0.356 OA
HETATM   17  C11 UNK     1       4.268   2.341  -1.764  1.00  0.00     0.210 C 
ENDBRANCH   7  16
TORSDOF 3
