REMARK  4 active torsions:
REMARK  status: ('A' for Active; 'I' for Inactive)
REMARK    1  A    between atoms: C8_13  and  O2_2 
REMARK    2  A    between atoms: C4_9  and  O3_3 
REMARK    3  A    between atoms: C9_14  and  O4_4 
REMARK    4  A    between atoms: C10_15  and  C3_8 
ROOT
HETATM    1  O1  UNK     1       0.019  -0.387   0.134  1.00  0.00    -0.309 OA
HETATM    2  O5  UNK     1       0.982  -1.279   3.991  1.00  0.00    -0.287 OA
HETATM    3  C1  UNK     1       0.671  -2.051   1.779  1.00  0.00     0.084 A 
HETATM    4  C2  UNK     1       0.334  -1.677   0.479  1.00  0.00     0.096 A 
HETATM    5  C3  UNK     1       0.029   0.583   1.125  1.00  0.00     0.090 A 
HETATM    6  C4  UNK     1       0.984  -3.380   2.073  1.00  0.00     0.118 A 
HETATM    7  C5  UNK     1       0.692  -1.022   2.830  1.00  0.00     0.190 A 
HETATM    8  C6  UNK     1       0.307  -2.633  -0.536  1.00  0.00     0.078 A 
HETATM    9  C7  UNK     1       0.343   0.349   2.409  1.00  0.00     0.094 A 
HETATM   10  C8  UNK     1       0.619  -3.961  -0.247  1.00  0.00     0.106 A 
HETATM   11  C9  UNK     1       0.957  -4.334   1.055  1.00  0.00     0.133 A 
ENDROOT
BRANCH   5  12
HETATM   12  C10 UNK     1      -0.320   1.935   0.644  1.00  0.00    -0.002 A 
HETATM   13  C11 UNK     1       0.231   3.063   1.258  1.00  0.00     0.014 A 
HETATM   14  C13 UNK     1      -0.097   4.340   0.804  1.00  0.00     0.001 A 
HETATM   15  C15 UNK     1      -0.978   4.494  -0.267  1.00  0.00     0.000 A 
HETATM   16  C14 UNK     1      -1.530   3.371  -0.883  1.00  0.00     0.001 A 
HETATM   17  C12 UNK     1      -1.202   2.094  -0.428  1.00  0.00     0.014 A 
ENDBRANCH   5  12
BRANCH   6  18
HETATM   18  O3  UNK     1       1.318  -3.783   3.332  1.00  0.00    -0.357 OA
HETATM   19  H7  UNK     1       1.299  -3.035   3.948  1.00  0.00     0.217 HD
ENDBRANCH   6  18
BRANCH  10  20
HETATM   20  O2  UNK     1       0.590  -4.887  -1.246  1.00  0.00    -0.353 OA
HETATM   21  C16 UNK     1       1.800  -5.095  -1.972  1.00  0.00     0.210 C 
ENDBRANCH  10  20
BRANCH  11  22
HETATM   22  O4  UNK     1       1.261  -5.635   1.329  1.00  0.00    -0.356 OA
HETATM   23  H9  UNK     1       1.470  -5.709   2.276  1.00  0.00     0.218 HD
ENDBRANCH  11  22
TORSDOF 4
