REMARK  5 active torsions:
REMARK  status: ('A' for Active; 'I' for Inactive)
REMARK    1  A    between atoms: C5_11  and  N1_4 
REMARK    2  A    between atoms: C6_12  and  N2_5 
REMARK    3  A    between atoms: C17_23  and  N3_6 
REMARK       I    between atoms: C9_15  and  N3_6 
REMARK    4  A    between atoms: C5_11  and  C7_13 
REMARK    5  A    between atoms: C6_12  and  C9_15 
ROOT
HETATM    1  N1  UNK     1       2.179   0.115  -0.324  1.00  0.00     0.096 N 
HETATM    2  N2  UNK     1       0.146  -0.768   1.533  1.00  0.00     0.100 N 
HETATM    3  C1  UNK     1       2.529  -0.367   1.017  1.00  0.00     0.303 C 
HETATM    4  C2  UNK     1       0.944  -0.526  -0.793  1.00  0.00     0.303 C 
HETATM    5  C3  UNK     1       1.380  -0.125   2.002  1.00  0.00     0.303 C 
HETATM    6  C4  UNK     1      -0.205  -0.285   0.192  1.00  0.00     0.303 C 
ENDROOT
BRANCH   1   7
HETATM    7  C5  UNK     1       3.274  -0.120  -1.263  1.00  0.00     0.312 C 
BRANCH   7   8
HETATM    8  C7  UNK     1       3.215   0.796  -2.436  1.00  0.00    -0.011 A 
HETATM    9  C10 UNK     1       2.542   0.460  -3.545  1.00  0.00     0.092 A 
HETATM   10  C13 UNK     1       2.456   1.332  -4.728  1.00  0.00     0.288 A 
HETATM   11  O1  UNK     1       3.114   2.550  -4.654  1.00  0.00    -0.275 OA
HETATM   12  O3  UNK     1       1.830   0.991  -5.726  1.00  0.00    -0.260 OA
HETATM   13  C11 UNK     1       3.830   2.931  -3.501  1.00  0.00     0.090 A 
HETATM   14  C8  UNK     1       3.903   2.094  -2.387  1.00  0.00     0.006 A 
HETATM   15  C14 UNK     1       4.454   4.179  -3.538  1.00  0.00     0.045 A 
HETATM   16  C12 UNK     1       4.635   2.546  -1.281  1.00  0.00     0.015 A 
HETATM   17  C16 UNK     1       5.266   3.794  -1.303  1.00  0.00     0.007 A 
HETATM   18  C15 UNK     1       5.176   4.610  -2.430  1.00  0.00    -0.059 A 
HETATM   19  C20 UNK     1       5.851   5.939  -2.446  1.00  0.00     0.048 C 
ENDBRANCH   7   8
ENDBRANCH   1   7
BRANCH   2  20
HETATM   20  C6  UNK     1      -0.949  -0.536   2.472  1.00  0.00     0.375 C 
BRANCH  20  21
HETATM   21  C9  UNK     1      -2.001  -1.618   2.299  1.00  0.00     0.250 C 
HETATM   22  O2  UNK     1      -1.724  -2.757   1.937  1.00  0.00    -0.271 OA
HETATM   23  N3  UNK     1      -3.263  -1.119   2.614  1.00  0.00    -0.326 N 
HETATM   24  H15 UNK     1      -3.327  -0.148   2.911  1.00  0.00     0.169 HD
BRANCH  23  25
HETATM   25  C17 UNK     1      -4.498  -1.809   2.580  1.00  0.00     0.035 A 
HETATM   26  C18 UNK     1      -5.676  -1.150   2.930  1.00  0.00     0.037 A 
HETATM   27  C21 UNK     1      -6.893  -1.830   2.896  1.00  0.00    -0.054 A 
HETATM   28  C22 UNK     1      -6.932  -3.171   2.513  1.00  0.00    -0.056 A 
HETATM   29  C24 UNK     1      -8.141  -1.103   3.275  1.00  0.00     0.049 C 
HETATM   30  C23 UNK     1      -5.754  -3.831   2.163  1.00  0.00     0.009 A 
HETATM   31  C25 UNK     1      -8.222  -3.920   2.468  1.00  0.00     0.049 C 
HETATM   32  C19 UNK     1      -4.537  -3.150   2.197  1.00  0.00     0.030 A 
ENDBRANCH  23  25
ENDBRANCH  20  21
ENDBRANCH   2  20
TORSDOF 5
