REMARK  7 active torsions:
REMARK  status: ('A' for Active; 'I' for Inactive)
REMARK    1  A    between atoms: C19_24  and  O2_2 
REMARK    2  A    between atoms: C23_28  and  O2_2 
REMARK    3  A    between atoms: C5_10  and  N1_4 
REMARK    4  A    between atoms: C6_11  and  N2_5 
REMARK    5  A    between atoms: C5_10  and  C7_12 
REMARK    6  A    between atoms: C6_11  and  C8_13 
REMARK    7  A    between atoms: C20_25  and  C22_27 
ROOT
HETATM    1  N1  UNK     1       0.025  -0.384   0.652  1.00  0.00     0.096 N 
HETATM    2  N2  UNK     1       1.952   1.626  -0.125  1.00  0.00     0.096 N 
HETATM    3  C1  UNK     1       0.841   0.316   1.651  1.00  0.00     0.303 C 
HETATM    4  C2  UNK     1       0.742  -0.469  -0.626  1.00  0.00     0.303 C 
HETATM    5  C3  UNK     1       1.236   1.711   1.154  1.00  0.00     0.303 C 
HETATM    6  C4  UNK     1       1.136   0.925  -1.125  1.00  0.00     0.303 C 
ENDROOT
BRANCH   1   7
HETATM    7  C5  UNK     1      -0.349  -1.714   1.127  1.00  0.00     0.312 C 
BRANCH   7   8
HETATM    8  C7  UNK     1      -1.500  -1.671   2.072  1.00  0.00    -0.011 A 
HETATM    9  C10 UNK     1      -1.308  -1.542   3.392  1.00  0.00     0.092 A 
HETATM   10  C15 UNK     1      -2.413  -1.494   4.364  1.00  0.00     0.288 A 
HETATM   11  O1  UNK     1      -3.697  -1.590   3.852  1.00  0.00    -0.275 OA
HETATM   12  O3  UNK     1      -2.199  -1.376   5.565  1.00  0.00    -0.260 OA
HETATM   13  C11 UNK     1      -3.931  -1.727   2.469  1.00  0.00     0.090 A 
HETATM   14  C9  UNK     1      -2.874  -1.771   1.559  1.00  0.00     0.009 A 
HETATM   15  C18 UNK     1      -5.265  -1.815   2.066  1.00  0.00     0.041 A 
HETATM   16  C14 UNK     1      -3.190  -1.910   0.201  1.00  0.00     0.051 A 
HETATM   17  C19 UNK     1      -4.522  -2.000  -0.217  1.00  0.00     0.069 A 
HETATM   18  C21 UNK     1      -5.558  -1.953   0.714  1.00  0.00     0.039 A 
BRANCH  17  19
HETATM   19  O2  UNK     1      -4.808  -2.135  -1.542  1.00  0.00    -0.351 OA
BRANCH  19  20
HETATM   20  C23 UNK     1      -3.893  -1.548  -2.466  1.00  0.00     0.171 C 
HETATM   21  C25 UNK     1      -4.645  -1.146  -3.717  1.00  0.00     0.034 C 
ENDBRANCH  19  20
ENDBRANCH  17  19
ENDBRANCH   7   8
ENDBRANCH   1   7
BRANCH   2  22
HETATM   22  C6  UNK     1       2.324   2.957  -0.601  1.00  0.00     0.311 C 
BRANCH  22  23
HETATM   23  C8  UNK     1       3.440   2.901  -1.610  1.00  0.00    -0.030 A 
HETATM   24  C12 UNK     1       4.550   2.088  -1.378  1.00  0.00     0.010 A 
HETATM   25  C16 UNK     1       5.583   2.036  -2.313  1.00  0.00     0.012 A 
HETATM   26  C20 UNK     1       5.507   2.796  -3.480  1.00  0.00    -0.037 A 
HETATM   27  C17 UNK     1       4.398   3.609  -3.712  1.00  0.00     0.012 A 
HETATM   28  C13 UNK     1       3.364   3.661  -2.777  1.00  0.00     0.010 A 
BRANCH  26  29
HETATM   29  C22 UNK     1       6.586   2.742  -4.455  1.00  0.00     0.001 C 
HETATM   30  C24 UNK     1       6.465   2.893  -5.790  1.00  0.00     0.012 C 
ENDBRANCH  26  29
ENDBRANCH  22  23
ENDBRANCH   2  22
TORSDOF 7
