REMARK  2 active torsions:
REMARK  status: ('A' for Active; 'I' for Inactive)
REMARK       I    between atoms: C6_12  and  N1_5 
REMARK    1  A    between atoms: C9_15  and  N1_5 
REMARK    2  A    between atoms: C2_8  and  C6_12 
ROOT
HETATM    1  O1  UNK     1       2.582   1.044   0.218  1.00  0.00    -0.274 OA
HETATM    2  O4  UNK     1       1.215  -0.081   1.663  1.00  0.00    -0.259 OA
HETATM    3  C1  UNK     1       1.885   1.369  -2.088  1.00  0.00    -0.001 A 
HETATM    4  C2  UNK     1       0.433   0.175  -0.559  1.00  0.00     0.108 A 
HETATM    5  C3  UNK     1       2.821   1.548  -1.075  1.00  0.00     0.089 A 
HETATM    6  C4  UNK     1       0.655   0.652  -1.790  1.00  0.00     0.037 A 
HETATM    7  C5  UNK     1       2.158   1.883  -3.358  1.00  0.00     0.014 A 
HETATM    8  C7  UNK     1       1.415   0.355   0.534  1.00  0.00     0.304 A 
HETATM    9  C8  UNK     1       4.019   2.225  -1.295  1.00  0.00     0.038 A 
HETATM   10  C10 UNK     1       3.356   2.564  -3.594  1.00  0.00     0.001 A 
HETATM   11  C11 UNK     1       4.284   2.735  -2.564  1.00  0.00     0.003 A 
ENDROOT
BRANCH   4  12
HETATM   12  C6  UNK     1      -0.837  -0.533  -0.357  1.00  0.00     0.263 C 
HETATM   13  O3  UNK     1      -1.354  -1.139  -1.294  1.00  0.00    -0.267 OA
HETATM   14  N1  UNK     1      -1.304  -0.409   0.944  1.00  0.00    -0.305 N 
HETATM   15  H4  UNK     1      -0.780   0.143   1.618  1.00  0.00     0.170 HD
BRANCH  14  16
HETATM   16  C9  UNK     1      -2.490  -0.956   1.492  1.00  0.00     0.160 A 
HETATM   17  C12 UNK     1      -3.382  -1.725   0.762  1.00  0.00     0.087 A 
HETATM   18  C13 UNK     1      -4.347  -2.020   1.688  1.00  0.00     0.078 A 
HETATM   19  O2  UNK     1      -4.025  -1.453   2.879  1.00  0.00    -0.216 OA
HETATM   20  C14 UNK     1      -5.595  -2.791   1.644  1.00  0.00     0.079 C 
HETATM   21  N2  UNK     1      -2.825  -0.766   2.751  1.00  0.00    -0.110 NA
ENDBRANCH  14  16
ENDBRANCH   4  12
TORSDOF 2
