REMARK  10 active torsions:
REMARK  status: ('A' for Active; 'I' for Inactive)
REMARK    1  A    between atoms: C5_15  and  N1_7 
REMARK    2  A    between atoms: C6_16  and  N2_8 
REMARK       I    between atoms: C11_21  and  N3_9 
REMARK    3  A    between atoms: C9_19  and  N3_9 
REMARK    4  A    between atoms: C10_20  and  N4_10 
REMARK       I    between atoms: C12_22  and  N4_10 
REMARK    5  A    between atoms: C5_15  and  C7_17 
REMARK    6  A    between atoms: C6_16  and  C8_18 
REMARK    7  A    between atoms: C7_17  and  C9_19 
REMARK    8  A    between atoms: C10_20  and  C8_18 
REMARK    9  A    between atoms: C11_21  and  C13_23 
REMARK   10  A    between atoms: C12_22  and  C14_24 
ROOT
HETATM    1  N1  UNK     1      -0.627  -1.109   3.138  1.00  0.00     0.091 N 
HETATM    2  N2  UNK     1      -3.518  -1.115   3.145  1.00  0.00     0.091 N 
HETATM    3  C1  UNK     1      -1.389  -2.151   2.439  1.00  0.00     0.302 C 
HETATM    4  C2  UNK     1      -1.392   0.143   3.182  1.00  0.00     0.302 C 
HETATM    5  C3  UNK     1      -2.754  -2.368   3.103  1.00  0.00     0.302 C 
HETATM    6  C4  UNK     1      -2.757  -0.073   3.844  1.00  0.00     0.302 C 
ENDROOT
BRANCH   1   7
HETATM    7  C5  UNK     1       0.672  -0.901   2.502  1.00  0.00     0.274 C 
BRANCH   7   8
HETATM    8  C7  UNK     1       1.646  -0.253   3.487  1.00  0.00     0.050 C 
BRANCH   8   9
HETATM    9  C9  UNK     1       3.027  -0.030   2.878  1.00  0.00     0.124 C 
BRANCH   9  10
HETATM   10  N3  UNK     1       2.993   0.846   1.738  1.00  0.00    -0.357 N 
HETATM   11  C11 UNK     1       3.410   0.459   0.476  1.00  0.00     0.257 C 
HETATM   12  O1  UNK     1       3.852  -0.640   0.159  1.00  0.00    -0.267 OA
HETATM   13  H21 UNK     1       2.692   1.801   1.904  1.00  0.00     0.162 HD
BRANCH  11  14
HETATM   14  C13 UNK     1       3.276   1.532  -0.527  1.00  0.00     0.108 A 
HETATM   15  C15 UNK     1       4.158   1.516  -1.533  1.00  0.00     0.037 A 
HETATM   16  C19 UNK     1       4.106   2.533  -2.571  1.00  0.00    -0.001 A 
HETATM   17  C21 UNK     1       3.127   3.519  -2.498  1.00  0.00     0.089 A 
HETATM   18  C23 UNK     1       5.006   2.555  -3.639  1.00  0.00     0.014 A 
HETATM   19  O3  UNK     1       2.201   3.531  -1.437  1.00  0.00    -0.274 OA
HETATM   20  C25 UNK     1       3.023   4.522  -3.459  1.00  0.00     0.038 A 
HETATM   21  C17 UNK     1       2.225   2.571  -0.429  1.00  0.00     0.304 A 
HETATM   22  O5  UNK     1       1.416   2.589   0.491  1.00  0.00    -0.259 OA
HETATM   23  C29 UNK     1       3.925   4.537  -4.521  1.00  0.00     0.003 A 
HETATM   24  C27 UNK     1       4.914   3.555  -4.611  1.00  0.00     0.001 A 
ENDBRANCH  11  14
ENDBRANCH   9  10
ENDBRANCH   8   9
ENDBRANCH   7   8
ENDBRANCH   1   7
BRANCH   2  25
HETATM   25  C6  UNK     1      -4.819  -1.322   3.779  1.00  0.00     0.274 C 
BRANCH  25  26
HETATM   26  C8  UNK     1      -5.789  -1.979   2.795  1.00  0.00     0.050 C 
BRANCH  26  27
HETATM   27  C10 UNK     1      -6.028  -1.121   1.555  1.00  0.00     0.124 C 
BRANCH  27  28
HETATM   28  N4  UNK     1      -4.823  -0.884   0.808  1.00  0.00    -0.357 N 
HETATM   29  C12 UNK     1      -4.389  -1.717  -0.210  1.00  0.00     0.257 C 
HETATM   30  O2  UNK     1      -4.945  -2.736  -0.604  1.00  0.00    -0.267 OA
HETATM   31  H22 UNK     1      -4.267  -0.079   1.079  1.00  0.00     0.162 HD
BRANCH  29  32
HETATM   32  C14 UNK     1      -3.130  -1.261  -0.827  1.00  0.00     0.108 A 
HETATM   33  C16 UNK     1      -2.334  -2.217  -1.322  1.00  0.00     0.037 A 
HETATM   34  C20 UNK     1      -1.070  -1.865  -1.950  1.00  0.00    -0.001 A 
HETATM   35  C24 UNK     1      -0.208  -2.829  -2.480  1.00  0.00     0.014 A 
HETATM   36  C22 UNK     1      -0.706  -0.525  -2.026  1.00  0.00     0.089 A 
HETATM   37  C28 UNK     1       0.996  -2.440  -3.073  1.00  0.00     0.001 A 
HETATM   38  C30 UNK     1       1.345  -1.089  -3.140  1.00  0.00     0.003 A 
HETATM   39  C26 UNK     1       0.491  -0.122  -2.614  1.00  0.00     0.038 A 
HETATM   40  O4  UNK     1      -1.548   0.476  -1.503  1.00  0.00    -0.274 OA
HETATM   41  C18 UNK     1      -2.763   0.171  -0.897  1.00  0.00     0.304 A 
HETATM   42  O6  UNK     1      -3.489   1.049  -0.444  1.00  0.00    -0.259 OA
ENDBRANCH  29  32
ENDBRANCH  27  28
ENDBRANCH  26  27
ENDBRANCH  25  26
ENDBRANCH   2  25
TORSDOF 10
