REMARK  5 active torsions:
REMARK  status: ('A' for Active; 'I' for Inactive)
REMARK    1  A    between atoms: C10_15  and  O2_3 
REMARK    2  A    between atoms: C7_12  and  O2_3 
REMARK    3  A    between atoms: C11_16  and  O3_4 
REMARK    4  A    between atoms: C6_11  and  O3_4 
REMARK    5  A    between atoms: C11_16  and  C17_22 
ROOT
HETATM    1  O1  UNK     1      -0.023  -1.289  -0.606  1.00  0.00    -0.319 OA
HETATM    2  O4  UNK     1       1.226   1.761   1.804  1.00  0.00    -0.284 OA
HETATM    3  C1  UNK     1      -0.370   0.068   1.382  1.00  0.00     0.051 A 
HETATM    4  C2  UNK     1      -0.743  -0.963   0.517  1.00  0.00     0.092 A 
HETATM    5  C3  UNK     1       0.847   0.847   1.085  1.00  0.00     0.220 A 
HETATM    6  C4  UNK     1      -1.141   0.355   2.510  1.00  0.00     0.021 A 
HETATM    7  C5  UNK     1      -1.890  -1.713   0.779  1.00  0.00     0.075 A 
HETATM    8  C6  UNK     1      -2.662  -1.428   1.905  1.00  0.00     0.071 A 
HETATM    9  C7  UNK     1       1.586   0.454  -0.135  1.00  0.00     0.149 A 
HETATM   10  C8  UNK     1      -2.288  -0.396   2.769  1.00  0.00     0.038 A 
HETATM   11  C9  UNK     1       1.109  -0.557  -0.869  1.00  0.00     0.184 A 
ENDROOT
BRANCH   9  12
HETATM   12  O2  UNK     1       2.732   1.130  -0.482  1.00  0.00    -0.303 OA
BRANCH  12  13
HETATM   13  C10 UNK     1       2.739   1.761  -1.695  1.00  0.00     0.098 A 
HETATM   14  C13 UNK     1       1.791   2.753  -1.935  1.00  0.00     0.039 A 
HETATM   15  C15 UNK     1       1.775   3.415  -3.163  1.00  0.00     0.003 A 
HETATM   16  C16 UNK     1       2.706   3.082  -4.147  1.00  0.00     0.002 A 
HETATM   17  C14 UNK     1       3.653   2.088  -3.903  1.00  0.00     0.026 A 
HETATM   18  C12 UNK     1       3.670   1.426  -2.675  1.00  0.00     0.067 A 
HETATM   19 Cl1  UNK     1       4.853   0.201  -2.400  1.00  0.00    -0.081 Cl
ENDBRANCH  12  13
ENDBRANCH   9  12
BRANCH   8  20
HETATM   20  O3  UNK     1      -3.783  -2.156   2.163  1.00  0.00    -0.347 OA
BRANCH  20  21
HETATM   21  C11 UNK     1      -4.481  -2.693   1.040  1.00  0.00     0.202 C 
BRANCH  21  22
HETATM   22  C17 UNK     1      -5.923  -2.839   1.397  1.00  0.00    -0.011 C 
HETATM   23  C18 UNK     1      -6.919  -2.227   0.749  1.00  0.00     0.009 C 
ENDBRANCH  21  22
ENDBRANCH  20  21
ENDBRANCH   8  20
TORSDOF 5
