REMARK  8 active torsions:
REMARK  status: ('A' for Active; 'I' for Inactive)
REMARK    1  A    between atoms: C17_25  and  O2_2 
REMARK    2  A    between atoms: C7_15  and  O2_2 
REMARK    3  A    between atoms: C16_24  and  O4_4 
REMARK    4  A    between atoms: C14_22  and  O5_5 
REMARK    5  A    between atoms: C15_23  and  O6_6 
REMARK    6  A    between atoms: C22_30  and  O7_7 
REMARK    7  A    between atoms: C10_18  and  C9_17 
REMARK    8  A    between atoms: C11_19  and  C17_25 
ROOT
HETATM    1  O1  UNK     1      -2.246  -0.509   1.878  1.00  0.00    -0.306 OA
HETATM    2  O3  UNK     1      -1.738   0.396   5.264  1.00  0.00    -0.284 OA
HETATM    3  C1  UNK     1      -0.835   0.861   3.090  1.00  0.00     0.051 A 
HETATM    4  C2  UNK     1      -1.195   0.378   1.833  1.00  0.00     0.093 A 
HETATM    5  C3  UNK     1      -2.593  -0.615   3.220  1.00  0.00     0.127 A 
HETATM    6  C4  UNK     1      -1.724   0.241   4.064  1.00  0.00     0.218 A 
HETATM    7  C5  UNK     1      -0.531   0.783   0.696  1.00  0.00     0.075 A 
HETATM    8  C6  UNK     1       0.194   1.761   3.271  1.00  0.00     0.021 A 
HETATM    9  C7  UNK     1       0.517   1.697   0.852  1.00  0.00     0.082 A 
HETATM   10  C8  UNK     1       0.876   2.180   2.127  1.00  0.00     0.038 A 
HETATM   11  C9  UNK     1      -3.575  -1.385   3.689  1.00  0.00     0.053 C 
ENDROOT
BRANCH   9  12
HETATM   12  O2  UNK     1       1.203   2.127  -0.245  1.00  0.00    -0.275 OA
BRANCH  12  13
HETATM   13  C17 UNK     1       1.836   1.109  -0.961  1.00  0.00     0.298 C 
HETATM   14  O8  UNK     1       1.824  -0.079  -0.674  1.00  0.00    -0.259 OA
BRANCH  13  15
HETATM   15  C11 UNK     1       2.560   1.654  -2.137  1.00  0.00     0.045 A 
HETATM   16  C12 UNK     1       3.057   2.940  -2.077  1.00  0.00     0.057 A 
HETATM   17  C15 UNK     1       3.738   3.451  -3.182  1.00  0.00     0.105 A 
HETATM   18  C16 UNK     1       3.906   2.666  -4.323  1.00  0.00     0.135 A 
HETATM   19  C14 UNK     1       3.394   1.369  -4.358  1.00  0.00     0.105 A 
HETATM   20  C13 UNK     1       2.713   0.857  -3.253  1.00  0.00     0.057 A 
BRANCH  17  21
HETATM   21  O6  UNK     1       4.235   4.719  -3.134  1.00  0.00    -0.353 OA
HETATM   22  C25 UNK     1       4.019   5.454  -1.931  1.00  0.00     0.210 C 
ENDBRANCH  17  21
BRANCH  18  23
HETATM   23  O4  UNK     1       4.572   3.166  -5.402  1.00  0.00    -0.351 OA
HETATM   24  C23 UNK     1       5.925   3.565  -5.199  1.00  0.00     0.210 C 
ENDBRANCH  18  23
BRANCH  19  25
HETATM   25  O5  UNK     1       3.552   0.592  -5.466  1.00  0.00    -0.353 OA
HETATM   26  C24 UNK     1       4.721  -0.222  -5.525  1.00  0.00     0.210 C 
ENDBRANCH  19  25
ENDBRANCH  13  15
ENDBRANCH  12  13
ENDBRANCH   9  12
BRANCH  11  27
HETATM   27  C10 UNK     1      -4.458  -2.249   2.883  1.00  0.00    -0.033 A 
HETATM   28  C18 UNK     1      -4.073  -3.553   2.622  1.00  0.00     0.014 A 
HETATM   29  C20 UNK     1      -4.907  -4.370   1.859  1.00  0.00     0.037 A 
HETATM   30  C22 UNK     1      -6.113  -3.871   1.367  1.00  0.00     0.068 A 
HETATM   31  C21 UNK     1      -6.486  -2.555   1.639  1.00  0.00     0.037 A 
HETATM   32  C19 UNK     1      -5.652  -1.737   2.402  1.00  0.00     0.014 A 
BRANCH  30  33
HETATM   33  O7  UNK     1      -6.927  -4.668   0.623  1.00  0.00    -0.356 OA
HETATM   34  C26 UNK     1      -8.145  -4.093   0.152  1.00  0.00     0.210 C 
ENDBRANCH  30  33
ENDBRANCH  11  27
TORSDOF 8
