REMARK  4 active torsions:
REMARK  status: ('A' for Active; 'I' for Inactive)
REMARK    1  A    between atoms: C20_27  and  O3_5 
REMARK    2  A    between atoms: C5_12  and  N1_7 
REMARK    3  A    between atoms: C1_8  and  C2_9 
REMARK    4  A    between atoms: C13_20  and  C15_22 
ROOT
HETATM    1  C1  UNK     1       0.994   0.846  -2.210  1.00  0.00    -0.018 A 
HETATM    2  C5  UNK     1      -0.774  -0.252  -0.985  1.00  0.00     0.032 A 
HETATM    3  C6  UNK     1       0.399   0.502  -0.997  1.00  0.00     0.042 A 
HETATM    4  C8  UNK     1       0.417   0.437  -3.412  1.00  0.00     0.012 A 
HETATM    5  C10 UNK     1      -1.352  -0.661  -2.187  1.00  0.00     0.029 A 
HETATM    6  C11 UNK     1      -0.757  -0.316  -3.400  1.00  0.00     0.003 A 
ENDROOT
BRANCH   2   7
HETATM    7  N1  UNK     1      -1.376  -0.602   0.241  1.00  0.00    -0.365 N 
HETATM    8  C15 UNK     1      -2.501  -1.319   0.455  1.00  0.00     0.105 C 
HETATM    9  H5  UNK     1      -0.886  -0.260   1.057  1.00  0.00     0.165 HD
BRANCH   8  10
HETATM   10  C13 UNK     1      -3.058  -1.642   1.625  1.00  0.00     0.051 A 
HETATM   11  C18 UNK     1      -4.320  -2.456   1.515  1.00  0.00     0.218 A 
HETATM   12  O4  UNK     1      -4.808  -2.809   0.445  1.00  0.00    -0.284 OA
HETATM   13  C20 UNK     1      -4.977  -2.833   2.793  1.00  0.00     0.120 A 
HETATM   14  C22 UNK     1      -4.444  -2.453   3.959  1.00  0.00     0.061 A 
HETATM   15  C21 UNK     1      -3.227  -1.671   4.062  1.00  0.00     0.032 A 
HETATM   16 Br2  UNK     1      -2.705  -1.280   5.829  1.00  0.00    -0.050 Br
HETATM   17  C19 UNK     1      -2.554  -1.277   2.957  1.00  0.00     0.044 A 
HETATM   18 Br1  UNK     1      -0.965  -0.259   3.067  1.00  0.00    -0.049 Br
BRANCH  13  19
HETATM   19  O3  UNK     1      -6.136  -3.578   2.747  1.00  0.00    -0.352 OA
HETATM   20  C23 UNK     1      -7.273  -2.737   2.692  1.00  0.00     0.210 C 
ENDBRANCH  13  19
ENDBRANCH   8  10
ENDBRANCH   2   7
BRANCH   1  21
HETATM   21  C2  UNK     1       2.235   1.643  -2.223  1.00  0.00     0.051 A 
HETATM   22  C4  UNK     1       3.417   1.007  -2.198  1.00  0.00     0.032 A 
HETATM   23  C3  UNK     1       4.667   1.749  -2.193  1.00  0.00    -0.001 A 
HETATM   24  C12 UNK     1       5.911   1.113  -2.174  1.00  0.00     0.014 A 
HETATM   25  C7  UNK     1       4.623   3.137  -2.205  1.00  0.00     0.089 A 
HETATM   26  C16 UNK     1       7.084   1.873  -2.168  1.00  0.00     0.001 A 
HETATM   27  C17 UNK     1       7.020   3.268  -2.180  1.00  0.00     0.003 A 
HETATM   28  C14 UNK     1       5.784   3.909  -2.198  1.00  0.00     0.038 A 
HETATM   29  O1  UNK     1       3.388   3.812  -2.225  1.00  0.00    -0.274 OA
HETATM   30  C9  UNK     1       2.174   3.130  -2.244  1.00  0.00     0.299 A 
HETATM   31  O2  UNK     1       1.109   3.738  -2.284  1.00  0.00    -0.259 OA
ENDBRANCH   1  21
TORSDOF 4
