REMARK  7 active torsions:
REMARK  status: ('A' for Active; 'I' for Inactive)
REMARK    1  A    between atoms: C24_31  and  O4_4 
REMARK    2  A    between atoms: C13_20  and  N1_6 
REMARK    3  A    between atoms: C16_23  and  N1_6 
REMARK    4  A    between atoms: C17_24  and  N1_6 
REMARK    5  A    between atoms: C14_21  and  N2_7 
REMARK    6  A    between atoms: C11_18  and  C4_11 
REMARK    7  A    between atoms: C16_23  and  C24_31 
ROOT
HETATM    1  O1  UNK     1       3.835   2.937   0.061  1.00  0.00    -0.332 OA
HETATM    2  O2  UNK     1       1.045   0.336  -2.962  1.00  0.00    -0.274 OA
HETATM    3  O3  UNK     1       2.535   0.169   1.981  1.00  0.00    -0.289 OA
HETATM    4  O5  UNK     1      -0.189  -0.897  -4.446  1.00  0.00    -0.260 OA
HETATM    5  C1  UNK     1       3.966   1.836   0.963  1.00  0.00     0.125 C 
HETATM    6  C2  UNK     1       2.344   1.645  -1.372  1.00  0.00     0.048 A 
HETATM    7  C3  UNK     1       2.749   0.907   1.023  1.00  0.00     0.196 C 
HETATM    8  C4  UNK     1       1.862   0.929  -0.179  1.00  0.00     0.044 C 
HETATM    9  C5  UNK     1       3.307   2.643  -1.169  1.00  0.00     0.084 A 
HETATM   10  C6  UNK     1       4.166   2.468   2.348  1.00  0.00     0.055 C 
HETATM   11  C7  UNK     1       5.211   1.017   0.599  1.00  0.00     0.055 C 
HETATM   12  C8  UNK     1       1.936   1.405  -2.695  1.00  0.00     0.103 A 
HETATM   13  C9  UNK     1       2.406   2.168  -3.768  1.00  0.00    -0.001 A 
HETATM   14  C10 UNK     1       3.768   3.432  -2.230  1.00  0.00     0.039 A 
HETATM   15  C12 UNK     1       3.317   3.196  -3.526  1.00  0.00     0.017 A 
HETATM   16  C15 UNK     1       1.939   1.875  -5.114  1.00  0.00     0.020 A 
HETATM   17  C22 UNK     1       1.086   0.872  -5.335  1.00  0.00     0.083 A 
HETATM   18  C23 UNK     1       0.588   0.027  -4.238  1.00  0.00     0.288 A 
ENDROOT
BRANCH   8  19
HETATM   19  C11 UNK     1       0.640   0.395  -0.037  1.00  0.00     0.104 C 
HETATM   20  N2  UNK     1       0.148  -0.270   1.033  1.00  0.00    -0.365 N 
HETATM   21  H10 UNK     1       0.771  -0.388   1.824  1.00  0.00     0.165 HD
BRANCH  20  22
HETATM   22  C14 UNK     1      -1.127  -0.840   1.207  1.00  0.00     0.032 A 
HETATM   23  C20 UNK     1      -1.446  -1.493   2.399  1.00  0.00     0.031 A 
HETATM   24  C18 UNK     1      -2.711  -2.054   2.573  1.00  0.00     0.031 A 
HETATM   25  C13 UNK     1      -3.660  -1.963   1.555  1.00  0.00     0.030 A 
HETATM   26  C19 UNK     1      -3.344  -1.311   0.363  1.00  0.00     0.031 A 
HETATM   27  C21 UNK     1      -2.079  -0.750   0.189  1.00  0.00     0.031 A 
BRANCH  25  28
HETATM   28  N1  UNK     1      -4.940  -2.530   1.731  1.00  0.00    -0.379 N 
BRANCH  28  29
HETATM   29  C16 UNK     1      -5.274  -3.220   2.961  1.00  0.00     0.149 C 
BRANCH  29  30
HETATM   30  C24 UNK     1      -5.658  -2.216   4.034  1.00  0.00     0.183 C 
BRANCH  30  31
HETATM   31  O4  UNK     1      -6.017  -2.907   5.223  1.00  0.00    -0.399 OA
HETATM   32  H26 UNK     1      -5.238  -3.410   5.515  1.00  0.00     0.209 HD
ENDBRANCH  30  31
ENDBRANCH  29  30
ENDBRANCH  28  29
BRANCH  28  33
HETATM   33  C17 UNK     1      -5.933  -2.440   0.679  1.00  0.00     0.118 C 
HETATM   34  C25 UNK     1      -6.607  -1.082   0.712  1.00  0.00     0.026 C 
ENDBRANCH  28  33
ENDBRANCH  25  28
ENDBRANCH  20  22
ENDBRANCH   8  19
TORSDOF 7
