REMARK  2 active torsions:
REMARK  status: ('A' for Active; 'I' for Inactive)
REMARK    1  A    between atoms: C3_7  and  O2_2 
REMARK    2  A    between atoms: C6_10  and  O3_3 
ROOT
HETATM    1  O1  UNK     1      -1.316  -0.154  -1.579  1.00  0.00    -0.275 OA
HETATM    2  O4  UNK     1      -3.318  -1.205  -1.228  1.00  0.00    -0.260 OA
HETATM    3  C1  UNK     1       0.272   0.068   0.269  1.00  0.00     0.032 A 
HETATM    4  C2  UNK     1      -0.071   0.274  -1.070  1.00  0.00     0.095 A 
HETATM    5  C3  UNK     1      -0.712  -0.598   1.130  1.00  0.00     0.087 A 
HETATM    6  C4  UNK     1       1.537   0.504   0.685  1.00  0.00     0.020 A 
HETATM    7  C5  UNK     1       0.788   0.899  -1.976  1.00  0.00     0.074 A 
HETATM    8  C6  UNK     1       2.035   1.332  -1.540  1.00  0.00     0.068 A 
HETATM    9  C7  UNK     1       2.410   1.132  -0.213  1.00  0.00     0.037 A 
HETATM   10  C8  UNK     1      -1.879  -1.011   0.626  1.00  0.00     0.120 A 
HETATM   11  C9  UNK     1      -2.244  -0.812  -0.785  1.00  0.00     0.290 A 
ENDROOT
BRANCH   5  12
HETATM   12  O2  UNK     1      -0.440  -0.798   2.469  1.00  0.00    -0.355 OA
HETATM   13  C10 UNK     1      -0.885   0.301   3.239  1.00  0.00     0.210 C 
ENDBRANCH   5  12
BRANCH   8  14
HETATM   14  O3  UNK     1       2.888   1.942  -2.405  1.00  0.00    -0.361 OA
HETATM   15  H8  UNK     1       3.705   2.174  -1.932  1.00  0.00     0.217 HD
ENDBRANCH   8  14
TORSDOF 2
