REMARK  6 active torsions:
REMARK  status: ('A' for Active; 'I' for Inactive)
REMARK    1  A    between atoms: C1_7  and  O1_4 
REMARK    2  A    between atoms: C4_10  and  O1_4 
REMARK    3  A    between atoms: C3_9  and  O2_5 
REMARK    4  A    between atoms: C2_8  and  C9_15 
REMARK    5  A    between atoms: C4_10  and  C8_14 
REMARK    6  A    between atoms: C10_16  and  C11_17 
ROOT
HETATM    1  N1  UNK     1       2.790  -1.150  -0.746  1.00  0.00    -0.191 NA
HETATM    2  C9  UNK     1       1.482   2.010  -1.184  1.00  0.00     0.036 C 
HETATM    3  C10 UNK     1       2.659   1.364  -1.394  1.00  0.00     0.055 C 
HETATM    4  C23 UNK     1       2.722  -0.027  -1.032  1.00  0.00     0.100 C 
ENDROOT
BRANCH   3   5
HETATM    5  C11 UNK     1       3.839   1.997  -1.965  1.00  0.00    -0.014 A 
HETATM    6  C16 UNK     1       4.032   1.995  -3.346  1.00  0.00     0.032 A 
HETATM    7  C19 UNK     1       5.163   2.602  -3.892  1.00  0.00     0.011 A 
HETATM    8 Br2  UNK     1       5.427   2.602  -5.764  1.00  0.00    -0.051 Br
HETATM    9  C21 UNK     1       6.100   3.210  -3.057  1.00  0.00     0.019 A 
HETATM   10  C20 UNK     1       5.907   3.212  -1.676  1.00  0.00     0.002 A 
HETATM   11  C17 UNK     1       4.776   2.605  -1.130  1.00  0.00     0.013 A 
ENDBRANCH   3   5
BRANCH   2  12
HETATM   12  C2  UNK     1       0.265   1.410  -0.617  1.00  0.00    -0.015 A 
HETATM   13  C5  UNK     1       0.120   1.455   0.764  1.00  0.00     0.052 A 
HETATM   14  C3  UNK     1      -1.015   0.901   1.356  1.00  0.00     0.102 A 
HETATM   15  C1  UNK     1      -1.996   0.307   0.562  1.00  0.00     0.103 A 
HETATM   16  C6  UNK     1      -1.842   0.267  -0.824  1.00  0.00     0.059 A 
HETATM   17  C7  UNK     1      -0.707   0.821  -1.416  1.00  0.00     0.024 A 
HETATM   18 Br1  UNK     1      -0.559   0.733  -3.308  1.00  0.00    -0.050 Br
BRANCH  14  19
HETATM   19  O2  UNK     1      -1.154   0.946   2.710  1.00  0.00    -0.353 OA
HETATM   20  C22 UNK     1      -0.624  -0.150   3.453  1.00  0.00     0.210 C 
ENDBRANCH  14  19
BRANCH  15  21
HETATM   21  O1  UNK     1      -3.109  -0.237   1.128  1.00  0.00    -0.344 OA
BRANCH  21  22
HETATM   22  C4  UNK     1      -3.709  -1.339   0.450  1.00  0.00     0.216 C 
BRANCH  22  23
HETATM   23  C8  UNK     1      -4.398  -2.215   1.454  1.00  0.00    -0.012 A 
HETATM   24  C12 UNK     1      -3.733  -3.267   2.077  1.00  0.00     0.042 A 
HETATM   25 Cl1  UNK     1      -2.080  -3.622   1.730  1.00  0.00    -0.084 Cl
HETATM   26  C14 UNK     1      -4.408  -4.060   3.005  1.00  0.00     0.024 A 
HETATM   27  C18 UNK     1      -5.744  -3.798   3.307  1.00  0.00     0.002 A 
HETATM   28  C15 UNK     1      -6.406  -2.743   2.680  1.00  0.00     0.001 A 
HETATM   29  C13 UNK     1      -5.732  -1.950   1.751  1.00  0.00     0.011 A 
ENDBRANCH  22  23
ENDBRANCH  21  22
ENDBRANCH  15  21
ENDBRANCH   2  12
TORSDOF 6
