REMARK  2 active torsions:
REMARK  status: ('A' for Active; 'I' for Inactive)
REMARK    1  A    between atoms: C11_16  and  O3_3 
REMARK       I    between atoms: C5_10  and  N1_5 
REMARK    2  A    between atoms: C5_10  and  C6_11 
ROOT
HETATM    1  O1  UNK     1       1.714   0.430   0.352  1.00  0.00    -0.271 OA
HETATM    2  O4  UNK     1       0.855  -0.756   2.106  1.00  0.00    -0.259 OA
HETATM    3  C6  UNK     1      -0.340  -0.866   0.063  1.00  0.00     0.108 A 
HETATM    4  C7  UNK     1      -0.431  -0.488  -1.218  1.00  0.00     0.037 A 
HETATM    5  C8  UNK     1       0.572   0.394  -1.795  1.00  0.00     0.002 A 
HETATM    6  C9  UNK     1       0.769  -0.411   0.932  1.00  0.00     0.304 A 
HETATM    7  C10 UNK     1       1.623   0.833  -0.995  1.00  0.00     0.123 A 
HETATM    8  C11 UNK     1       2.616   1.677  -1.487  1.00  0.00     0.102 A 
HETATM    9  C12 UNK     1       0.517   0.815  -3.126  1.00  0.00     0.014 A 
HETATM   10  C13 UNK     1       2.553   2.092  -2.815  1.00  0.00     0.040 A 
HETATM   11  C14 UNK     1       1.506   1.663  -3.633  1.00  0.00     0.004 A 
ENDROOT
BRANCH   3  12
HETATM   12  C5  UNK     1      -1.405  -1.761   0.556  1.00  0.00     0.259 C 
HETATM   13  O2  UNK     1      -1.251  -2.978   0.455  1.00  0.00    -0.267 OA
HETATM   14  N1  UNK     1      -2.520  -1.154   1.100  1.00  0.00    -0.348 N 
HETATM   15  C3  UNK     1      -2.773   0.278   1.253  1.00  0.00     0.126 C 
HETATM   16  C4  UNK     1      -3.639  -1.933   1.612  1.00  0.00     0.126 C 
HETATM   17  C1  UNK     1      -4.017   0.357   2.127  1.00  0.00     0.021 C 
HETATM   18  C2  UNK     1      -4.764  -0.923   1.777  1.00  0.00     0.021 C 
ENDBRANCH   3  12
BRANCH   8  19
HETATM   19  O3  UNK     1       3.638   2.098  -0.694  1.00  0.00    -0.353 OA
HETATM   20  C15 UNK     1       3.440   3.310   0.034  1.00  0.00     0.210 C 
ENDBRANCH   8  19
TORSDOF 2
