REMARK  5 active torsions:
REMARK  status: ('A' for Active; 'I' for Inactive)
REMARK    1  A    between atoms: C16_21  and  O2_2 
REMARK    2  A    between atoms: C3_8  and  O2_2 
REMARK    3  A    between atoms: C15_20  and  O4_4 
REMARK    4  A    between atoms: C1_6  and  C5_10 
REMARK    5  A    between atoms: C16_21  and  C17_22 
ROOT
HETATM    1  O1  UNK     1      -0.817   0.454   1.729  1.00  0.00    -0.306 OA
HETATM    2  O3  UNK     1      -3.176  -1.625  -0.862  1.00  0.00    -0.284 OA
HETATM    3  C1  UNK     1      -0.611   0.510   0.360  1.00  0.00     0.123 A 
HETATM    4  C2  UNK     1      -2.695  -1.042   1.372  1.00  0.00     0.051 A 
HETATM    5  C3  UNK     1      -1.346  -0.155  -0.550  1.00  0.00     0.155 A 
HETATM    6  C4  UNK     1      -1.851  -0.310   2.205  1.00  0.00     0.090 A 
HETATM    7  C6  UNK     1      -2.472  -0.999  -0.082  1.00  0.00     0.221 A 
HETATM    8  C7  UNK     1      -3.733  -1.804   1.913  1.00  0.00     0.018 A 
HETATM    9  C8  UNK     1      -2.040  -0.337   3.587  1.00  0.00     0.038 A 
HETATM   10  C11 UNK     1      -3.921  -1.828   3.295  1.00  0.00     0.001 A 
HETATM   11  C12 UNK     1      -3.076  -1.097   4.131  1.00  0.00     0.003 A 
ENDROOT
BRANCH   3  12
HETATM   12  C5  UNK     1       0.528   1.365  -0.016  1.00  0.00     0.001 A 
HETATM   13  C10 UNK     1       1.810   0.821  -0.100  1.00  0.00     0.017 A 
HETATM   14  C14 UNK     1       2.890   1.630  -0.456  1.00  0.00     0.037 A 
HETATM   15  C15 UNK     1       2.688   2.983  -0.727  1.00  0.00     0.068 A 
HETATM   16  C13 UNK     1       1.406   3.528  -0.642  1.00  0.00     0.037 A 
HETATM   17  C9  UNK     1       0.327   2.719  -0.286  1.00  0.00     0.017 A 
BRANCH  15  18
HETATM   18  O4  UNK     1       3.740   3.773  -1.073  1.00  0.00    -0.356 OA
HETATM   19  C19 UNK     1       5.023   3.153  -1.141  1.00  0.00     0.210 C 
ENDBRANCH  15  18
ENDBRANCH   3  12
BRANCH   5  20
HETATM   20  O2  UNK     1      -1.094  -0.103  -1.904  1.00  0.00    -0.337 OA
BRANCH  20  21
HETATM   21  C16 UNK     1      -0.196  -1.126  -2.288  1.00  0.00     0.253 C 
BRANCH  21  22
HETATM   22  C17 UNK     1       0.618  -0.699  -3.492  1.00  0.00     0.146 C 
HETATM   23  O5  UNK     1       0.486   0.404  -4.019  1.00  0.00    -0.296 OA
HETATM   24  C18 UNK     1       1.609  -1.704  -4.017  1.00  0.00     0.093 C 
ENDBRANCH  21  22
ENDBRANCH  20  21
ENDBRANCH   5  20
TORSDOF 5
