REMARK  5 active torsions:
REMARK  status: ('A' for Active; 'I' for Inactive)
REMARK    1  A    between atoms: C10_17  and  O2_3 
REMARK    2  A    between atoms: C11_18  and  O3_4 
REMARK    3  A    between atoms: C1_8  and  N1_7 
REMARK       I    between atoms: C9_16  and  N1_7 
REMARK    4  A    between atoms: C1_8  and  C2_9 
REMARK    5  A    between atoms: C4_11  and  C9_16 
ROOT
HETATM    1  O4  UNK     1      -1.290   2.000  -0.330  1.00  0.00    -0.267 OA
HETATM    2  N1  UNK     1      -1.600   0.040  -1.553  1.00  0.00    -0.352 N 
HETATM    3  C9  UNK     1      -0.879   1.126  -1.091  1.00  0.00     0.258 C 
HETATM    4  H3  UNK     1      -1.155  -0.653  -2.147  1.00  0.00     0.163 HD
ENDROOT
BRANCH   3   5
HETATM    5  C4  UNK     1       0.495   1.160  -1.606  1.00  0.00     0.108 A 
HETATM    6  C13 UNK     1       0.852   0.599  -2.928  1.00  0.00     0.304 A 
HETATM    7  O1  UNK     1       2.189   0.691  -3.306  1.00  0.00    -0.274 OA
HETATM    8  O5  UNK     1       0.016   0.079  -3.659  1.00  0.00    -0.259 OA
HETATM    9  C7  UNK     1       3.157   1.287  -2.474  1.00  0.00     0.089 A 
HETATM   10  C15 UNK     1       4.470   1.332  -2.938  1.00  0.00     0.040 A 
HETATM   11  C3  UNK     1       2.800   1.807  -1.234  1.00  0.00     0.001 A 
HETATM   12  C17 UNK     1       5.450   1.915  -2.137  1.00  0.00     0.026 A 
HETATM   13  C16 UNK     1       5.110   2.442  -0.889  1.00  0.00     0.035 A 
HETATM   14  C14 UNK     1       3.788   2.389  -0.437  1.00  0.00     0.038 A 
HETATM   15 Cl1  UNK     1       6.325   3.161   0.097  1.00  0.00    -0.084 Cl
HETATM   16  C6  UNK     1       1.410   1.727  -0.811  1.00  0.00     0.037 A 
ENDBRANCH   3   5
BRANCH   2  17
HETATM   17  C1  UNK     1      -2.975  -0.209  -1.182  1.00  0.00     0.161 C 
BRANCH  17  18
HETATM   18  C2  UNK     1      -3.079  -1.054   0.055  1.00  0.00    -0.038 A 
HETATM   19  C5  UNK     1      -3.124  -0.445   1.303  1.00  0.00     0.048 A 
HETATM   20  C10 UNK     1      -3.222  -1.231   2.451  1.00  0.00     0.102 A 
HETATM   21  C11 UNK     1      -3.274  -2.620   2.343  1.00  0.00     0.101 A 
HETATM   22  C12 UNK     1      -3.228  -3.224   1.086  1.00  0.00     0.040 A 
HETATM   23  C8  UNK     1      -3.131  -2.438  -0.062  1.00  0.00     0.012 A 
BRANCH  20  24
HETATM   24  O2  UNK     1      -3.268  -0.629   3.673  1.00  0.00    -0.353 OA
HETATM   25  C18 UNK     1      -3.209   0.796   3.696  1.00  0.00     0.210 C 
ENDBRANCH  20  24
BRANCH  21  26
HETATM   26  O3  UNK     1      -3.370  -3.398   3.457  1.00  0.00    -0.353 OA
HETATM   27  C19 UNK     1      -2.149  -3.821   4.060  1.00  0.00     0.210 C 
ENDBRANCH  21  26
ENDBRANCH  17  18
ENDBRANCH   2  17
TORSDOF 5
