REMARK  4 active torsions:
REMARK  status: ('A' for Active; 'I' for Inactive)
REMARK    1  A    between atoms: C5_11  and  N1_5 
REMARK       I    between atoms: C7_13  and  N2_6 
REMARK    2  A    between atoms: C5_11  and  C6_12 
REMARK    3  A    between atoms: C12_18  and  C7_13 
REMARK    4  A    between atoms: C13_19  and  C17_23 
ROOT
HETATM    1  C5  UNK     1       1.381  -0.975  -0.622  1.00  0.00     0.312 C 
ENDROOT
BRANCH   1   2
HETATM    2  N1  UNK     1      -0.045  -0.686  -0.478  1.00  0.00     0.095 N 
HETATM    3  C1  UNK     1      -0.452  -0.778   0.931  1.00  0.00     0.292 C 
HETATM    4  C3  UNK     1      -1.936  -0.448   1.101  1.00  0.00     0.156 C 
HETATM    5  N2  UNK     1      -2.767  -1.266   0.210  1.00  0.00    -0.343 N 
HETATM    6  C4  UNK     1      -2.331  -1.275  -1.187  1.00  0.00     0.156 C 
HETATM    7  C7  UNK     1      -3.931  -1.963   0.584  1.00  0.00     0.277 C 
HETATM    8  C2  UNK     1      -0.844  -1.604  -1.303  1.00  0.00     0.292 C 
HETATM    9  O2  UNK     1      -4.585  -2.635  -0.216  1.00  0.00    -0.265 OA
BRANCH   7  10
HETATM   10  C12 UNK     1      -4.351  -1.869   1.978  1.00  0.00     0.142 A 
HETATM   11  O3  UNK     1      -4.639  -0.637   2.473  1.00  0.00    -0.317 OA
HETATM   12  C21 UNK     1      -5.000  -0.814   3.771  1.00  0.00     0.143 A 
HETATM   13  C20 UNK     1      -4.946  -2.146   4.110  1.00  0.00     0.027 A 
HETATM   14  C18 UNK     1      -4.524  -2.831   2.946  1.00  0.00     0.045 A 
ENDBRANCH   7  10
ENDBRANCH   1   2
BRANCH   1  15
HETATM   15  C6  UNK     1       2.230   0.197  -0.272  1.00  0.00    -0.011 A 
HETATM   16  C8  UNK     1       2.606   1.166  -1.311  1.00  0.00     0.007 A 
HETATM   17  C10 UNK     1       3.403   2.254  -0.953  1.00  0.00     0.090 A 
HETATM   18  C11 UNK     1       2.210   1.063  -2.651  1.00  0.00     0.022 A 
HETATM   19  O1  UNK     1       3.843   2.430   0.374  1.00  0.00    -0.275 OA
HETATM   20  C15 UNK     1       3.805   3.220  -1.878  1.00  0.00     0.039 A 
HETATM   21  C14 UNK     1       3.504   1.533   1.375  1.00  0.00     0.288 A 
HETATM   22  O4  UNK     1       3.881   1.676   2.533  1.00  0.00    -0.260 OA
HETATM   23  C9  UNK     1       2.663   0.389   0.982  1.00  0.00     0.092 A 
HETATM   24  C16 UNK     1       3.401   3.100  -3.203  1.00  0.00     0.010 A 
HETATM   25  C13 UNK     1       2.605   2.024  -3.590  1.00  0.00    -0.058 A 
BRANCH  25  26
HETATM   26  C17 UNK     1       2.171   1.894  -5.011  1.00  0.00     0.034 C 
HETATM   27  C19 UNK     1       0.844   2.599  -5.279  1.00  0.00     0.010 C 
ENDBRANCH  25  26
ENDBRANCH   1  15
TORSDOF 4
