REMARK  5 active torsions:
REMARK  status: ('A' for Active; 'I' for Inactive)
REMARK    1  A    between atoms: C13_19  and  O4_4 
REMARK    2  A    between atoms: C17_23  and  O4_4 
REMARK    3  A    between atoms: C3_9  and  N1_6 
REMARK       I    between atoms: C7_13  and  N1_6 
REMARK    4  A    between atoms: C1_7  and  C3_9 
REMARK    5  A    between atoms: C7_13  and  C8_14 
ROOT
HETATM    1  O3  UNK     1       0.724   0.621  -1.523  1.00  0.00    -0.271 OA
HETATM    2  O5  UNK     1      -1.350  -0.133  -0.934  1.00  0.00    -0.259 OA
HETATM    3  C8  UNK     1       0.121   0.423   0.839  1.00  0.00     0.108 A 
HETATM    4  C9  UNK     1       1.326   0.868   1.212  1.00  0.00     0.037 A 
HETATM    5  C10 UNK     1       2.320   1.221   0.210  1.00  0.00     0.002 A 
HETATM    6  C11 UNK     1      -0.247   0.274  -0.587  1.00  0.00     0.304 A 
HETATM    7  C12 UNK     1       1.995   1.089  -1.136  1.00  0.00     0.123 A 
HETATM    8  C13 UNK     1       2.901   1.411  -2.145  1.00  0.00     0.103 A 
HETATM    9  C14 UNK     1       3.591   1.688   0.554  1.00  0.00     0.014 A 
HETATM   10  C15 UNK     1       4.166   1.876  -1.793  1.00  0.00     0.040 A 
HETATM   11  C16 UNK     1       4.511   2.015  -0.447  1.00  0.00     0.004 A 
ENDROOT
BRANCH   3  12
HETATM   12  C7  UNK     1      -0.813   0.092   1.922  1.00  0.00     0.258 C 
HETATM   13  O2  UNK     1      -0.763   0.682   3.000  1.00  0.00    -0.267 OA
HETATM   14  N1  UNK     1      -1.699  -0.914   1.581  1.00  0.00    -0.350 N 
HETATM   15  H12 UNK     1      -1.601  -1.391   0.689  1.00  0.00     0.163 HD
BRANCH  14  16
HETATM   16  C3  UNK     1      -2.710  -1.412   2.484  1.00  0.00     0.109 C 
HETATM   17  C6  UNK     1      -2.149  -2.544   3.335  1.00  0.00     0.035 C 
BRANCH  16  18
HETATM   18  C1  UNK     1      -3.937  -1.861   1.714  1.00  0.00     0.143 C 
HETATM   19  O1  UNK     1      -3.590  -2.941   0.830  1.00  0.00    -0.384 OA
HETATM   20  C5  UNK     1      -4.257  -2.732  -0.424  1.00  0.00     0.168 C 
HETATM   21  C4  UNK     1      -5.229  -1.589  -0.223  1.00  0.00     0.029 C 
HETATM   22  C2  UNK     1      -4.535  -0.773   0.839  1.00  0.00     0.036 C 
ENDBRANCH  16  18
ENDBRANCH  14  16
ENDBRANCH   3  12
BRANCH   8  23
HETATM   23  O4  UNK     1       2.570   1.278  -3.457  1.00  0.00    -0.349 OA
BRANCH  23  24
HETATM   24  C17 UNK     1       3.192   2.173  -4.379  1.00  0.00     0.171 C 
HETATM   25  C18 UNK     1       2.260   2.401  -5.550  1.00  0.00     0.034 C 
ENDBRANCH  23  24
ENDBRANCH   8  23
TORSDOF 5
