REMARK  2 active torsions:
REMARK  status: ('A' for Active; 'I' for Inactive)
REMARK       I    between atoms: C11_17  and  N1_6 
REMARK    1  A    between atoms: C4_10  and  N1_6 
REMARK    2  A    between atoms: C11_17  and  C12_18 
ROOT
HETATM    1  O1  UNK     1      -3.500  -1.214  -0.117  1.00  0.00    -0.275 OA
HETATM    2  O3  UNK     1      -5.634  -2.033  -0.200  1.00  0.00    -0.260 OA
HETATM    3  C1  UNK     1      -2.255  -1.335   1.981  1.00  0.00     0.004 A 
HETATM    4  C2  UNK     1      -2.334  -0.973   0.635  1.00  0.00     0.092 A 
HETATM    5  C3  UNK     1      -3.419  -1.978   2.606  1.00  0.00    -0.043 A 
HETATM    6  C4  UNK     1      -0.096  -0.095   0.656  1.00  0.00     0.037 A 
HETATM    7  C5  UNK     1      -1.274  -0.359  -0.035  1.00  0.00     0.067 A 
HETATM    8  C6  UNK     1      -1.060  -1.061   2.659  1.00  0.00     0.017 A 
HETATM    9  C7  UNK     1       0.011  -0.446   2.001  1.00  0.00     0.030 A 
HETATM   10  C8  UNK     1      -4.516  -2.195   1.866  1.00  0.00     0.090 A 
HETATM   11  C9  UNK     1      -3.366  -2.379   4.051  1.00  0.00     0.049 C 
HETATM   12  C10 UNK     1      -4.614  -1.819   0.445  1.00  0.00     0.288 A 
ENDROOT
BRANCH   6  13
HETATM   13  N1  UNK     1       0.976   0.517   0.006  1.00  0.00    -0.323 N 
HETATM   14  C11 UNK     1       1.049   0.936  -1.330  1.00  0.00     0.259 C 
HETATM   15  O2  UNK     1       0.171   0.839  -2.180  1.00  0.00    -0.267 OA
HETATM   16  H5  UNK     1       1.800   0.646   0.587  1.00  0.00     0.169 HD
BRANCH  14  17
HETATM   17  C12 UNK     1       2.347   1.534  -1.739  1.00  0.00     0.073 A 
HETATM   18  C13 UNK     1       3.101   2.203  -0.798  1.00  0.00     0.132 A 
HETATM   19  F1  UNK     1       2.694   2.325   0.473  1.00  0.00    -0.205 F 
HETATM   20  C16 UNK     1       4.318   2.763  -1.186  1.00  0.00     0.046 A 
HETATM   21  C17 UNK     1       4.753   2.643  -2.506  1.00  0.00     0.045 A 
HETATM   22  C15 UNK     1       3.970   1.961  -3.438  1.00  0.00     0.117 A 
HETATM   23  C14 UNK     1       2.753   1.400  -3.050  1.00  0.00     0.062 A 
HETATM   24  F2  UNK     1       4.387   1.845  -4.706  1.00  0.00    -0.206 F 
ENDBRANCH  14  17
ENDBRANCH   6  13
TORSDOF 2
