REMARK  1 active torsions:
REMARK  status: ('A' for Active; 'I' for Inactive)
REMARK    1  A    between atoms: C1_6  and  C4_9 
ROOT
HETATM    1  O1  UNK     1      -1.028  -1.095   2.033  1.00  0.00    -0.303 OA
HETATM    2  O2  UNK     1      -1.681   1.037  -1.419  1.00  0.00    -0.287 OA
HETATM    3  O3  UNK     1       1.369  -0.026   3.383  1.00  0.00    -0.265 OA
HETATM    4  N1  UNK     1       1.475   1.449   1.550  1.00  0.00    -0.342 N 
HETATM    5  C1  UNK     1       0.709   1.693   0.343  1.00  0.00     0.158 A 
HETATM    6  C2  UNK     1      -0.351   0.657   0.494  1.00  0.00     0.059 A 
HETATM    7  C3  UNK     1      -0.227  -0.079   1.601  1.00  0.00     0.156 A 
HETATM    8  C5  UNK     1      -1.483   0.391  -0.401  1.00  0.00     0.196 A 
HETATM    9  C6  UNK     1       0.958   0.412   2.323  1.00  0.00     0.277 A 
HETATM   10  C7  UNK     1      -2.370  -0.717   0.026  1.00  0.00     0.049 A 
HETATM   11  C8  UNK     1      -2.097  -1.403   1.220  1.00  0.00     0.090 A 
HETATM   12  C11 UNK     1      -3.471  -1.077  -0.754  1.00  0.00     0.018 A 
HETATM   13  C12 UNK     1      -2.925  -2.447   1.631  1.00  0.00     0.038 A 
HETATM   14  C15 UNK     1      -4.297  -2.123  -0.337  1.00  0.00     0.001 A 
HETATM   15  C16 UNK     1      -4.025  -2.805   0.850  1.00  0.00     0.003 A 
HETATM   16  H2  UNK     1       2.291   1.990   1.820  1.00  0.00     0.163 HD
ENDROOT
BRANCH   5  17
HETATM   17  C4  UNK     1       1.553   1.513  -0.869  1.00  0.00    -0.031 A 
HETATM   18  C10 UNK     1       2.616   0.608  -0.855  1.00  0.00     0.012 A 
HETATM   19  C14 UNK     1       3.408   0.439  -1.991  1.00  0.00     0.043 A 
HETATM   20  C17 UNK     1       3.138   1.176  -3.144  1.00  0.00     0.116 A 
HETATM   21  C13 UNK     1       2.076   2.081  -3.162  1.00  0.00     0.043 A 
HETATM   22  F1  UNK     1       3.897   1.014  -4.235  1.00  0.00    -0.206 F 
HETATM   23  C9  UNK     1       1.285   2.249  -2.025  1.00  0.00     0.012 A 
ENDBRANCH   5  17
TORSDOF 1
