REMARK  5 active torsions:
REMARK  status: ('A' for Active; 'I' for Inactive)
REMARK    1  A    between atoms: C5_11  and  N1_4 
REMARK    2  A    between atoms: C6_12  and  N2_5 
REMARK    3  A    between atoms: C5_11  and  C7_13 
REMARK    4  A    between atoms: C6_12  and  C8_14 
REMARK    5  A    between atoms: C14_20  and  C20_26 
ROOT
HETATM    1  N1  UNK     1      -1.588  -1.270  -0.451  1.00  0.00     0.096 N 
HETATM    2  N2  UNK     1      -0.103   0.379  -2.304  1.00  0.00     0.097 N 
HETATM    3  C1  UNK     1      -0.247  -0.771  -0.121  1.00  0.00     0.303 C 
HETATM    4  C2  UNK     1      -1.730  -1.437  -1.902  1.00  0.00     0.303 C 
HETATM    5  C3  UNK     1       0.040   0.545  -0.853  1.00  0.00     0.303 C 
HETATM    6  C4  UNK     1      -1.444  -0.121  -2.633  1.00  0.00     0.303 C 
ENDROOT
BRANCH   1   7
HETATM    7  C5  UNK     1      -1.860  -2.525   0.246  1.00  0.00     0.312 C 
BRANCH   7   8
HETATM    8  C7  UNK     1      -2.263  -2.306   1.663  1.00  0.00    -0.011 A 
HETATM    9  C10 UNK     1      -1.351  -2.263   2.644  1.00  0.00     0.092 A 
HETATM   10  C15 UNK     1      -1.702  -2.049   4.058  1.00  0.00     0.288 A 
HETATM   11  O2  UNK     1      -3.048  -1.888   4.349  1.00  0.00    -0.275 OA
HETATM   12  O3  UNK     1      -0.840  -2.016   4.930  1.00  0.00    -0.260 OA
HETATM   13  C12 UNK     1      -4.030  -1.928   3.338  1.00  0.00     0.090 A 
HETATM   14  C9  UNK     1      -3.682  -2.132   2.002  1.00  0.00     0.006 A 
HETATM   15  C17 UNK     1      -5.354  -1.754   3.746  1.00  0.00     0.045 A 
HETATM   16  C13 UNK     1      -4.717  -2.159   1.058  1.00  0.00     0.015 A 
HETATM   17  C18 UNK     1      -6.049  -1.987   1.452  1.00  0.00     0.007 A 
HETATM   18  C19 UNK     1      -6.367  -1.784   2.794  1.00  0.00    -0.059 A 
HETATM   19  C21 UNK     1      -7.788  -1.601   3.206  1.00  0.00     0.048 C 
ENDBRANCH   7   8
ENDBRANCH   1   7
BRANCH   2  20
HETATM   20  C6  UNK     1       0.167   1.635  -3.000  1.00  0.00     0.334 C 
BRANCH  20  21
HETATM   21  C8  UNK     1       1.645   1.828  -3.113  1.00  0.00     0.095 A 
HETATM   22  C11 UNK     1       2.495   1.423  -4.112  1.00  0.00     0.078 A 
HETATM   23  O1  UNK     1       3.754   1.823  -3.780  1.00  0.00    -0.294 OA
HETATM   24  C16 UNK     1       2.337   0.697  -5.377  1.00  0.00     0.079 C 
HETATM   25  C14 UNK     1       3.582   2.453  -2.585  1.00  0.00     0.180 A 
HETATM   26  N3  UNK     1       2.348   2.488  -2.138  1.00  0.00    -0.224 NA
BRANCH  25  27
HETATM   27  C20 UNK     1       4.780   2.985  -1.997  1.00  0.00     0.017 A 
HETATM   28  C22 UNK     1       6.004   2.835  -2.650  1.00  0.00     0.016 A 
HETATM   29  C24 UNK     1       7.167   3.352  -2.078  1.00  0.00     0.001 A 
HETATM   30  C26 UNK     1       7.106   4.017  -0.854  1.00  0.00     0.000 A 
HETATM   31  C25 UNK     1       5.883   4.167  -0.201  1.00  0.00     0.001 A 
HETATM   32  C23 UNK     1       4.720   3.650  -0.772  1.00  0.00     0.016 A 
ENDBRANCH  25  27
ENDBRANCH  20  21
ENDBRANCH   2  20
TORSDOF 5
