REMARK  6 active torsions:
REMARK  status: ('A' for Active; 'I' for Inactive)
REMARK    1  A    between atoms: C1_7  and  O1_4 
REMARK    2  A    between atoms: C4_10  and  O1_4 
REMARK    3  A    between atoms: C3_9  and  O2_5 
REMARK    4  A    between atoms: C2_8  and  C9_15 
REMARK    5  A    between atoms: C4_10  and  C6_12 
REMARK    6  A    between atoms: C10_16  and  C13_19 
ROOT
HETATM    1  N1  UNK     1      -2.466   1.198   2.222  1.00  0.00    -0.191 NA
HETATM    2  C9  UNK     1      -2.370  -1.905   0.721  1.00  0.00     0.036 C 
HETATM    3  C10 UNK     1      -3.111  -1.257   1.659  1.00  0.00     0.055 C 
HETATM    4  C23 UNK     1      -2.747   0.102   1.964  1.00  0.00     0.100 C 
ENDROOT
BRANCH   3   5
HETATM    5  C13 UNK     1      -4.241  -1.855   2.353  1.00  0.00    -0.015 A 
HETATM    6  C17 UNK     1      -5.525  -1.748   1.819  1.00  0.00     0.013 A 
HETATM    7  C19 UNK     1      -6.608  -2.321   2.485  1.00  0.00     0.001 A 
HETATM    8  C21 UNK     1      -6.408  -3.002   3.685  1.00  0.00     0.000 A 
HETATM    9  C20 UNK     1      -5.124  -3.110   4.220  1.00  0.00     0.001 A 
HETATM   10  C18 UNK     1      -4.040  -2.536   3.554  1.00  0.00     0.013 A 
ENDBRANCH   3   5
BRANCH   2  11
HETATM   11  C2  UNK     1      -1.227  -1.338  -0.009  1.00  0.00    -0.015 A 
HETATM   12  C5  UNK     1       0.029  -1.489   0.566  1.00  0.00     0.052 A 
HETATM   13  C3  UNK     1       1.150  -0.971  -0.084  1.00  0.00     0.102 A 
HETATM   14  C1  UNK     1       1.005  -0.306  -1.302  1.00  0.00     0.103 A 
HETATM   15  C7  UNK     1      -0.261  -0.160  -1.870  1.00  0.00     0.059 A 
HETATM   16  C8  UNK     1      -1.381  -0.679  -1.221  1.00  0.00     0.024 A 
HETATM   17 Br1  UNK     1      -3.075  -0.445  -2.050  1.00  0.00    -0.050 Br
BRANCH  13  18
HETATM   18  O2  UNK     1       2.380  -1.119   0.482  1.00  0.00    -0.353 OA
HETATM   19  C22 UNK     1       2.815  -0.090   1.368  1.00  0.00     0.210 C 
ENDBRANCH  13  18
BRANCH  14  20
HETATM   20  O1  UNK     1       2.092   0.204  -1.945  1.00  0.00    -0.344 OA
BRANCH  20  21
HETATM   21  C4  UNK     1       1.883   1.361  -2.752  1.00  0.00     0.216 C 
BRANCH  21  22
HETATM   22  C6  UNK     1       3.150   2.164  -2.793  1.00  0.00    -0.012 A 
HETATM   23  C11 UNK     1       3.411   3.158  -1.853  1.00  0.00     0.044 A 
HETATM   24 Cl1  UNK     1       2.292   3.520  -0.590  1.00  0.00    -0.084 Cl
HETATM   25  C14 UNK     1       4.600   3.883  -1.924  1.00  0.00     0.048 A 
HETATM   26  C16 UNK     1       5.523   3.613  -2.934  1.00  0.00     0.035 A 
HETATM   27  C15 UNK     1       5.258   2.616  -3.873  1.00  0.00     0.024 A 
HETATM   28 Cl2  UNK     1       6.991   4.507  -3.022  1.00  0.00    -0.084 Cl
HETATM   29  C12 UNK     1       4.068   1.890  -3.802  1.00  0.00     0.013 A 
ENDBRANCH  21  22
ENDBRANCH  20  21
ENDBRANCH  14  20
ENDBRANCH   2  11
TORSDOF 6
