REMARK  4 active torsions:
REMARK  status: ('A' for Active; 'I' for Inactive)
REMARK    1  A    between atoms: C12_16  and  O1_1 
REMARK    2  A    between atoms: C15_19  and  O1_1 
REMARK    3  A    between atoms: C1_5  and  C2_6 
REMARK    4  A    between atoms: C10_14  and  C12_16 
ROOT
HETATM    1  O1  UNK     1       0.034  -0.353  -0.617  1.00  0.00    -0.275 OA
ENDROOT
BRANCH   1   2
HETATM    2  C12 UNK     1       0.175   1.037  -0.623  1.00  0.00     0.298 C 
HETATM    3  O3  UNK     1      -0.650   1.837  -0.207  1.00  0.00    -0.259 OA
BRANCH   2   4
HETATM    4  C10 UNK     1       1.482   1.443  -1.200  1.00  0.00     0.040 A 
HETATM    5  C8  UNK     1       2.078   2.603  -0.750  1.00  0.00     0.018 A 
HETATM    6  C6  UNK     1       3.306   2.983  -1.290  1.00  0.00     0.009 A 
HETATM    7  C2  UNK     1       3.912   2.194  -2.269  1.00  0.00    -0.051 A 
HETATM    8  C7  UNK     1       3.288   1.026  -2.707  1.00  0.00     0.009 A 
HETATM    9  C9  UNK     1       2.060   0.646  -2.167  1.00  0.00     0.018 A 
BRANCH   7  10
HETATM   10  C1  UNK     1       5.225   2.601  -2.847  1.00  0.00    -0.024 C 
HETATM   11  C3  UNK     1       6.325   2.692  -1.744  1.00  0.00     0.019 C 
HETATM   12  C4  UNK     1       5.132   3.999  -3.534  1.00  0.00     0.019 C 
HETATM   13  C5  UNK     1       5.806   1.640  -3.937  1.00  0.00     0.019 C 
ENDBRANCH   7  10
ENDBRANCH   2   4
ENDBRANCH   1   2
BRANCH   1  14
HETATM   14  C15 UNK     1      -1.145  -0.795  -0.101  1.00  0.00     0.082 A 
HETATM   15  C16 UNK     1      -1.253  -1.068   1.259  1.00  0.00     0.075 A 
HETATM   16  C13 UNK     1      -2.471  -1.521   1.768  1.00  0.00     0.092 A 
HETATM   17  C11 UNK     1      -3.592  -1.712   0.959  1.00  0.00     0.004 A 
HETATM   18  O2  UNK     1      -2.519  -1.779   3.152  1.00  0.00    -0.275 OA
HETATM   19  C14 UNK     1      -4.835  -2.191   1.580  1.00  0.00    -0.043 A 
HETATM   20  C17 UNK     1      -3.463  -1.432  -0.408  1.00  0.00     0.017 A 
HETATM   21  C19 UNK     1      -4.851  -2.429   2.899  1.00  0.00     0.090 A 
HETATM   22  C20 UNK     1      -6.058  -2.407   0.737  1.00  0.00     0.049 C 
HETATM   23  C21 UNK     1      -3.677  -2.232   3.766  1.00  0.00     0.288 A 
HETATM   24  O4  UNK     1      -3.730  -2.460   4.969  1.00  0.00    -0.260 OA
HETATM   25  C18 UNK     1      -2.248  -0.977  -0.933  1.00  0.00     0.038 A 
ENDBRANCH   1  14
TORSDOF 4
