REMARK  3 active torsions:
REMARK  status: ('A' for Active; 'I' for Inactive)
REMARK    1  A    between atoms: C11_15  and  O2_2 
REMARK    2  A    between atoms: C2_6  and  C6_10 
REMARK    3  A    between atoms: C5_9  and  C6_10 
ROOT
HETATM    1  O1  UNK     1      -0.118  -0.325   2.705  1.00  0.00    -0.321 OA
HETATM    2  O3  UNK     1      -0.154   0.106  -1.355  1.00  0.00    -0.286 OA
HETATM    3  C1  UNK     1      -1.293  -0.590   0.593  1.00  0.00     0.051 A 
HETATM    4  C2  UNK     1       1.013   0.382   0.687  1.00  0.00     0.088 A 
HETATM    5  C3  UNK     1      -1.220  -0.712   1.982  1.00  0.00     0.089 A 
HETATM    6  C4  UNK     1      -0.146  -0.022  -0.139  1.00  0.00     0.201 A 
HETATM    7  C8  UNK     1      -2.440  -1.001  -0.091  1.00  0.00     0.055 A 
HETATM    8  C9  UNK     1       0.944   0.206   2.011  1.00  0.00     0.162 A 
HETATM    9  C10 UNK     1      -2.294  -1.247   2.693  1.00  0.00     0.041 A 
HETATM   10  C11 UNK     1      -3.513  -1.536   0.624  1.00  0.00     0.069 A 
HETATM   11  C13 UNK     1      -3.440  -1.659   2.013  1.00  0.00     0.039 A 
ENDROOT
BRANCH   4  12
HETATM   12  C6  UNK     1       2.236   0.965   0.136  1.00  0.00     0.198 C 
HETATM   13  O4  UNK     1       3.177   1.264   0.873  1.00  0.00    -0.286 OA
BRANCH  12  14
HETATM   14  C5  UNK     1       2.345   1.175  -1.332  1.00  0.00     0.021 A 
HETATM   15  C12 UNK     1       2.870   0.147  -2.090  1.00  0.00     0.016 A 
HETATM   16  C16 UNK     1       2.984   0.318  -3.470  1.00  0.00     0.001 A 
HETATM   17  C17 UNK     1       2.571   1.512  -4.061  1.00  0.00     0.001 A 
HETATM   18  C14 UNK     1       2.044   2.535  -3.273  1.00  0.00     0.007 A 
HETATM   19  C7  UNK     1       1.930   2.364  -1.893  1.00  0.00    -0.048 A 
HETATM   20  C15 UNK     1       1.362   3.476  -1.072  1.00  0.00     0.049 C 
ENDBRANCH  12  14
ENDBRANCH   4  12
BRANCH  10  21
HETATM   21  O2  UNK     1      -4.635  -1.939  -0.034  1.00  0.00    -0.356 OA
HETATM   22  C18 UNK     1      -5.694  -2.475   0.757  1.00  0.00     0.210 C 
ENDBRANCH  10  21
TORSDOF 3
