REMARK  2 active torsions:
REMARK  status: ('A' for Active; 'I' for Inactive)
REMARK    1  A    between atoms: C8_14  and  N1_5 
REMARK    2  A    between atoms: C1_7  and  C4_10 
ROOT
HETATM    1  O1  UNK     1       0.944   0.870   1.343  1.00  0.00    -0.291 OA
HETATM    2  O2  UNK     1       1.100  -0.003  -2.745  1.00  0.00    -0.274 OA
HETATM    3  O4  UNK     1      -0.512  -1.592  -2.471  1.00  0.00    -0.259 OA
HETATM    4  N2  UNK     1      -1.937  -2.304   3.539  1.00  0.00    -0.191 NA
HETATM    5  C1  UNK     1      -0.899  -1.097   0.338  1.00  0.00     0.110 C 
HETATM    6  C2  UNK     1       0.117  -0.370  -0.531  1.00  0.00     0.066 A 
HETATM    7  C3  UNK     1       0.940   0.548  -0.002  1.00  0.00     0.104 A 
HETATM    8  C5  UNK     1      -0.653  -0.842   1.826  1.00  0.00     0.086 C 
HETATM    9  C6  UNK     1       1.894   1.276  -0.834  1.00  0.00     0.033 A 
HETATM   10  C7  UNK     1       0.191  -0.718  -1.974  1.00  0.00     0.298 A 
HETATM   11  C8  UNK     1       0.216   0.103   2.250  1.00  0.00     0.159 C 
HETATM   12  C9  UNK     1       1.943   0.980  -2.193  1.00  0.00     0.092 A 
HETATM   13  C12 UNK     1       2.762   2.259  -0.341  1.00  0.00     0.017 A 
HETATM   14  C13 UNK     1       2.820   1.628  -3.063  1.00  0.00     0.038 A 
HETATM   15  C15 UNK     1       3.647   2.918  -1.201  1.00  0.00     0.001 A 
HETATM   16  C16 UNK     1      -1.362  -1.650   2.772  1.00  0.00     0.100 C 
HETATM   17  C17 UNK     1       3.676   2.603  -2.559  1.00  0.00     0.003 A 
ENDROOT
BRANCH   5  18
HETATM   18  C4  UNK     1      -2.281  -0.696  -0.030  1.00  0.00    -0.020 A 
HETATM   19  C10 UNK     1      -2.828   0.598   0.050  1.00  0.00     0.034 A 
HETATM   20  C14 UNK     1      -4.125   0.482  -0.393  1.00  0.00     0.142 A 
HETATM   21  O3  UNK     1      -4.399  -0.804  -0.737  1.00  0.00    -0.334 OA
HETATM   22  C11 UNK     1      -3.264  -1.517  -0.511  1.00  0.00     0.149 A 
ENDBRANCH   5  18
BRANCH  11  23
HETATM   23  N1  UNK     1       0.476   0.406   3.559  1.00  0.00    -0.379 N 
HETATM   24  H10 UNK     1       0.007  -0.084   4.310  1.00  0.00     0.158 HD
HETATM   25  H9  UNK     1       1.147   1.133   3.767  1.00  0.00     0.158 HD
ENDBRANCH  11  23
TORSDOF 2
