REMARK  4 active torsions:
REMARK  status: ('A' for Active; 'I' for Inactive)
REMARK    1  A    between atoms: C18_25  and  O4_5 
REMARK    2  A    between atoms: C1_8  and  N1_7 
REMARK       I    between atoms: C8_15  and  N1_7 
REMARK    3  A    between atoms: C4_11  and  C8_15 
REMARK    4  A    between atoms: C18_25  and  C9_16 
ROOT
HETATM    1  O2  UNK     1       0.485  -0.110   1.257  1.00  0.00    -0.267 OA
HETATM    2  N1  UNK     1      -1.018  -0.338  -0.548  1.00  0.00    -0.322 N 
HETATM    3  C8  UNK     1       0.132   0.096   0.097  1.00  0.00     0.262 C 
HETATM    4  H2  UNK     1      -1.046  -0.243  -1.560  1.00  0.00     0.169 HD
ENDROOT
BRANCH   3   5
HETATM    5  C4  UNK     1       0.986   0.897  -0.788  1.00  0.00     0.108 A 
HETATM    6  C12 UNK     1       0.428   1.720  -1.885  1.00  0.00     0.304 A 
HETATM    7  O1  UNK     1       1.340   2.436  -2.655  1.00  0.00    -0.274 OA
HETATM    8  O3  UNK     1      -0.777   1.772  -2.107  1.00  0.00    -0.259 OA
HETATM    9  C5  UNK     1       2.725   2.385  -2.407  1.00  0.00     0.089 A 
HETATM   10  C15 UNK     1       3.559   3.137  -3.231  1.00  0.00     0.040 A 
HETATM   11  C3  UNK     1       3.229   1.605  -1.371  1.00  0.00     0.001 A 
HETATM   12  C17 UNK     1       4.934   3.106  -3.010  1.00  0.00     0.026 A 
HETATM   13  C16 UNK     1       5.458   2.328  -1.975  1.00  0.00     0.035 A 
HETATM   14  C14 UNK     1       4.609   1.579  -1.156  1.00  0.00     0.038 A 
HETATM   15 Cl1  UNK     1       7.159   2.294  -1.706  1.00  0.00    -0.084 Cl
HETATM   16  C6  UNK     1       2.302   0.844  -0.548  1.00  0.00     0.037 A 
ENDBRANCH   3   5
BRANCH   2  17
HETATM   17  C1  UNK     1      -2.033  -1.118   0.013  1.00  0.00     0.042 A 
HETATM   18  C2  UNK     1      -2.782  -1.990  -0.775  1.00  0.00    -0.035 A 
HETATM   19  C10 UNK     1      -3.792  -2.759  -0.197  1.00  0.00     0.010 A 
HETATM   20  C13 UNK     1      -2.524  -2.122  -2.241  1.00  0.00     0.050 C 
HETATM   21  C11 UNK     1      -4.053  -2.655   1.169  1.00  0.00     0.018 A 
HETATM   22  C9  UNK     1      -3.304  -1.782   1.957  1.00  0.00     0.041 A 
HETATM   23  C7  UNK     1      -2.294  -1.013   1.379  1.00  0.00     0.047 A 
BRANCH  22  24
HETATM   24  C18 UNK     1      -3.576  -1.673   3.381  1.00  0.00     0.293 C 
HETATM   25  O5  UNK     1      -2.745  -1.394   4.248  1.00  0.00    -0.259 OA
BRANCH  24  26
HETATM   26  O4  UNK     1      -4.897  -1.921   3.654  1.00  0.00    -0.323 OA
HETATM   27  C19 UNK     1      -5.287  -1.842   5.030  1.00  0.00     0.213 C 
ENDBRANCH  24  26
ENDBRANCH  22  24
ENDBRANCH   2  17
TORSDOF 4
