REMARK  4 active torsions:
REMARK  status: ('A' for Active; 'I' for Inactive)
REMARK    1  A    between atoms: C10_15  and  O2_2 
REMARK    2  A    between atoms: C17_22  and  O2_2 
REMARK    3  A    between atoms: C5_10  and  N1_5 
REMARK       I    between atoms: C6_11  and  N1_5 
REMARK    4  A    between atoms: C2_7  and  C6_11 
ROOT
HETATM    1  O3  UNK     1       0.639   1.795   0.538  1.00  0.00    -0.267 OA
HETATM    2  N1  UNK     1       0.012   0.245  -1.120  1.00  0.00    -0.323 N 
HETATM    3  C6  UNK     1       0.805   1.224  -0.539  1.00  0.00     0.262 C 
HETATM    4  H3  UNK     1       0.301  -0.145  -2.014  1.00  0.00     0.169 HD
ENDROOT
BRANCH   2   5
HETATM    5  C5  UNK     1      -1.177  -0.324  -0.601  1.00  0.00     0.035 A 
HETATM    6  C11 UNK     1      -1.654   0.106   0.625  1.00  0.00     0.032 A 
HETATM    7  C15 UNK     1      -2.824  -0.455   1.137  1.00  0.00     0.039 A 
HETATM    8  C10 UNK     1      -3.500  -1.438   0.414  1.00  0.00     0.076 A 
HETATM    9  C16 UNK     1      -3.005  -1.860  -0.820  1.00  0.00     0.039 A 
HETATM   10  C12 UNK     1      -1.835  -1.299  -1.332  1.00  0.00     0.032 A 
BRANCH   8  11
HETATM   11  O2  UNK     1      -4.642  -1.986   0.912  1.00  0.00    -0.311 OA
BRANCH  11  12
HETATM   12  C17 UNK     1      -4.650  -2.353   2.248  1.00  0.00     0.076 A 
HETATM   13  C18 UNK     1      -3.567  -3.041   2.764  1.00  0.00     0.037 A 
HETATM   14  C20 UNK     1      -3.576  -3.412   4.108  1.00  0.00     0.003 A 
HETATM   15  C22 UNK     1      -4.668  -3.089   4.914  1.00  0.00     0.000 A 
HETATM   16  C21 UNK     1      -5.751  -2.395   4.374  1.00  0.00     0.003 A 
HETATM   17  C19 UNK     1      -5.742  -2.024   3.030  1.00  0.00     0.037 A 
ENDBRANCH  11  12
ENDBRANCH   8  11
ENDBRANCH   2   5
BRANCH   3  18
HETATM   18  C2  UNK     1       1.964   1.565  -1.372  1.00  0.00     0.108 A 
HETATM   19  C4  UNK     1       3.061   1.971  -0.723  1.00  0.00     0.037 A 
HETATM   20  C1  UNK     1       4.261   2.331  -1.463  1.00  0.00    -0.001 A 
HETATM   21  C3  UNK     1       4.246   2.245  -2.851  1.00  0.00     0.089 A 
HETATM   22  C7  UNK     1       5.428   2.760  -0.826  1.00  0.00     0.014 A 
HETATM   23  O1  UNK     1       3.088   1.817  -3.529  1.00  0.00    -0.274 OA
HETATM   24  C9  UNK     1       5.361   2.576  -3.619  1.00  0.00     0.038 A 
HETATM   25  C8  UNK     1       1.926   1.466  -2.849  1.00  0.00     0.304 A 
HETATM   26  O4  UNK     1       0.922   1.094  -3.448  1.00  0.00    -0.259 OA
HETATM   27  C14 UNK     1       6.521   3.003  -2.976  1.00  0.00     0.003 A 
HETATM   28  C13 UNK     1       6.555   3.095  -1.583  1.00  0.00     0.001 A 
ENDBRANCH   3  18
TORSDOF 4
