REMARK  6 active torsions:
REMARK  status: ('A' for Active; 'I' for Inactive)
REMARK    1  A    between atoms: C14_22  and  O3_4 
REMARK    2  A    between atoms: C20_28  and  O3_4 
REMARK    3  A    between atoms: C29_37  and  O6_7 
REMARK    4  A    between atoms: C12_20  and  C6_14 
REMARK    5  A    between atoms: C10_18  and  C14_22 
REMARK    6  A    between atoms: C20_28  and  C24_32 
ROOT
HETATM    1  O1  UNK     1      -2.339  -0.279   3.309  1.00  0.00    -0.293 OA
HETATM    2  N1  UNK     1      -3.224  -2.185  -0.936  1.00  0.00    -0.362 N 
HETATM    3  C1  UNK     1      -4.417  -3.142   2.510  1.00  0.00    -0.036 C 
HETATM    4  C2  UNK     1      -3.900  -3.410   1.083  1.00  0.00     0.067 C 
HETATM    5  C3  UNK     1      -3.312  -2.460   3.329  1.00  0.00     0.092 C 
HETATM    6  C4  UNK     1      -3.224  -2.222   0.446  1.00  0.00     0.021 C 
HETATM    7  C5  UNK     1      -2.676  -1.211   1.153  1.00  0.00     0.024 C 
HETATM    8  C6  UNK     1      -1.999  -0.033   0.454  1.00  0.00     0.104 C 
HETATM    9  C7  UNK     1      -2.756  -1.228   2.646  1.00  0.00     0.159 C 
HETATM   10  C8  UNK     1      -4.788  -4.480   3.174  1.00  0.00     0.015 C 
HETATM   11  C9  UNK     1      -5.683  -2.259   2.474  1.00  0.00     0.015 C 
HETATM   12  C10 UNK     1      -2.250  -0.031  -1.056  1.00  0.00     0.052 C 
HETATM   13  C11 UNK     1      -2.806  -1.094  -1.682  1.00  0.00     0.018 C 
HETATM   14  C13 UNK     1      -3.037  -1.211  -3.164  1.00  0.00     0.069 C 
HETATM   15  H12 UNK     1      -3.644  -2.962  -1.431  1.00  0.00     0.165 HD
ENDROOT
BRANCH   8  16
HETATM   16  C12 UNK     1      -0.516  -0.032   0.735  1.00  0.00     0.029 A 
HETATM   17  C15 UNK     1       0.068   1.126   1.457  1.00  0.00     0.194 A 
HETATM   18  O5  UNK     1      -0.614   2.072   1.829  1.00  0.00    -0.287 OA
HETATM   19  C17 UNK     1       1.520   1.077   1.705  1.00  0.00     0.050 A 
HETATM   20  C18 UNK     1       2.248  -0.027   1.259  1.00  0.00     0.089 A 
HETATM   21  C19 UNK     1       2.164   2.119   2.377  1.00  0.00     0.042 A 
HETATM   22  O2  UNK     1       1.667  -1.078   0.594  1.00  0.00    -0.321 OA
HETATM   23  C21 UNK     1       3.623  -0.094   1.482  1.00  0.00     0.040 A 
HETATM   24  C16 UNK     1       0.314  -1.018   0.370  1.00  0.00     0.154 A 
HETATM   25  C23 UNK     1       4.268   0.945   2.154  1.00  0.00     0.026 A 
HETATM   26  C22 UNK     1       3.540   2.049   2.600  1.00  0.00     0.035 A 
HETATM   27 Cl1  UNK     1       4.343   3.327   3.427  1.00  0.00    -0.084 Cl
ENDBRANCH   8  16
BRANCH  12  28
HETATM   28  C14 UNK     1      -1.911   1.204  -1.782  1.00  0.00     0.292 C 
HETATM   29  O4  UNK     1      -2.684   2.135  -1.916  1.00  0.00    -0.259 OA
BRANCH  28  30
HETATM   30  O3  UNK     1      -0.640   1.096  -2.240  1.00  0.00    -0.313 OA
BRANCH  30  31
HETATM   31  C20 UNK     1      -0.161   2.228  -2.972  1.00  0.00     0.217 C 
BRANCH  31  32
HETATM   32  C24 UNK     1       1.250   1.965  -3.412  1.00  0.00    -0.034 A 
HETATM   33  C26 UNK     1       2.307   2.333  -2.588  1.00  0.00     0.012 A 
HETATM   34  C28 UNK     1       3.618   2.088  -2.997  1.00  0.00     0.037 A 
HETATM   35  C29 UNK     1       3.863   1.477  -4.226  1.00  0.00     0.068 A 
HETATM   36  C27 UNK     1       2.796   1.111  -5.048  1.00  0.00     0.037 A 
HETATM   37  C25 UNK     1       1.485   1.356  -4.639  1.00  0.00     0.012 A 
BRANCH  35  38
HETATM   38  O6  UNK     1       5.142   1.238  -4.626  1.00  0.00    -0.356 OA
HETATM   39  C30 UNK     1       6.185   1.638  -3.738  1.00  0.00     0.210 C 
ENDBRANCH  35  38
ENDBRANCH  31  32
ENDBRANCH  30  31
ENDBRANCH  28  30
ENDBRANCH  12  28
TORSDOF 6
