REMARK  3 active torsions:
REMARK  status: ('A' for Active; 'I' for Inactive)
REMARK    1  A    between atoms: C5_9  and  C9_13 
REMARK    2  A    between atoms: C10_14  and  C9_13 
REMARK    3  A    between atoms: C11_15  and  C12_16 
ROOT
HETATM    1  O3  UNK     1      -0.985  -0.599  -2.886  1.00  0.00    -0.288 OA
HETATM    2  C9  UNK     1      -0.447  -0.163  -1.857  1.00  0.00     0.182 C 
ENDROOT
BRANCH   2   3
HETATM    3  C10 UNK     1      -1.059  -0.419  -0.508  1.00  0.00     0.056 C 
HETATM    4  C12 UNK     1      -2.195  -1.124  -0.397  1.00  0.00     0.015 C 
BRANCH   4   5
HETATM    5  C11 UNK     1      -2.876  -1.414   0.877  1.00  0.00    -0.036 A 
HETATM    6  C14 UNK     1      -4.215  -1.770   0.865  1.00  0.00     0.012 A 
HETATM    7  C16 UNK     1      -4.860  -2.045   2.071  1.00  0.00     0.020 A 
HETATM    8  C17 UNK     1      -4.157  -1.960   3.272  1.00  0.00     0.011 A 
HETATM    9 Br1  UNK     1      -5.031  -2.332   4.906  1.00  0.00    -0.051 Br
HETATM   10  C15 UNK     1      -2.809  -1.600   3.268  1.00  0.00     0.020 A 
HETATM   11  C13 UNK     1      -2.164  -1.326   2.062  1.00  0.00     0.012 A 
ENDBRANCH   4   5
ENDBRANCH   2   3
BRANCH   2  12
HETATM   12  C5  UNK     1       0.769   0.632  -1.930  1.00  0.00     0.017 A 
HETATM   13  C6  UNK     1       1.678   0.614  -0.872  1.00  0.00     0.055 A 
HETATM   14  C1  UNK     1       2.848   1.370  -0.949  1.00  0.00     0.103 A 
HETATM   15  O1  UNK     1       3.711   1.294   0.113  1.00  0.00    -0.346 OA
HETATM   16  C2  UNK     1       3.093   2.166  -2.070  1.00  0.00     0.102 A 
HETATM   17  C3  UNK     1       5.003   1.814  -0.213  1.00  0.00     0.202 C 
HETATM   18  C4  UNK     1       4.869   3.140  -0.936  1.00  0.00     0.202 C 
HETATM   19  O2  UNK     1       4.207   2.956  -2.191  1.00  0.00    -0.346 OA
HETATM   20  C7  UNK     1       2.191   2.173  -3.133  1.00  0.00     0.040 A 
HETATM   21  C8  UNK     1       1.028   1.406  -3.061  1.00  0.00     0.018 A 
ENDBRANCH   2  12
TORSDOF 3
