REMARK  3 active torsions:
REMARK  status: ('A' for Active; 'I' for Inactive)
REMARK    1  A    between atoms: C9_14  and  O2_2 
REMARK    2  A    between atoms: C3_8  and  N1_4 
REMARK    3  A    between atoms: C1_6  and  C3_8 
ROOT
HETATM    1  O1  UNK     1       2.253   0.565   1.224  1.00  0.00    -0.275 OA
HETATM    2  O3  UNK     1       1.904   0.261   3.464  1.00  0.00    -0.260 OA
HETATM    3  C1  UNK     1      -0.557   0.634   0.897  1.00  0.00    -0.021 A 
HETATM    4  C2  UNK     1       0.329   0.786  -0.265  1.00  0.00     0.009 A 
HETATM    5  C4  UNK     1       1.710   0.746  -0.063  1.00  0.00     0.091 A 
HETATM    6  C5  UNK     1      -0.131   0.970  -1.576  1.00  0.00     0.052 A 
HETATM    7  C6  UNK     1       2.144   1.064  -2.406  1.00  0.00    -0.026 A 
HETATM    8  C7  UNK     1      -0.012   0.463   2.110  1.00  0.00     0.092 A 
HETATM    9  C8  UNK     1       2.621   0.883  -1.112  1.00  0.00     0.047 A 
HETATM   10  C9  UNK     1       0.770   1.108  -2.638  1.00  0.00     0.072 A 
HETATM   11  C10 UNK     1       1.442   0.420   2.339  1.00  0.00     0.288 A 
HETATM   12  C13 UNK     1       3.114   1.212  -3.531  1.00  0.00     0.051 C 
ENDROOT
BRANCH   3  13
HETATM   13  C3  UNK     1      -2.046   0.673   0.714  1.00  0.00     0.168 C 
BRANCH  13  14
HETATM   14  N1  UNK     1      -2.588  -0.655   0.464  1.00  0.00    -0.346 N 
HETATM   15  C11 UNK     1      -2.747  -1.234  -0.754  1.00  0.00     0.111 A 
HETATM   16  C14 UNK     1      -3.285  -2.468  -0.479  1.00  0.00     0.135 A 
HETATM   17  N2  UNK     1      -3.453  -2.645   0.872  1.00  0.00    -0.255 NA
HETATM   18  C12 UNK     1      -3.020  -1.528   1.412  1.00  0.00     0.209 A 
ENDBRANCH  13  14
ENDBRANCH   3  13
BRANCH  10  19
HETATM   19  O2  UNK     1       0.284   1.288  -3.899  1.00  0.00    -0.360 OA
HETATM   20  H12 UNK     1       1.005   1.370  -4.543  1.00  0.00     0.217 HD
ENDBRANCH  10  19
TORSDOF 3
