REMARK  3 active torsions:
REMARK  status: ('A' for Active; 'I' for Inactive)
REMARK    1  A    between atoms: C14_20  and  O4_4 
REMARK    2  A    between atoms: C3_9  and  N1_6 
REMARK    3  A    between atoms: C12_18  and  C14_20 
ROOT
HETATM    1  O2  UNK     1       1.620   1.128   0.525  1.00  0.00    -0.274 OA
HETATM    2  O3  UNK     1       3.590   2.255   0.256  1.00  0.00    -0.259 OA
HETATM    3  C3  UNK     1      -1.545  -0.719   0.271  1.00  0.00     0.033 A 
HETATM    4  C6  UNK     1      -0.446  -0.054   0.811  1.00  0.00     0.067 A 
HETATM    5  C7  UNK     1      -1.666  -0.861  -1.113  1.00  0.00     0.030 A 
HETATM    6  C8  UNK     1       0.521   0.461  -0.050  1.00  0.00     0.091 A 
HETATM    7  C9  UNK     1       0.418   0.330  -1.431  1.00  0.00    -0.001 A 
HETATM    8  C10 UNK     1      -0.687  -0.338  -1.964  1.00  0.00     0.016 A 
HETATM    9  C11 UNK     1       1.464   0.891  -2.272  1.00  0.00     0.039 A 
HETATM   10  C12 UNK     1       2.506   1.524  -1.719  1.00  0.00     0.114 A 
HETATM   11  C13 UNK     1       2.636   1.676  -0.253  1.00  0.00     0.305 A 
ENDROOT
BRANCH   3  12
HETATM   12  N1  UNK     1      -2.528  -1.245   1.115  1.00  0.00    -0.377 N 
HETATM   13  C1  UNK     1      -3.905  -0.753   0.968  1.00  0.00     0.149 C 
HETATM   14  C4  UNK     1      -4.878  -1.759   1.571  1.00  0.00     0.187 C 
HETATM   15  O1  UNK     1      -4.525  -2.048   2.923  1.00  0.00    -0.388 OA
HETATM   16  C5  UNK     1      -3.235  -2.656   2.986  1.00  0.00     0.187 C 
HETATM   17  C2  UNK     1      -2.168  -1.700   2.463  1.00  0.00     0.149 C 
ENDBRANCH   3  12
BRANCH  10  18
HETATM   18  C14 UNK     1       3.508   2.057  -2.650  1.00  0.00     0.182 C 
HETATM   19  O5  UNK     1       3.265   2.437  -3.779  1.00  0.00    -0.646 OA
BRANCH  18  20
HETATM   20  O4  UNK     1       4.719   2.054  -2.056  1.00  0.00    -0.772 OA
HETATM   21  H13 UNK     1       5.420   2.403  -2.646  1.00  0.00     0.167 HD
ENDBRANCH  18  20
ENDBRANCH  10  18
TORSDOF 3
