REMARK  2 active torsions:
REMARK  status: ('A' for Active; 'I' for Inactive)
REMARK    1  A    between atoms: C7_13  and  O2_3 
REMARK    2  A    between atoms: C9_15  and  O4_5 
ROOT
HETATM    1  S1  UNK     1      -1.794  -2.736   1.177  1.00  0.00    -0.079 SA
HETATM    2  O1  UNK     1       1.437   0.713   0.900  1.00  0.00    -0.318 OA
HETATM    3  O3  UNK     1      -1.465  -0.398  -1.749  1.00  0.00    -0.286 OA
HETATM    4  N1  UNK     1      -2.953  -0.446   1.488  1.00  0.00    -0.245 NA
HETATM    5  C1  UNK     1       0.641   0.596  -1.392  1.00  0.00     0.052 A 
HETATM    6  C2  UNK     1       1.593   0.960  -0.440  1.00  0.00     0.125 A 
HETATM    7  C3  UNK     1      -0.710  -0.346   0.509  1.00  0.00     0.073 A 
HETATM    8  C4  UNK     1      -0.592  -0.083  -0.951  1.00  0.00     0.200 A 
HETATM    9  C5  UNK     1      -1.844  -1.019   1.055  1.00  0.00     0.114 A 
HETATM   10  C6  UNK     1       0.855   0.875  -2.744  1.00  0.00     0.021 A 
HETATM   11  C7  UNK     1       2.765   1.606  -0.836  1.00  0.00     0.134 A 
HETATM   12  C8  UNK     1       0.292   0.065   1.299  1.00  0.00     0.161 A 
HETATM   13  C9  UNK     1       2.981   1.886  -2.185  1.00  0.00     0.101 A 
HETATM   14  C10 UNK     1       2.028   1.520  -3.137  1.00  0.00     0.040 A 
HETATM   15  C11 UNK     1      -3.821  -1.419   1.944  1.00  0.00     0.038 A 
HETATM   16  C12 UNK     1      -3.369  -2.719   1.857  1.00  0.00     0.078 A 
HETATM   17  C13 UNK     1      -5.132  -0.996   2.475  1.00  0.00     0.071 C 
ENDROOT
BRANCH  11  18
HETATM   18  O2  UNK     1       3.699   1.966   0.090  1.00  0.00    -0.356 OA
HETATM   19  H8  UNK     1       3.381   1.694   0.968  1.00  0.00     0.218 HD
ENDBRANCH  11  18
BRANCH  13  20
HETATM   20  O4  UNK     1       4.120   2.517  -2.589  1.00  0.00    -0.358 OA
HETATM   21  H9  UNK     1       4.096   2.626  -3.555  1.00  0.00     0.217 HD
ENDBRANCH  13  20
TORSDOF 2
