REMARK  3 active torsions:
REMARK  status: ('A' for Active; 'I' for Inactive)
REMARK    1  A    between atoms: C5_10  and  N1_4 
REMARK       I    between atoms: C6_11  and  N2_5 
REMARK    2  A    between atoms: C5_10  and  C7_12 
REMARK    3  A    between atoms: C6_11  and  C8_13 
ROOT
HETATM    1  O1  UNK     1      -0.320   0.719  -3.800  1.00  0.00    -0.267 OA
HETATM    2  N1  UNK     1      -3.028  -0.906   0.058  1.00  0.00     0.095 N 
HETATM    3  N2  UNK     1      -1.069   0.346  -1.629  1.00  0.00    -0.344 N 
HETATM    4  C1  UNK     1      -1.606  -0.945   0.422  1.00  0.00     0.292 C 
HETATM    5  C2  UNK     1      -3.179  -0.933  -1.403  1.00  0.00     0.292 C 
HETATM    6  C3  UNK     1      -0.845   0.239  -0.182  1.00  0.00     0.156 C 
HETATM    7  C4  UNK     1      -2.473   0.264  -2.035  1.00  0.00     0.156 C 
HETATM    8  C6  UNK     1      -0.103   0.636  -2.590  1.00  0.00     0.260 C 
ENDROOT
BRANCH   8   9
HETATM    9  C8  UNK     1       1.279   0.869  -2.125  1.00  0.00     0.108 A 
HETATM   10  C11 UNK     1       1.597   2.133  -1.823  1.00  0.00     0.037 A 
HETATM   11  C13 UNK     1       2.935   2.462  -1.357  1.00  0.00    -0.001 A 
HETATM   12  C16 UNK     1       3.873   1.443  -1.233  1.00  0.00     0.089 A 
HETATM   13  C18 UNK     1       3.310   3.767  -1.030  1.00  0.00     0.014 A 
HETATM   14  O2  UNK     1       3.533   0.114  -1.552  1.00  0.00    -0.274 OA
HETATM   15  C19 UNK     1       5.172   1.691  -0.793  1.00  0.00     0.038 A 
HETATM   16  C12 UNK     1       2.262  -0.232  -2.000  1.00  0.00     0.304 A 
HETATM   17  O3  UNK     1       1.975  -1.391  -2.277  1.00  0.00    -0.259 OA
HETATM   18  C21 UNK     1       5.538   2.996  -0.469  1.00  0.00     0.003 A 
HETATM   19  C20 UNK     1       4.609   4.032  -0.587  1.00  0.00     0.001 A 
ENDBRANCH   8   9
BRANCH   2  20
HETATM   20  C5  UNK     1      -3.745  -2.025   0.670  1.00  0.00     0.311 C 
BRANCH  20  21
HETATM   21  C7  UNK     1      -3.656  -1.994   2.172  1.00  0.00    -0.030 A 
HETATM   22  C10 UNK     1      -4.621  -1.311   2.900  1.00  0.00     0.009 A 
HETATM   23  C15 UNK     1      -4.539  -1.283   4.292  1.00  0.00     0.001 A 
HETATM   24  C17 UNK     1      -3.493  -1.938   4.943  1.00  0.00     0.000 A 
HETATM   25  C14 UNK     1      -2.529  -2.621   4.201  1.00  0.00     0.001 A 
HETATM   26  C9  UNK     1      -2.612  -2.649   2.809  1.00  0.00     0.009 A 
ENDBRANCH  20  21
ENDBRANCH   2  20
TORSDOF 3
