REMARK  5 active torsions:
REMARK  status: ('A' for Active; 'I' for Inactive)
REMARK    1  A    between atoms: C11_17  and  O3_3 
REMARK    2  A    between atoms: C14_20  and  O3_3 
REMARK    3  A    between atoms: C19_25  and  O5_5 
REMARK       I    between atoms: C15_21  and  N1_6 
REMARK    4  A    between atoms: C16_22  and  N1_6 
REMARK    5  A    between atoms: C14_20  and  C15_21 
ROOT
HETATM    1  O1  UNK     1       2.824   1.875  -3.609  1.00  0.00    -0.274 OA
HETATM    2  O2  UNK     1       4.471   2.762  -4.940  1.00  0.00    -0.259 OA
HETATM    3  C1  UNK     1       4.457   2.344  -1.394  1.00  0.00    -0.033 A 
HETATM    4  C2  UNK     1       5.467   2.673  -0.349  1.00  0.00     0.040 C 
HETATM    5  C3  UNK     1       6.446   3.572  -1.114  1.00  0.00     0.009 C 
HETATM    6  C4  UNK     1       6.239   3.277  -2.603  1.00  0.00     0.046 C 
HETATM    7  C5  UNK     1       4.878   2.675  -2.616  1.00  0.00     0.025 A 
HETATM    8  C6  UNK     1       3.161   1.730  -1.189  1.00  0.00     0.006 A 
HETATM    9  C7  UNK     1       2.367   1.511  -2.318  1.00  0.00     0.099 A 
HETATM   10  C8  UNK     1       4.075   2.457  -3.822  1.00  0.00     0.295 A 
HETATM   11  C9  UNK     1       1.105   0.928  -2.229  1.00  0.00     0.006 A 
HETATM   12  C10 UNK     1       2.667   1.348   0.060  1.00  0.00     0.017 A 
HETATM   13  C11 UNK     1       0.623   0.553  -0.977  1.00  0.00     0.078 A 
HETATM   14  C12 UNK     1       1.402   0.761   0.164  1.00  0.00     0.038 A 
HETATM   15  C13 UNK     1       0.278   0.705  -3.452  1.00  0.00     0.054 C 
ENDROOT
BRANCH  13  16
HETATM   16  O3  UNK     1      -0.606  -0.020  -0.845  1.00  0.00    -0.341 OA
BRANCH  16  17
HETATM   17  C14 UNK     1      -1.019  -0.372   0.473  1.00  0.00     0.278 C 
BRANCH  17  18
HETATM   18  C15 UNK     1      -2.394  -1.000   0.404  1.00  0.00     0.246 C 
HETATM   19  O4  UNK     1      -2.964  -1.133  -0.675  1.00  0.00    -0.271 OA
HETATM   20  N1  UNK     1      -2.850  -1.372   1.662  1.00  0.00    -0.325 N 
HETATM   21  H14 UNK     1      -2.237  -1.187   2.453  1.00  0.00     0.169 HD
BRANCH  20  22
HETATM   22  C16 UNK     1      -4.084  -1.984   1.985  1.00  0.00     0.037 A 
HETATM   23  C17 UNK     1      -4.368  -2.283   3.307  1.00  0.00     0.066 A 
HETATM   24  C19 UNK     1      -5.585  -2.886   3.625  1.00  0.00     0.070 A 
HETATM   25  C21 UNK     1      -6.501  -3.182   2.616  1.00  0.00     0.037 A 
HETATM   26  C20 UNK     1      -6.201  -2.875   1.289  1.00  0.00     0.005 A 
HETATM   27  C18 UNK     1      -4.984  -2.272   0.971  1.00  0.00     0.029 A 
BRANCH  24  28
HETATM   28  O5  UNK     1      -5.878  -3.186   4.920  1.00  0.00    -0.356 OA
HETATM   29  C22 UNK     1      -4.896  -2.856   5.901  1.00  0.00     0.210 C 
ENDBRANCH  24  28
ENDBRANCH  20  22
ENDBRANCH  17  18
ENDBRANCH  16  17
ENDBRANCH  13  16
TORSDOF 5
