REMARK  3 active torsions:
REMARK  status: ('A' for Active; 'I' for Inactive)
REMARK    1  A    between atoms: C11_15  and  O2_3 
REMARK    2  A    between atoms: C5_9  and  O2_3 
REMARK    3  A    between atoms: C11_15  and  C12_16 
ROOT
HETATM    1 Cl1  UNK     1       0.568   0.448  -3.634  1.00  0.00    -0.081 Cl
HETATM    2  O1  UNK     1      -2.816  -0.847  -0.083  1.00  0.00    -0.275 OA
HETATM    3  O3  UNK     1      -4.419  -1.437   1.437  1.00  0.00    -0.260 OA
HETATM    4  C1  UNK     1      -0.544  -0.392   0.692  1.00  0.00     0.007 A 
HETATM    5  C2  UNK     1      -0.982  -0.679   2.065  1.00  0.00    -0.043 A 
HETATM    6  C3  UNK     1      -1.478  -0.485  -0.341  1.00  0.00     0.092 A 
HETATM    7  C4  UNK     1       0.765  -0.027   0.353  1.00  0.00     0.053 A 
HETATM    8  C5  UNK     1       1.114   0.233  -0.978  1.00  0.00     0.091 A 
HETATM    9  C6  UNK     1      -1.146  -0.229  -1.672  1.00  0.00     0.065 A 
HETATM   10  C7  UNK     1       0.159   0.132  -1.988  1.00  0.00     0.070 A 
HETATM   11  C8  UNK     1      -2.260  -1.020   2.280  1.00  0.00     0.090 A 
HETATM   12  C9  UNK     1      -0.003  -0.586   3.198  1.00  0.00     0.049 C 
HETATM   13  C10 UNK     1      -3.257  -1.123   1.202  1.00  0.00     0.288 A 
ENDROOT
BRANCH   8  14
HETATM   14  O2  UNK     1       2.402   0.585  -1.257  1.00  0.00    -0.346 OA
BRANCH  14  15
HETATM   15  C11 UNK     1       2.899   1.766  -0.634  1.00  0.00     0.202 C 
BRANCH  15  16
HETATM   16  C12 UNK     1       3.962   2.355  -1.501  1.00  0.00    -0.011 C 
HETATM   17  C13 UNK     1       3.902   3.583  -2.027  1.00  0.00     0.009 C 
ENDBRANCH  15  16
ENDBRANCH  14  15
ENDBRANCH   8  14
TORSDOF 3
