REMARK  7 active torsions:
REMARK  status: ('A' for Active; 'I' for Inactive)
REMARK    1  A    between atoms: C13_20  and  O1_2 
REMARK    2  A    between atoms: C2_9  and  O1_2 
REMARK    3  A    between atoms: C11_18  and  N1_7 
REMARK    4  A    between atoms: C1_8  and  C8_15 
REMARK    5  A    between atoms: C13_20  and  C3_10 
REMARK    6  A    between atoms: C14_21  and  C8_15 
REMARK    7  A    between atoms: C15_22  and  C9_16 
ROOT
HETATM    1  C1  UNK     1       0.752  -2.837  -0.317  1.00  0.00     0.014 A 
HETATM    2  C2  UNK     1       0.074  -0.140  -0.528  1.00  0.00     0.079 A 
HETATM    3  C4  UNK     1      -0.580  -2.442  -0.201  1.00  0.00     0.018 A 
HETATM    4  C5  UNK     1       1.746  -1.884  -0.538  1.00  0.00     0.018 A 
HETATM    5  C6  UNK     1      -0.919  -1.093  -0.306  1.00  0.00     0.038 A 
HETATM    6  C7  UNK     1       1.407  -0.535  -0.644  1.00  0.00     0.038 A 
ENDROOT
BRANCH   2   7
HETATM    7  O1  UNK     1      -0.257   1.177  -0.631  1.00  0.00    -0.275 OA
BRANCH   7   8
HETATM    8  C13 UNK     1      -0.247   1.869   0.582  1.00  0.00     0.298 C 
HETATM    9  O3  UNK     1       0.018   1.387   1.674  1.00  0.00    -0.259 OA
BRANCH   8  10
HETATM   10  C3  UNK     1      -0.617   3.294   0.391  1.00  0.00     0.042 A 
HETATM   11  C10 UNK     1      -0.675   4.154   1.487  1.00  0.00     0.053 A 
HETATM   12  C11 UNK     1      -1.023   5.493   1.307  1.00  0.00     0.103 A 
HETATM   13  C16 UNK     1      -1.312   5.972   0.029  1.00  0.00     0.036 A 
HETATM   14  C17 UNK     1      -1.253   5.112  -1.068  1.00  0.00     0.003 A 
HETATM   15  C12 UNK     1      -0.906   3.773  -0.887  1.00  0.00     0.018 A 
BRANCH  12  16
HETATM   16  N1  UNK     1      -1.082   6.368   2.423  1.00  0.00    -0.116 N 
HETATM   17  O4  UNK     1      -1.396   7.569   2.238  1.00  0.00    -0.532 OA
HETATM   18  O5  UNK     1      -0.818   5.918   3.564  1.00  0.00    -0.532 OA
ENDBRANCH  12  16
ENDBRANCH   8  10
ENDBRANCH   7   8
ENDBRANCH   2   7
BRANCH   1  19
HETATM   19  C8  UNK     1       1.106  -4.244  -0.209  1.00  0.00     0.182 C 
HETATM   20  O2  UNK     1       2.220  -4.590   0.212  1.00  0.00    -0.288 OA
BRANCH  19  21
HETATM   21  C14 UNK     1       0.103  -5.274  -0.647  1.00  0.00     0.056 C 
HETATM   22  C15 UNK     1       0.086  -6.493  -0.088  1.00  0.00     0.015 C 
BRANCH  22  23
HETATM   23  C9  UNK     1       1.008  -6.938   0.972  1.00  0.00    -0.035 A 
HETATM   24  C18 UNK     1       1.045  -6.267   2.193  1.00  0.00     0.035 A 
HETATM   25  C20 UNK     1       1.918  -6.689   3.196  1.00  0.00     0.034 A 
HETATM   26 Cl1  UNK     1       1.964  -5.861   4.704  1.00  0.00    -0.084 Cl
HETATM   27  C22 UNK     1       2.755  -7.783   2.976  1.00  0.00     0.024 A 
HETATM   28  C21 UNK     1       2.718  -8.455   1.754  1.00  0.00     0.003 A 
HETATM   29  C19 UNK     1       1.845  -8.033   0.752  1.00  0.00     0.011 A 
ENDBRANCH  22  23
ENDBRANCH  19  21
ENDBRANCH   1  19
TORSDOF 7
