REMARK  5 active torsions:
REMARK  status: ('A' for Active; 'I' for Inactive)
REMARK    1  A    between atoms: C5_13  and  O2_2 
REMARK    2  A    between atoms: C9_17  and  O2_2 
REMARK    3  A    between atoms: C6_14  and  O3_3 
REMARK    4  A    between atoms: C20_28  and  O5_5 
REMARK    5  A    between atoms: C8_16  and  O5_5 
ROOT
HETATM    1  O1  UNK     1      -0.435   2.096  -2.262  1.00  0.00    -0.272 OA
HETATM    2  O6  UNK     1      -2.701   1.813  -2.358  1.00  0.00    -0.257 OA
HETATM    3  C1  UNK     1       0.983   0.211  -1.673  1.00  0.00     0.004 A 
HETATM    4  C2  UNK     1       0.842   1.549  -2.027  1.00  0.00     0.092 A 
HETATM    5  C3  UNK     1      -0.209  -0.611  -1.550  1.00  0.00     0.058 A 
HETATM    6  C4  UNK     1       2.265  -0.295  -1.448  1.00  0.00     0.054 A 
HETATM    7  C5  UNK     1      -1.422  -0.091  -1.773  1.00  0.00     0.152 A 
HETATM    8  C6  UNK     1       3.379   0.539  -1.580  1.00  0.00     0.103 A 
HETATM    9  C7  UNK     1       1.943   2.393  -2.162  1.00  0.00     0.078 A 
HETATM   10  C8  UNK     1       3.218   1.880  -1.936  1.00  0.00     0.115 A 
HETATM   11  C12 UNK     1      -1.592   1.331  -2.150  1.00  0.00     0.322 A 
ENDROOT
BRANCH   7  12
HETATM   12  O2  UNK     1      -2.575  -0.840  -1.667  1.00  0.00    -0.304 OA
BRANCH  12  13
HETATM   13  C9  UNK     1      -2.836  -1.403  -0.450  1.00  0.00     0.079 A 
HETATM   14  C13 UNK     1      -2.684  -0.648   0.709  1.00  0.00     0.075 A 
HETATM   15  C11 UNK     1      -2.956  -1.243   1.939  1.00  0.00     0.092 A 
HETATM   16  C10 UNK     1      -3.373  -2.568   2.035  1.00  0.00    -0.002 A 
HETATM   17  O4  UNK     1      -2.794  -0.456   3.097  1.00  0.00    -0.275 OA
HETATM   18  C15 UNK     1      -3.522  -3.316   0.865  1.00  0.00     0.017 A 
HETATM   19  C16 UNK     1      -3.639  -3.125   3.350  1.00  0.00     0.020 A 
HETATM   20  C14 UNK     1      -3.253  -2.732  -0.376  1.00  0.00     0.038 A 
HETATM   21  C17 UNK     1      -3.484  -2.373   4.443  1.00  0.00     0.083 A 
HETATM   22  C18 UNK     1      -3.043  -0.968   4.366  1.00  0.00     0.288 A 
HETATM   23  O7  UNK     1      -2.905  -0.289   5.378  1.00  0.00    -0.260 OA
ENDBRANCH  12  13
ENDBRANCH   7  12
BRANCH   8  24
HETATM   24  O3  UNK     1       4.624   0.029  -1.356  1.00  0.00    -0.353 OA
HETATM   25  C19 UNK     1       5.307  -0.527  -2.477  1.00  0.00     0.210 C 
ENDBRANCH   8  24
BRANCH  10  26
HETATM   26  O5  UNK     1       4.301   2.696  -2.064  1.00  0.00    -0.276 OA
BRANCH  26  27
HETATM   27  C20 UNK     1       4.664   3.356  -0.878  1.00  0.00     0.260 C 
HETATM   28  O8  UNK     1       4.098   3.250   0.202  1.00  0.00    -0.265 OA
HETATM   29  C21 UNK     1       5.861   4.226  -1.122  1.00  0.00     0.126 C 
ENDBRANCH  26  27
ENDBRANCH  10  26
TORSDOF 5
