REMARK  5 active torsions:
REMARK  status: ('A' for Active; 'I' for Inactive)
REMARK    1  A    between atoms: C1_3  and  N1_2 
REMARK    2  A    between atoms: C9_11  and  N1_2 
REMARK    3  A    between atoms: C2_4  and  C7_9 
REMARK    4  A    between atoms: C8_10  and  C9_11 
REMARK    5  A    between atoms: C10_12  and  C11_13 
ROOT
HETATM    1  C1  UNK     1      -0.752  -0.419   0.617  1.00  0.00     0.031 A 
HETATM    2  C2  UNK     1       1.178   0.681  -1.076  1.00  0.00    -0.036 A 
HETATM    3  C3  UNK     1       0.509  -0.085   1.115  1.00  0.00     0.030 A 
HETATM    4  C4  UNK     1      -1.044  -0.201  -0.732  1.00  0.00     0.030 A 
HETATM    5  C5  UNK     1       1.473   0.464   0.270  1.00  0.00     0.013 A 
HETATM    6  C6  UNK     1      -0.080   0.348  -1.577  1.00  0.00     0.013 A 
ENDROOT
BRANCH   1   7
HETATM    7  N1  UNK     1      -1.724  -0.974   1.469  1.00  0.00    -0.365 N 
HETATM    8  H5  UNK     1      -1.420  -1.094   2.428  1.00  0.00     0.165 HD
BRANCH   7   9
HETATM    9  C9  UNK     1      -2.989  -1.357   1.175  1.00  0.00     0.103 C 
BRANCH   9  10
HETATM   10  C8  UNK     1      -3.900  -1.884   2.005  1.00  0.00     0.029 A 
HETATM   11  C12 UNK     1      -5.250  -2.237   1.453  1.00  0.00     0.183 A 
HETATM   12  O1  UNK     1      -5.567  -2.069   0.281  1.00  0.00    -0.288 OA
HETATM   13  C16 UNK     1      -6.221  -2.818   2.421  1.00  0.00     0.056 A 
HETATM   14  C18 UNK     1      -5.873  -3.001   3.702  1.00  0.00     0.004 A 
HETATM   15  C17 UNK     1      -4.567  -2.653   4.207  1.00  0.00     0.001 A 
HETATM   16  C13 UNK     1      -3.631  -2.125   3.408  1.00  0.00     0.017 A 
ENDBRANCH   9  10
ENDBRANCH   7   9
ENDBRANCH   1   7
BRANCH   2  17
HETATM   17  C7  UNK     1       2.183   1.254  -1.957  1.00  0.00     0.012 C 
HETATM   18  C11 UNK     1       3.231   1.940  -1.503  1.00  0.00     0.012 C 
BRANCH  18  19
HETATM   19  C10 UNK     1       4.274   2.507  -2.379  1.00  0.00    -0.036 A 
HETATM   20  C14 UNK     1       4.429   2.004  -3.660  1.00  0.00     0.011 A 
HETATM   21  C19 UNK     1       5.415   2.539  -4.489  1.00  0.00     0.001 A 
HETATM   22  C21 UNK     1       6.232   3.570  -4.025  1.00  0.00     0.000 A 
HETATM   23  C20 UNK     1       6.062   4.066  -2.732  1.00  0.00     0.001 A 
HETATM   24  C15 UNK     1       5.076   3.530  -1.903  1.00  0.00     0.011 A 
ENDBRANCH  18  19
ENDBRANCH   2  17
TORSDOF 5
