REMARK  6 active torsions:
REMARK  status: ('A' for Active; 'I' for Inactive)
REMARK    1  A    between atoms: C5_12  and  N1_5 
REMARK    2  A    between atoms: C6_13  and  N2_6 
REMARK    3  A    between atoms: C17_24  and  N3_7 
REMARK       I    between atoms: C9_16  and  N3_7 
REMARK    4  A    between atoms: C5_12  and  C7_14 
REMARK    5  A    between atoms: C6_13  and  C9_16 
REMARK    6  A    between atoms: C23_30  and  C24_31 
ROOT
HETATM    1  N1  UNK     1       1.393   0.406  -1.707  1.00  0.00     0.096 N 
HETATM    2  N2  UNK     1      -1.445   0.040  -1.291  1.00  0.00     0.100 N 
HETATM    3  C1  UNK     1       0.434   0.572  -2.806  1.00  0.00     0.303 C 
HETATM    4  C2  UNK     1       0.884  -0.558  -0.724  1.00  0.00     0.303 C 
HETATM    5  C3  UNK     1      -0.937   1.005  -2.274  1.00  0.00     0.303 C 
HETATM    6  C4  UNK     1      -0.486  -0.124  -0.192  1.00  0.00     0.303 C 
ENDROOT
BRANCH   2   7
HETATM    7  C6  UNK     1      -2.751   0.455  -0.783  1.00  0.00     0.375 C 
BRANCH   7   8
HETATM    8  C9  UNK     1      -3.463  -0.743  -0.181  1.00  0.00     0.250 C 
HETATM    9  O2  UNK     1      -3.732  -1.748  -0.831  1.00  0.00    -0.271 OA
HETATM   10  N3  UNK     1      -3.736  -0.515   1.166  1.00  0.00    -0.326 N 
HETATM   11  H15 UNK     1      -3.443   0.373   1.568  1.00  0.00     0.169 HD
BRANCH  10  12
HETATM   12  C17 UNK     1      -4.384  -1.384   2.076  1.00  0.00     0.034 A 
HETATM   13  C19 UNK     1      -4.576  -0.990   3.400  1.00  0.00     0.030 A 
HETATM   14  C21 UNK     1      -5.214  -1.848   4.297  1.00  0.00     0.017 A 
HETATM   15  C23 UNK     1      -5.661  -3.098   3.869  1.00  0.00     0.009 A 
HETATM   16  C22 UNK     1      -5.469  -3.491   2.544  1.00  0.00     0.017 A 
HETATM   17  C20 UNK     1      -4.831  -2.634   1.648  1.00  0.00     0.030 A 
BRANCH  15  18
HETATM   18  C24 UNK     1      -6.326  -3.991   4.804  1.00  0.00     0.155 C 
HETATM   19  O4  UNK     1      -7.191  -4.805   4.423  1.00  0.00    -0.293 OA
HETATM   20  C25 UNK     1      -5.977  -3.950   6.287  1.00  0.00     0.096 C 
ENDBRANCH  15  18
ENDBRANCH  10  12
ENDBRANCH   7   8
ENDBRANCH   2   7
BRANCH   1  21
HETATM   21  C5  UNK     1       2.698  -0.011  -2.216  1.00  0.00     0.312 C 
BRANCH  21  22
HETATM   22  C7  UNK     1       3.482   1.133  -2.759  1.00  0.00    -0.011 A 
HETATM   23  C10 UNK     1       3.386   1.490  -4.047  1.00  0.00     0.092 A 
HETATM   24  C13 UNK     1       4.140   2.613  -4.629  1.00  0.00     0.288 A 
HETATM   25  O1  UNK     1       4.977   3.311  -3.772  1.00  0.00    -0.275 OA
HETATM   26  O3  UNK     1       4.027   2.910  -5.813  1.00  0.00    -0.260 OA
HETATM   27  C11 UNK     1       5.099   2.960  -2.412  1.00  0.00     0.090 A 
HETATM   28  C8  UNK     1       4.377   1.892  -1.875  1.00  0.00     0.006 A 
HETATM   29  C14 UNK     1       5.971   3.732  -1.643  1.00  0.00     0.045 A 
HETATM   30  C12 UNK     1       4.554   1.607  -0.515  1.00  0.00     0.015 A 
HETATM   31  C16 UNK     1       5.426   2.372   0.269  1.00  0.00     0.007 A 
HETATM   32  C15 UNK     1       6.133   3.433  -0.295  1.00  0.00    -0.059 A 
HETATM   33  C18 UNK     1       7.059   4.244   0.546  1.00  0.00     0.048 C 
ENDBRANCH  21  22
ENDBRANCH   1  21
TORSDOF 6
