REMARK  5 active torsions:
REMARK  status: ('A' for Active; 'I' for Inactive)
REMARK    1  A    between atoms: C1_11  and  S1_1 
REMARK    2  A    between atoms: N1_7  and  S1_1 
REMARK    3  A    between atoms: C9_19  and  N1_7 
REMARK       I    between atoms: C12_22  and  N2_8 
REMARK    4  A    between atoms: C2_12  and  N2_8 
REMARK    5  A    between atoms: C12_22  and  C8_18 
ROOT
HETATM    1  C1  UNK     1      -1.585  -1.063   2.694  1.00  0.00     0.080 A 
HETATM    2  C2  UNK     1       0.326   0.158   1.107  1.00  0.00     0.035 A 
HETATM    3  C3  UNK     1      -1.121  -1.702   1.545  1.00  0.00     0.027 A 
HETATM    4  C4  UNK     1      -1.087   0.192   3.043  1.00  0.00     0.027 A 
HETATM    5  C5  UNK     1      -0.157  -1.087   0.745  1.00  0.00     0.031 A 
HETATM    6  C6  UNK     1      -0.124   0.807   2.244  1.00  0.00     0.031 A 
ENDROOT
BRANCH   2   7
HETATM    7  N2  UNK     1       1.304   0.783   0.294  1.00  0.00    -0.323 N 
HETATM    8  C12 UNK     1       1.872   0.294  -0.874  1.00  0.00     0.262 C 
HETATM    9  O4  UNK     1       1.645  -0.774  -1.439  1.00  0.00    -0.267 OA
HETATM   10  H6  UNK     1       1.587   1.704   0.621  1.00  0.00     0.169 HD
BRANCH   8  11
HETATM   11  C8  UNK     1       2.853   1.225  -1.444  1.00  0.00     0.108 A 
HETATM   12  C10 UNK     1       2.991   1.198  -2.775  1.00  0.00     0.037 A 
HETATM   13  C7  UNK     1       3.939   2.084  -3.433  1.00  0.00    -0.001 A 
HETATM   14  C11 UNK     1       4.696   2.955  -2.656  1.00  0.00     0.089 A 
HETATM   15  C15 UNK     1       4.115   2.089  -4.819  1.00  0.00     0.014 A 
HETATM   16  O1  UNK     1       4.547   2.979  -1.256  1.00  0.00    -0.274 OA
HETATM   17  C16 UNK     1       5.621   3.828  -3.224  1.00  0.00     0.038 A 
HETATM   18  C14 UNK     1       3.648   2.144  -0.598  1.00  0.00     0.304 A 
HETATM   19  O5  UNK     1       3.526   2.172   0.622  1.00  0.00    -0.259 OA
HETATM   20  C20 UNK     1       5.791   3.827  -4.607  1.00  0.00     0.003 A 
HETATM   21  C18 UNK     1       5.039   2.960  -5.403  1.00  0.00     0.001 A 
ENDBRANCH   8  11
ENDBRANCH   2   7
BRANCH   1  22
HETATM   22  S1  UNK     1      -2.791  -1.832   3.694  1.00  0.00     0.264 S 
HETATM   23  O2  UNK     1      -2.672  -1.280   5.039  1.00  0.00    -0.200 OA
HETATM   24  O3  UNK     1      -2.693  -3.276   3.517  1.00  0.00    -0.200 OA
BRANCH  22  25
HETATM   25  N1  UNK     1      -4.270  -1.267   3.014  1.00  0.00    -0.264 N 
HETATM   26  H3  UNK     1      -4.608  -0.372   3.391  1.00  0.00     0.180 HD
BRANCH  25  27
HETATM   27  C9  UNK     1      -4.464  -1.419   1.597  1.00  0.00     0.141 A 
HETATM   28  C13 UNK     1      -4.512  -0.304   0.795  1.00  0.00     0.077 A 
HETATM   29  C17 UNK     1      -4.702  -0.553  -0.549  1.00  0.00     0.036 A 
HETATM   30  N4  UNK     1      -4.835  -1.790  -1.070  1.00  0.00    -0.239 NA
HETATM   31  C21 UNK     1      -4.769   0.590  -1.506  1.00  0.00     0.070 C 
HETATM   32  C19 UNK     1      -4.769  -2.794  -0.175  1.00  0.00     0.124 A 
HETATM   33  N3  UNK     1      -4.589  -2.682   1.154  1.00  0.00    -0.216 NA
HETATM   34  C22 UNK     1      -4.912  -4.177  -0.714  1.00  0.00     0.093 C 
ENDBRANCH  25  27
ENDBRANCH  22  25
ENDBRANCH   1  22
TORSDOF 5
