REMARK  6 active torsions:
REMARK  status: ('A' for Active; 'I' for Inactive)
REMARK    1  A    between atoms: C5_12  and  N1_4 
REMARK    2  A    between atoms: C6_13  and  N2_5 
REMARK    3  A    between atoms: C18_25  and  N3_6 
REMARK       I    between atoms: C9_16  and  N3_6 
REMARK    4  A    between atoms: C5_12  and  C7_14 
REMARK    5  A    between atoms: C6_13  and  C9_16 
REMARK    6  A    between atoms: C13_20  and  C17_24 
ROOT
HETATM    1  N4  UNK     1      -8.749  -0.923   4.289  1.00  0.00    -0.191 NA
HETATM    2  C18 UNK     1      -4.634  -2.257   2.128  1.00  0.00     0.036 A 
HETATM    3  C20 UNK     1      -5.833  -1.641   2.487  1.00  0.00     0.052 A 
HETATM    4  C21 UNK     1      -4.126  -3.299   2.903  1.00  0.00     0.029 A 
HETATM    5  C22 UNK     1      -6.523  -2.066   3.621  1.00  0.00     0.046 A 
HETATM    6  C23 UNK     1      -4.816  -3.725   4.038  1.00  0.00     0.004 A 
HETATM    7  C24 UNK     1      -6.015  -3.109   4.397  1.00  0.00     0.023 A 
HETATM    8  C25 UNK     1      -7.751  -1.436   3.990  1.00  0.00     0.099 C 
ENDROOT
BRANCH   2   9
HETATM    9  N3  UNK     1      -3.933  -1.825   0.976  1.00  0.00    -0.326 N 
HETATM   10  C9  UNK     1      -2.732  -2.324   0.476  1.00  0.00     0.250 C 
HETATM   11  O2  UNK     1      -2.053  -3.232   0.945  1.00  0.00    -0.271 OA
HETATM   12  H16 UNK     1      -4.379  -1.066   0.467  1.00  0.00     0.169 HD
BRANCH  10  13
HETATM   13  C6  UNK     1      -2.334  -1.571  -0.782  1.00  0.00     0.375 C 
BRANCH  13  14
HETATM   14  N2  UNK     1      -0.877  -1.548  -0.895  1.00  0.00     0.100 N 
HETATM   15  C3  UNK     1      -0.466  -1.269  -2.276  1.00  0.00     0.303 C 
HETATM   16  C1  UNK     1       1.062  -1.244  -2.396  1.00  0.00     0.303 C 
HETATM   17  N1  UNK     1       1.642  -0.255  -1.478  1.00  0.00     0.096 N 
HETATM   18  C2  UNK     1       1.229  -0.534  -0.097  1.00  0.00     0.303 C 
HETATM   19  C4  UNK     1      -0.298  -0.558   0.021  1.00  0.00     0.303 C 
BRANCH  17  20
HETATM   20  C5  UNK     1       3.099  -0.235  -1.591  1.00  0.00     0.312 C 
BRANCH  20  21
HETATM   21  C7  UNK     1       3.686   1.029  -1.066  1.00  0.00    -0.011 A 
HETATM   22  C10 UNK     1       4.046   1.144   0.220  1.00  0.00     0.092 A 
HETATM   23  C14 UNK     1       4.630   2.372   0.785  1.00  0.00     0.288 A 
HETATM   24  O1  UNK     1       4.800   3.438  -0.085  1.00  0.00    -0.275 OA
HETATM   25  O3  UNK     1       4.949   2.438   1.967  1.00  0.00    -0.260 OA
HETATM   26  C11 UNK     1       4.431   3.347  -1.442  1.00  0.00     0.090 A 
HETATM   27  C8  UNK     1       3.878   2.177  -1.963  1.00  0.00     0.007 A 
HETATM   28  C15 UNK     1       4.647   4.483  -2.225  1.00  0.00     0.039 A 
HETATM   29  C12 UNK     1       3.537   2.168  -3.322  1.00  0.00     0.022 A 
HETATM   30  C13 UNK     1       3.748   3.298  -4.120  1.00  0.00    -0.058 A 
HETATM   31  C16 UNK     1       4.302   4.454  -3.572  1.00  0.00     0.010 A 
BRANCH  30  32
HETATM   32  C17 UNK     1       3.377   3.266  -5.565  1.00  0.00     0.034 C 
HETATM   33  C19 UNK     1       1.941   3.721  -5.805  1.00  0.00     0.010 C 
ENDBRANCH  30  32
ENDBRANCH  20  21
ENDBRANCH  17  20
ENDBRANCH  13  14
ENDBRANCH  10  13
ENDBRANCH   2   9
TORSDOF 6
