MODEL 1
REMARK VINA RESULT:      -9.1      0.000      0.000
REMARK  3 active torsions:
REMARK  status: ('A' for Active; 'I' for Inactive)
REMARK       I    between atoms: C15_22  and  N1_6 
REMARK    1  A    between atoms: N1_6  and  N2_7 
REMARK    2  A    between atoms: C13_20  and  C4_11 
REMARK    3  A    between atoms: C15_22  and  C8_15 
ROOT
HETATM    1 Cl1  UNK     1      13.597  10.672  33.389  1.00  0.00    -0.084 Cl
HETATM    2  O1  UNK     1      19.071   8.533  33.647  1.00  0.00    -0.321 OA
HETATM    3  O2  UNK     1      16.194   6.224  31.895  1.00  0.00    -0.286 OA
HETATM    4  C1  UNK     1      16.751   8.248  32.978  1.00  0.00     0.050 A 
HETATM    5  C2  UNK     1      17.779   8.990  33.564  1.00  0.00     0.089 A 
HETATM    6  C3  UNK     1      17.055   6.917  32.421  1.00  0.00     0.198 A 
HETATM    7  C4  UNK     1      18.462   6.473  32.537  1.00  0.00     0.056 A 
HETATM    8  C5  UNK     1      15.454   8.764  32.922  1.00  0.00     0.042 A 
HETATM    9  C6  UNK     1      17.514  10.252  34.096  1.00  0.00     0.040 A 
HETATM   10  C7  UNK     1      19.342   7.290  33.125  1.00  0.00     0.159 A 
HETATM   11  C9  UNK     1      15.192  10.027  33.456  1.00  0.00     0.035 A 
HETATM   12  C10 UNK     1      16.219  10.770  34.041  1.00  0.00     0.026 A 
ENDROOT
BRANCH   7  13
HETATM   13  C13 UNK     1      18.947   5.184  32.043  1.00  0.00     0.156 C 
HETATM   14  N2  UNK     1      18.812   4.817  30.810  1.00  0.00    -0.183 NA
BRANCH  14  15
HETATM   15  N1  UNK     1      19.323   3.592  30.538  1.00  0.00    -0.243 N 
HETATM   16  C15 UNK     1      18.463   2.502  30.515  1.00  0.00     0.272 C 
HETATM   17  O3  UNK     1      17.255   2.616  30.733  1.00  0.00    -0.266 OA
HETATM   18  H11 UNK     1      20.324   3.518  30.392  1.00  0.00     0.192 HD
BRANCH  16  19
HETATM   19  C8  UNK     1      19.092   1.200  30.241  1.00  0.00     0.041 A 
HETATM   20  C12 UNK     1      19.477   0.280  31.232  1.00  0.00     0.031 A 
HETATM   21  C11 UNK     1      20.037  -0.846  30.670  1.00  0.00    -0.021 A 
HETATM   22  S1  UNK     1      20.081  -0.757  28.960  1.00  0.00    -0.106 SA
HETATM   23  C16 UNK     1      20.569  -2.047  31.350  1.00  0.00     0.056 C 
HETATM   24  C14 UNK     1      19.350   0.791  28.969  1.00  0.00     0.067 A 
ENDBRANCH  16  19
ENDBRANCH  14  15
ENDBRANCH   7  13
TORSDOF 3
ENDMDL
MODEL 2
REMARK VINA RESULT:      -8.8      4.452      9.405
REMARK  3 active torsions:
REMARK  status: ('A' for Active; 'I' for Inactive)
REMARK       I    between atoms: C15_22  and  N1_6 
REMARK    1  A    between atoms: N1_6  and  N2_7 
REMARK    2  A    between atoms: C13_20  and  C4_11 
REMARK    3  A    between atoms: C15_22  and  C8_15 
ROOT
HETATM    1 Cl1  UNK     1      20.920  -3.441  31.838  1.00  0.00    -0.084 Cl
HETATM    2  O1  UNK     1      19.233   1.249  28.713  1.00  0.00    -0.321 OA
HETATM    3  O2  UNK     1      18.724   1.364  32.763  1.00  0.00    -0.286 OA
HETATM    4  C1  UNK     1      19.462   0.156  30.873  1.00  0.00     0.050 A 
HETATM    5  C2  UNK     1      19.611   0.178  29.484  1.00  0.00     0.089 A 
HETATM    6  C3  UNK     1      18.876   1.327  31.549  1.00  0.00     0.198 A 
HETATM    7  C4  UNK     1      18.486   2.453  30.672  1.00  0.00     0.056 A 
HETATM    8  C5  UNK     1      19.866  -0.963  31.606  1.00  0.00     0.042 A 
HETATM    9  C6  UNK     1      20.165  -0.919  28.824  1.00  0.00     0.040 A 
HETATM   10  C7  UNK     1      18.687   2.335  29.356  1.00  0.00     0.159 A 
HETATM   11  C9  UNK     1      20.418  -2.059  30.942  1.00  0.00     0.035 A 
HETATM   12  C10 UNK     1      20.569  -2.037  29.554  1.00  0.00     0.026 A 
ENDROOT
BRANCH   7  13
HETATM   13  C13 UNK     1      17.889   3.695  31.166  1.00  0.00     0.156 C 
HETATM   14  N2  UNK     1      18.600   4.718  31.511  1.00  0.00    -0.183 NA
BRANCH  14  15
HETATM   15  N1  UNK     1      17.872   5.777  31.943  1.00  0.00    -0.243 N 
HETATM   16  C15 UNK     1      18.541   6.877  32.464  1.00  0.00     0.272 C 
HETATM   17  O3  UNK     1      19.771   6.918  32.545  1.00  0.00    -0.266 OA
HETATM   18  H11 UNK     1      16.861   5.708  31.895  1.00  0.00     0.192 HD
BRANCH  16  19
HETATM   19  C8  UNK     1      17.686   7.976  32.939  1.00  0.00     0.041 A 
HETATM   20  C12 UNK     1      16.309   8.081  32.676  1.00  0.00     0.031 A 
HETATM   21  C11 UNK     1      15.781   9.216  33.251  1.00  0.00    -0.021 A 
HETATM   22  S1  UNK     1      16.967  10.121  34.093  1.00  0.00    -0.106 SA
HETATM   23  C16 UNK     1      14.384   9.701  33.219  1.00  0.00     0.056 C 
HETATM   24  C14 UNK     1      18.191   8.994  33.688  1.00  0.00     0.067 A 
ENDBRANCH  16  19
ENDBRANCH  14  15
ENDBRANCH   7  13
TORSDOF 3
ENDMDL
MODEL 3
REMARK VINA RESULT:      -8.3      8.139     12.665
REMARK  3 active torsions:
REMARK  status: ('A' for Active; 'I' for Inactive)
REMARK       I    between atoms: C15_22  and  N1_6 
REMARK    1  A    between atoms: N1_6  and  N2_7 
REMARK    2  A    between atoms: C13_20  and  C4_11 
REMARK    3  A    between atoms: C15_22  and  C8_15 
ROOT
HETATM    1 Cl1  UNK     1      19.415 -10.565  38.360  1.00  0.00    -0.084 Cl
HETATM    2  O1  UNK     1      20.999  -4.901  38.463  1.00  0.00    -0.321 OA
HETATM    3  O2  UNK     1      19.004  -6.271  35.173  1.00  0.00    -0.286 OA
HETATM    4  C1  UNK     1      19.926  -6.744  37.296  1.00  0.00     0.050 A 
HETATM    5  C2  UNK     1      20.609  -6.215  38.393  1.00  0.00     0.089 A 
HETATM    6  C3  UNK     1      19.603  -5.862  36.160  1.00  0.00     0.198 A 
HETATM    7  C4  UNK     1      20.045  -4.456  36.286  1.00  0.00     0.056 A 
HETATM    8  C5  UNK     1      19.554  -8.091  37.281  1.00  0.00     0.042 A 
HETATM    9  C6  UNK     1      20.924  -7.031  39.480  1.00  0.00     0.040 A 
HETATM   10  C7  UNK     1      20.693  -4.089  37.396  1.00  0.00     0.159 A 
HETATM   11  C9  UNK     1      19.871  -8.905  38.369  1.00  0.00     0.035 A 
HETATM   12  C10 UNK     1      20.553  -8.376  39.467  1.00  0.00     0.026 A 
ENDROOT
BRANCH   7  13
HETATM   13  C13 UNK     1      19.814  -3.439  35.258  1.00  0.00     0.156 C 
HETATM   14  N2  UNK     1      20.552  -3.341  34.200  1.00  0.00    -0.183 NA
BRANCH  14  15
HETATM   15  N1  UNK     1      20.186  -2.340  33.363  1.00  0.00    -0.243 N 
HETATM   16  C15 UNK     1      20.569  -2.413  32.030  1.00  0.00     0.272 C 
HETATM   17  O3  UNK     1      21.229  -3.357  31.590  1.00  0.00    -0.266 OA
HETATM   18  H11 UNK     1      19.670  -1.559  33.754  1.00  0.00     0.192 HD
BRANCH  16  19
HETATM   19  C8  UNK     1      20.161  -1.279  31.187  1.00  0.00     0.041 A 
HETATM   20  C12 UNK     1      19.577  -0.096  31.675  1.00  0.00     0.031 A 
HETATM   21  C11 UNK     1      19.305   0.781  30.647  1.00  0.00    -0.021 A 
HETATM   22  S1  UNK     1      19.765   0.148  29.124  1.00  0.00    -0.106 SA
HETATM   23  C16 UNK     1      18.697   2.127  30.723  1.00  0.00     0.056 C 
HETATM   24  C14 UNK     1      20.328  -1.303  29.837  1.00  0.00     0.067 A 
ENDBRANCH  16  19
ENDBRANCH  14  15
ENDBRANCH   7  13
TORSDOF 3
ENDMDL
MODEL 4
REMARK VINA RESULT:      -8.2      6.263      8.151
REMARK  3 active torsions:
REMARK  status: ('A' for Active; 'I' for Inactive)
REMARK       I    between atoms: C15_22  and  N1_6 
REMARK    1  A    between atoms: N1_6  and  N2_7 
REMARK    2  A    between atoms: C13_20  and  C4_11 
REMARK    3  A    between atoms: C15_22  and  C8_15 
ROOT
HETATM    1 Cl1  UNK     1      18.589   4.127  29.736  1.00  0.00    -0.084 Cl
HETATM    2  O1  UNK     1      18.166   2.603  35.402  1.00  0.00    -0.321 OA
HETATM    3  O2  UNK     1      18.410  -0.386  32.629  1.00  0.00    -0.286 OA
HETATM    4  C1  UNK     1      18.351   1.934  33.072  1.00  0.00     0.050 A 
HETATM    5  C2  UNK     1      18.266   2.910  34.067  1.00  0.00     0.089 A 
HETATM    6  C3  UNK     1      18.336   0.511  33.459  1.00  0.00     0.198 A 
HETATM    7  C4  UNK     1      18.227   0.236  34.909  1.00  0.00     0.056 A 
HETATM    8  C5  UNK     1      18.451   2.306  31.729  1.00  0.00     0.042 A 
HETATM    9  C6  UNK     1      18.280   4.262  33.724  1.00  0.00     0.040 A 
HETATM   10  C7  UNK     1      18.151   1.272  35.750  1.00  0.00     0.159 A 
HETATM   11  C9  UNK     1      18.464   3.659  31.388  1.00  0.00     0.035 A 
HETATM   12  C10 UNK     1      18.380   4.635  32.383  1.00  0.00     0.026 A 
ENDROOT
BRANCH   7  13
HETATM   13  C13 UNK     1      18.196  -1.112  35.477  1.00  0.00     0.156 C 
HETATM   14  N2  UNK     1      19.271  -1.753  35.803  1.00  0.00    -0.183 NA
BRANCH  14  15
HETATM   15  N1  UNK     1      19.044  -2.988  36.313  1.00  0.00    -0.243 N 
HETATM   16  C15 UNK     1      20.133  -3.795  36.613  1.00  0.00     0.272 C 
HETATM   17  O3  UNK     1      21.294  -3.423  36.430  1.00  0.00    -0.266 OA
HETATM   18  H11 UNK     1      18.080  -3.285  36.427  1.00  0.00     0.192 HD
BRANCH  16  19
HETATM   19  C8  UNK     1      19.811  -5.132  37.137  1.00  0.00     0.041 A 
HETATM   20  C12 UNK     1      20.480  -5.747  38.210  1.00  0.00     0.031 A 
HETATM   21  C11 UNK     1      19.955  -6.994  38.470  1.00  0.00    -0.021 A 
HETATM   22  S1  UNK     1      18.668  -7.383  37.409  1.00  0.00    -0.106 SA
HETATM   23  C16 UNK     1      20.362  -7.967  39.507  1.00  0.00     0.056 C 
HETATM   24  C14 UNK     1      18.812  -5.882  36.598  1.00  0.00     0.067 A 
ENDBRANCH  16  19
ENDBRANCH  14  15
ENDBRANCH   7  13
TORSDOF 3
ENDMDL
MODEL 5
REMARK VINA RESULT:      -8.1      5.488      7.433
REMARK  3 active torsions:
REMARK  status: ('A' for Active; 'I' for Inactive)
REMARK       I    between atoms: C15_22  and  N1_6 
REMARK    1  A    between atoms: N1_6  and  N2_7 
REMARK    2  A    between atoms: C13_20  and  C4_11 
REMARK    3  A    between atoms: C15_22  and  C8_15 
ROOT
HETATM    1 Cl1  UNK     1      17.989   6.971  33.642  1.00  0.00    -0.084 Cl
HETATM    2  O1  UNK     1      18.581   1.532  31.480  1.00  0.00    -0.321 OA
HETATM    3  O2  UNK     1      18.148   1.949  35.519  1.00  0.00    -0.286 OA
HETATM    4  C1  UNK     1      18.289   2.990  33.404  1.00  0.00     0.050 A 
HETATM    5  C2  UNK     1      18.440   2.782  32.031  1.00  0.00     0.089 A 
HETATM    6  C3  UNK     1      18.278   1.826  34.309  1.00  0.00     0.198 A 
HETATM    7  C4  UNK     1      18.434   0.504  33.664  1.00  0.00     0.056 A 
HETATM    8  C5  UNK     1      18.150   4.285  33.908  1.00  0.00     0.042 A 
HETATM    9  C6  UNK     1      18.451   3.869  31.157  1.00  0.00     0.040 A 
HETATM   10  C7  UNK     1      18.570   0.455  32.335  1.00  0.00     0.159 A 
HETATM   11  C9  UNK     1      18.162   5.371  33.031  1.00  0.00     0.035 A 
HETATM   12  C10 UNK     1      18.312   5.163  31.658  1.00  0.00     0.026 A 
ENDROOT
BRANCH   7  13
HETATM   13  C13 UNK     1      18.448  -0.760  34.401  1.00  0.00     0.156 C 
HETATM   14  N2  UNK     1      19.538  -1.414  34.639  1.00  0.00    -0.183 NA
BRANCH  14  15
HETATM   15  N1  UNK     1      19.354  -2.562  35.336  1.00  0.00    -0.243 N 
HETATM   16  C15 UNK     1      20.427  -3.094  36.038  1.00  0.00     0.272 C 
HETATM   17  O3  UNK     1      21.537  -2.556  36.045  1.00  0.00    -0.266 OA
HETATM   18  H11 UNK     1      18.441  -3.003  35.290  1.00  0.00     0.192 HD
BRANCH  16  19
HETATM   19  C8  UNK     1      20.162  -4.356  36.747  1.00  0.00     0.041 A 
HETATM   20  C12 UNK     1      20.937  -4.846  37.812  1.00  0.00     0.031 A 
HETATM   21  C11 UNK     1      20.442  -6.047  38.271  1.00  0.00    -0.021 A 
HETATM   22  S1  UNK     1      19.054  -6.545  37.401  1.00  0.00    -0.106 SA
HETATM   23  C16 UNK     1      20.954  -6.895  39.370  1.00  0.00     0.056 C 
HETATM   24  C14 UNK     1      19.113  -5.153  36.405  1.00  0.00     0.067 A 
ENDBRANCH  16  19
ENDBRANCH  14  15
ENDBRANCH   7  13
TORSDOF 3
ENDMDL
MODEL 6
REMARK VINA RESULT:      -8.0      4.538      9.276
REMARK  3 active torsions:
REMARK  status: ('A' for Active; 'I' for Inactive)
REMARK       I    between atoms: C15_22  and  N1_6 
REMARK    1  A    between atoms: N1_6  and  N2_7 
REMARK    2  A    between atoms: C13_20  and  C4_11 
REMARK    3  A    between atoms: C15_22  and  C8_15 
ROOT
HETATM    1 Cl1  UNK     1      19.920  -2.293  31.802  1.00  0.00    -0.084 Cl
HETATM    2  O1  UNK     1      18.953   3.073  29.594  1.00  0.00    -0.321 OA
HETATM    3  O2  UNK     1      18.020   2.421  33.516  1.00  0.00    -0.286 OA
HETATM    4  C1  UNK     1      18.862   1.551  31.487  1.00  0.00     0.050 A 
HETATM    5  C2  UNK     1      19.161   1.837  30.154  1.00  0.00     0.089 A 
HETATM    6  C3  UNK     1      18.300   2.615  32.340  1.00  0.00     0.198 A 
HETATM    7  C4  UNK     1      18.096   3.927  31.687  1.00  0.00     0.056 A 
HETATM    8  C5  UNK     1      19.094   0.274  32.003  1.00  0.00     0.042 A 
HETATM    9  C6  UNK     1      19.695   0.846  29.330  1.00  0.00     0.040 A 
HETATM   10  C7  UNK     1      18.427   4.056  30.399  1.00  0.00     0.159 A 
HETATM   11  C9  UNK     1      19.628  -0.716  31.176  1.00  0.00     0.035 A 
HETATM   12  C10 UNK     1      19.928  -0.431  29.842  1.00  0.00     0.026 A 
ENDROOT
BRANCH   7  13
HETATM   13  C13 UNK     1      17.548   5.096  32.375  1.00  0.00     0.156 C 
HETATM   14  N2  UNK     1      17.631   6.292  31.887  1.00  0.00    -0.183 NA
BRANCH  14  15
HETATM   15  N1  UNK     1      17.067   7.247  32.666  1.00  0.00    -0.243 N 
HETATM   16  C15 UNK     1      16.316   8.244  32.057  1.00  0.00     0.272 C 
HETATM   17  O3  UNK     1      16.149   8.285  30.836  1.00  0.00    -0.266 OA
HETATM   18  H11 UNK     1      17.243   7.210  33.664  1.00  0.00     0.192 HD
BRANCH  16  19
HETATM   19  C8  UNK     1      15.757   9.262  32.961  1.00  0.00     0.041 A 
HETATM   20  C12 UNK     1      14.517   9.897  32.772  1.00  0.00     0.031 A 
HETATM   21  C11 UNK     1      14.266  10.801  33.781  1.00  0.00    -0.021 A 
HETATM   22  S1  UNK     1      15.537  10.853  34.927  1.00  0.00    -0.106 SA
HETATM   23  C16 UNK     1      13.085  11.672  33.964  1.00  0.00     0.056 C 
HETATM   24  C14 UNK     1      16.428   9.666  34.073  1.00  0.00     0.067 A 
ENDBRANCH  16  19
ENDBRANCH  14  15
ENDBRANCH   7  13
TORSDOF 3
ENDMDL
MODEL 7
REMARK VINA RESULT:      -8.0      1.541      1.791
REMARK  3 active torsions:
REMARK  status: ('A' for Active; 'I' for Inactive)
REMARK       I    between atoms: C15_22  and  N1_6 
REMARK    1  A    between atoms: N1_6  and  N2_7 
REMARK    2  A    between atoms: C13_20  and  C4_11 
REMARK    3  A    between atoms: C15_22  and  C8_15 
ROOT
HETATM    1 Cl1  UNK     1      12.776  11.785  34.566  1.00  0.00    -0.084 Cl
HETATM    2  O1  UNK     1      17.918   9.107  33.570  1.00  0.00    -0.321 OA
HETATM    3  O2  UNK     1      14.502   7.163  32.464  1.00  0.00    -0.286 OA
HETATM    4  C1  UNK     1      15.492   9.078  33.428  1.00  0.00     0.050 A 
HETATM    5  C2  UNK     1      16.695   9.692  33.783  1.00  0.00     0.089 A 
HETATM    6  C3  UNK     1      15.525   7.746  32.797  1.00  0.00     0.198 A 
HETATM    7  C4  UNK     1      16.869   7.162  32.591  1.00  0.00     0.056 A 
HETATM    8  C5  UNK     1      14.275   9.722  33.669  1.00  0.00     0.042 A 
HETATM    9  C6  UNK     1      16.686  10.953  34.380  1.00  0.00     0.040 A 
HETATM   10  C7  UNK     1      17.936   7.864  32.982  1.00  0.00     0.159 A 
HETATM   11  C9  UNK     1      14.270  10.983  34.267  1.00  0.00     0.035 A 
HETATM   12  C10 UNK     1      15.473  11.598  34.621  1.00  0.00     0.026 A 
ENDROOT
BRANCH   7  13
HETATM   13  C13 UNK     1      17.096   5.851  31.981  1.00  0.00     0.156 C 
HETATM   14  N2  UNK     1      17.635   4.868  32.627  1.00  0.00    -0.183 NA
BRANCH  14  15
HETATM   15  N1  UNK     1      17.764   3.733  31.899  1.00  0.00    -0.243 N 
HETATM   16  C15 UNK     1      18.736   3.685  30.908  1.00  0.00     0.272 C 
HETATM   17  O3  UNK     1      19.479   4.640  30.672  1.00  0.00    -0.266 OA
HETATM   18  H11 UNK     1      17.122   2.971  32.090  1.00  0.00     0.192 HD
BRANCH  16  19
HETATM   19  C8  UNK     1      18.800   2.432  30.140  1.00  0.00     0.041 A 
HETATM   20  C12 UNK     1      19.644   1.351  30.453  1.00  0.00     0.031 A 
HETATM   21  C11 UNK     1      19.480   0.320  29.553  1.00  0.00    -0.021 A 
HETATM   22  S1  UNK     1      18.312   0.690  28.357  1.00  0.00    -0.106 SA
HETATM   23  C16 UNK     1      20.167  -0.989  29.519  1.00  0.00     0.056 C 
HETATM   24  C14 UNK     1      18.022   2.233  29.041  1.00  0.00     0.067 A 
ENDBRANCH  16  19
ENDBRANCH  14  15
ENDBRANCH   7  13
TORSDOF 3
ENDMDL
MODEL 8
REMARK VINA RESULT:      -7.9      9.511     14.532
REMARK  3 active torsions:
REMARK  status: ('A' for Active; 'I' for Inactive)
REMARK       I    between atoms: C15_22  and  N1_6 
REMARK    1  A    between atoms: N1_6  and  N2_7 
REMARK    2  A    between atoms: C13_20  and  C4_11 
REMARK    3  A    between atoms: C15_22  and  C8_15 
ROOT
HETATM    1 Cl1  UNK     1      22.693 -11.754  35.329  1.00  0.00    -0.084 Cl
HETATM    2  O1  UNK     1      18.899  -8.179  38.055  1.00  0.00    -0.321 OA
HETATM    3  O2  UNK     1      20.940  -6.710  34.837  1.00  0.00    -0.286 OA
HETATM    4  C1  UNK     1      20.524  -8.532  36.281  1.00  0.00     0.050 A 
HETATM    5  C2  UNK     1      19.796  -8.976  37.387  1.00  0.00     0.089 A 
HETATM    6  C3  UNK     1      20.329  -7.151  35.802  1.00  0.00     0.198 A 
HETATM    7  C4  UNK     1      19.353  -6.336  36.557  1.00  0.00     0.056 A 
HETATM    8  C5  UNK     1      21.423  -9.388  35.640  1.00  0.00     0.042 A 
HETATM    9  C6  UNK     1      19.963 -10.279  37.856  1.00  0.00     0.040 A 
HETATM   10  C7  UNK     1      18.728  -6.893  37.599  1.00  0.00     0.159 A 
HETATM   11  C9  UNK     1      21.589 -10.691  36.113  1.00  0.00     0.035 A 
HETATM   12  C10 UNK     1      20.860 -11.136  37.218  1.00  0.00     0.026 A 
ENDROOT
BRANCH   7  13
HETATM   13  C13 UNK     1      19.032  -4.946  36.228  1.00  0.00     0.156 C 
HETATM   14  N2  UNK     1      19.935  -4.022  36.161  1.00  0.00    -0.183 NA
BRANCH  14  15
HETATM   15  N1  UNK     1      19.449  -2.797  35.843  1.00  0.00    -0.243 N 
HETATM   16  C15 UNK     1      19.116  -1.925  36.871  1.00  0.00     0.272 C 
HETATM   17  O3  UNK     1      19.249  -2.231  38.058  1.00  0.00    -0.266 OA
HETATM   18  H11 UNK     1      19.320  -2.579  34.860  1.00  0.00     0.192 HD
BRANCH  16  19
HETATM   19  C8  UNK     1      18.570  -0.625  36.451  1.00  0.00     0.041 A 
HETATM   20  C12 UNK     1      18.720  -0.079  35.164  1.00  0.00     0.031 A 
HETATM   21  C11 UNK     1      18.099   1.148  35.073  1.00  0.00    -0.021 A 
HETATM   22  S1  UNK     1      17.353   1.602  36.546  1.00  0.00    -0.106 SA
HETATM   23  C16 UNK     1      18.016   2.053  33.906  1.00  0.00     0.056 C 
HETATM   24  C14 UNK     1      17.861   0.156  37.310  1.00  0.00     0.067 A 
ENDBRANCH  16  19
ENDBRANCH  14  15
ENDBRANCH   7  13
TORSDOF 3
ENDMDL
MODEL 9
REMARK VINA RESULT:      -7.9      7.962     10.435
REMARK  3 active torsions:
REMARK  status: ('A' for Active; 'I' for Inactive)
REMARK       I    between atoms: C15_22  and  N1_6 
REMARK    1  A    between atoms: N1_6  and  N2_7 
REMARK    2  A    between atoms: C13_20  and  C4_11 
REMARK    3  A    between atoms: C15_22  and  C8_15 
ROOT
HETATM    1 Cl1  UNK     1      18.250   2.771  33.273  1.00  0.00    -0.084 Cl
HETATM    2  O1  UNK     1      18.164  -0.793  37.952  1.00  0.00    -0.321 OA
HETATM    3  O2  UNK     1      19.829  -2.206  34.501  1.00  0.00    -0.286 OA
HETATM    4  C1  UNK     1      18.761  -0.424  35.624  1.00  0.00     0.050 A 
HETATM    5  C2  UNK     1      18.206   0.002  36.833  1.00  0.00     0.089 A 
HETATM    6  C3  UNK     1      19.329  -1.781  35.534  1.00  0.00     0.198 A 
HETATM    7  C4  UNK     1      19.257  -2.596  36.767  1.00  0.00     0.056 A 
HETATM    8  C5  UNK     1      18.777   0.430  34.518  1.00  0.00     0.042 A 
HETATM    9  C6  UNK     1      17.665   1.283  36.941  1.00  0.00     0.040 A 
HETATM   10  C7  UNK     1      18.696  -2.058  37.855  1.00  0.00     0.159 A 
HETATM   11  C9  UNK     1      18.233   1.711  34.629  1.00  0.00     0.035 A 
HETATM   12  C10 UNK     1      17.680   2.137  35.838  1.00  0.00     0.026 A 
ENDROOT
BRANCH   7  13
HETATM   13  C13 UNK     1      19.768  -3.964  36.864  1.00  0.00     0.156 C 
HETATM   14  N2  UNK     1      19.096  -4.987  36.445  1.00  0.00    -0.183 NA
BRANCH  14  15
HETATM   15  N1  UNK     1      19.730  -6.172  36.619  1.00  0.00    -0.243 N 
HETATM   16  C15 UNK     1      19.229  -7.296  35.975  1.00  0.00     0.272 C 
HETATM   17  O3  UNK     1      18.230  -7.247  35.254  1.00  0.00    -0.266 OA
HETATM   18  H11 UNK     1      20.532  -6.195  37.240  1.00  0.00     0.192 HD
BRANCH  16  19
HETATM   19  C8  UNK     1      19.951  -8.552  36.231  1.00  0.00     0.041 A 
HETATM   20  C12 UNK     1      21.145  -8.927  35.591  1.00  0.00     0.031 A 
HETATM   21  C11 UNK     1      21.582 -10.154  36.039  1.00  0.00    -0.021 A 
HETATM   22  S1  UNK     1      20.534 -10.817  37.220  1.00  0.00    -0.106 SA
HETATM   23  C16 UNK     1      22.787 -10.908  35.629  1.00  0.00     0.056 C 
HETATM   24  C14 UNK     1      19.493  -9.461  37.134  1.00  0.00     0.067 A 
ENDBRANCH  16  19
ENDBRANCH  14  15
ENDBRANCH   7  13
TORSDOF 3
ENDMDL
MODEL 10
REMARK VINA RESULT:      -7.9      4.487      9.239
REMARK  3 active torsions:
REMARK  status: ('A' for Active; 'I' for Inactive)
REMARK       I    between atoms: C15_22  and  N1_6 
REMARK    1  A    between atoms: N1_6  and  N2_7 
REMARK    2  A    between atoms: C13_20  and  C4_11 
REMARK    3  A    between atoms: C15_22  and  C8_15 
ROOT
HETATM    1 Cl1  UNK     1      20.243  -0.839  28.562  1.00  0.00    -0.084 Cl
HETATM    2  O1  UNK     1      18.309   1.876  33.409  1.00  0.00    -0.321 OA
HETATM    3  O2  UNK     1      18.807   4.116  30.031  1.00  0.00    -0.286 OA
HETATM    4  C1  UNK     1      18.950   1.998  31.067  1.00  0.00     0.050 A 
HETATM    5  C2  UNK     1      18.759   1.286  32.254  1.00  0.00     0.089 A 
HETATM    6  C3  UNK     1      18.659   3.443  31.043  1.00  0.00     0.198 A 
HETATM    7  C4  UNK     1      18.178   4.028  32.314  1.00  0.00     0.056 A 
HETATM    8  C5  UNK     1      19.410   1.345  29.921  1.00  0.00     0.042 A 
HETATM    9  C6  UNK     1      19.026  -0.082  32.299  1.00  0.00     0.040 A 
HETATM   10  C7  UNK     1      18.042   3.224  33.374  1.00  0.00     0.159 A 
HETATM   11  C9  UNK     1      19.678  -0.024  29.970  1.00  0.00     0.035 A 
HETATM   12  C10 UNK     1      19.486  -0.736  31.156  1.00  0.00     0.026 A 
ENDROOT
BRANCH   7  13
HETATM   13  C13 UNK     1      17.841   5.442  32.478  1.00  0.00     0.156 C 
HETATM   14  N2  UNK     1      18.737   6.349  32.699  1.00  0.00    -0.183 NA
BRANCH  14  15
HETATM   15  N1  UNK     1      18.237   7.602  32.823  1.00  0.00    -0.243 N 
HETATM   16  C15 UNK     1      18.625   8.369  33.914  1.00  0.00     0.272 C 
HETATM   17  O3  UNK     1      19.406   7.945  34.768  1.00  0.00    -0.266 OA
HETATM   18  H11 UNK     1      17.572   7.918  32.125  1.00  0.00     0.192 HD
BRANCH  16  19
HETATM   19  C8  UNK     1      18.020   9.708  33.998  1.00  0.00     0.041 A 
HETATM   20  C12 UNK     1      18.749  10.910  33.987  1.00  0.00     0.031 A 
HETATM   21  C11 UNK     1      17.909  11.998  34.079  1.00  0.00    -0.021 A 
HETATM   22  S1  UNK     1      16.264  11.533  34.175  1.00  0.00    -0.106 SA
HETATM   23  C16 UNK     1      18.261  13.435  34.100  1.00  0.00     0.056 C 
HETATM   24  C14 UNK     1      16.673   9.872  34.095  1.00  0.00     0.067 A 
ENDBRANCH  16  19
ENDBRANCH  14  15
ENDBRANCH   7  13
TORSDOF 3
ENDMDL
