MODEL 1
REMARK VINA RESULT:      -9.1      0.000      0.000
REMARK  3 active torsions:
REMARK  status: ('A' for Active; 'I' for Inactive)
REMARK    1  A    between atoms: C11_18  and  N2_7 
REMARK    2  A    between atoms: C9_16  and  N2_7 
REMARK    3  A    between atoms: C2_9  and  C5_12 
ROOT
HETATM    1  S1  UNK     1      17.638  -1.963  36.910  1.00  0.00    -0.061 SA
HETATM    2  N1  UNK     1      19.553  -1.260  35.322  1.00  0.00    -0.223 NA
HETATM    3  C5  UNK     1      18.411  -0.597  34.928  1.00  0.00     0.082 A 
HETATM    4  C9  UNK     1      19.263  -2.012  36.361  1.00  0.00     0.171 A 
HETATM    5  C10 UNK     1      17.275  -0.845  35.661  1.00  0.00     0.086 A 
ENDROOT
BRANCH   3   6
HETATM    6  C2  UNK     1      18.474   0.295  33.798  1.00  0.00     0.070 A 
HETATM    7  C3  UNK     1      18.294   1.619  33.929  1.00  0.00     0.034 A 
HETATM    8  C1  UNK     1      18.364   2.514  32.786  1.00  0.00     0.000 A 
HETATM    9  C4  UNK     1      18.628   1.980  31.533  1.00  0.00     0.089 A 
HETATM   10  C7  UNK     1      18.177   3.894  32.906  1.00  0.00     0.033 A 
HETATM   11  O1  UNK     1      18.820   0.595  31.377  1.00  0.00    -0.274 OA
HETATM   12  C8  UNK     1      18.713   2.781  30.396  1.00  0.00     0.039 A 
HETATM   13  C6  UNK     1      18.743  -0.290  32.449  1.00  0.00     0.301 A 
HETATM   14  O2  UNK     1      18.887  -1.497  32.277  1.00  0.00    -0.259 OA
HETATM   15  C13 UNK     1      18.526   4.154  30.522  1.00  0.00     0.022 A 
HETATM   16  C12 UNK     1      18.257   4.711  31.775  1.00  0.00     0.011 A 
HETATM   17 Br1  UNK     1      18.009   6.578  31.941  1.00  0.00    -0.051 Br
ENDBRANCH   3   6
BRANCH   4  18
HETATM   18  N2  UNK     1      20.160  -2.804  37.007  1.00  0.00    -0.335 N 
HETATM   19  H5  UNK     1      20.739  -2.366  37.719  1.00  0.00     0.168 HD
BRANCH  18  20
HETATM   20  C11 UNK     1      20.398  -4.198  36.889  1.00  0.00     0.034 A 
HETATM   21  C14 UNK     1      21.220  -4.838  37.810  1.00  0.00     0.031 A 
HETATM   22  C16 UNK     1      21.453  -6.208  37.692  1.00  0.00     0.021 A 
HETATM   23  C18 UNK     1      20.863  -6.930  36.655  1.00  0.00     0.011 A 
HETATM   24 Br2  UNK     1      21.181  -8.787  36.496  1.00  0.00    -0.051 Br
HETATM   25  C17 UNK     1      20.039  -6.282  35.735  1.00  0.00     0.021 A 
HETATM   26  C15 UNK     1      19.806  -4.912  35.852  1.00  0.00     0.031 A 
ENDBRANCH  18  20
ENDBRANCH   4  18
TORSDOF 3
ENDMDL
MODEL 2
REMARK VINA RESULT:      -8.8      2.420      3.164
REMARK  3 active torsions:
REMARK  status: ('A' for Active; 'I' for Inactive)
REMARK    1  A    between atoms: C11_18  and  N2_7 
REMARK    2  A    between atoms: C9_16  and  N2_7 
REMARK    3  A    between atoms: C2_9  and  C5_12 
ROOT
HETATM    1  S1  UNK     1      19.158  -2.395  37.284  1.00  0.00    -0.061 SA
HETATM    2  N1  UNK     1      20.563  -3.345  35.334  1.00  0.00    -0.223 NA
HETATM    3  C5  UNK     1      19.806  -2.305  34.842  1.00  0.00     0.082 A 
HETATM    4  C9  UNK     1      20.302  -3.484  36.615  1.00  0.00     0.171 A 
HETATM    5  C10 UNK     1      18.984  -1.667  35.740  1.00  0.00     0.086 A 
ENDROOT
BRANCH   3   6
HETATM    6  C2  UNK     1      19.917  -1.957  33.447  1.00  0.00     0.070 A 
HETATM    7  C3  UNK     1      19.338  -0.854  32.945  1.00  0.00     0.034 A 
HETATM    8  C1  UNK     1      19.457  -0.506  31.539  1.00  0.00     0.000 A 
HETATM    9  C4  UNK     1      20.192  -1.335  30.704  1.00  0.00     0.089 A 
HETATM   10  C7  UNK     1      18.859   0.636  30.999  1.00  0.00     0.033 A 
HETATM   11  O1  UNK     1      20.805  -2.494  31.214  1.00  0.00    -0.274 OA
HETATM   12  C8  UNK     1      20.350  -1.058  29.347  1.00  0.00     0.039 A 
HETATM   13  C6  UNK     1      20.696  -2.864  32.552  1.00  0.00     0.301 A 
HETATM   14  O2  UNK     1      21.219  -3.896  32.961  1.00  0.00    -0.259 OA
HETATM   15  C13 UNK     1      19.752   0.081  28.816  1.00  0.00     0.022 A 
HETATM   16  C12 UNK     1      19.007   0.928  29.640  1.00  0.00     0.011 A 
HETATM   17 Br1  UNK     1      18.201   2.477  28.915  1.00  0.00    -0.051 Br
ENDBRANCH   3   6
BRANCH   4  18
HETATM   18  N2  UNK     1      20.878  -4.419  37.417  1.00  0.00    -0.335 N 
HETATM   19  H5  UNK     1      21.626  -4.108  38.032  1.00  0.00     0.168 HD
BRANCH  18  20
HETATM   20  C11 UNK     1      20.566  -5.793  37.585  1.00  0.00     0.034 A 
HETATM   21  C14 UNK     1      20.576  -6.642  36.483  1.00  0.00     0.031 A 
HETATM   22  C16 UNK     1      20.269  -7.993  36.649  1.00  0.00     0.021 A 
HETATM   23  C18 UNK     1      19.955  -8.487  37.915  1.00  0.00     0.011 A 
HETATM   24 Br2  UNK     1      19.538 -10.317  38.139  1.00  0.00    -0.051 Br
HETATM   25  C17 UNK     1      19.948  -7.630  39.016  1.00  0.00     0.021 A 
HETATM   26  C15 UNK     1      20.254  -6.279  38.850  1.00  0.00     0.031 A 
ENDBRANCH  18  20
ENDBRANCH   4  18
TORSDOF 3
ENDMDL
MODEL 3
REMARK VINA RESULT:      -8.6     26.619     27.834
REMARK  3 active torsions:
REMARK  status: ('A' for Active; 'I' for Inactive)
REMARK    1  A    between atoms: C11_18  and  N2_7 
REMARK    2  A    between atoms: C9_16  and  N2_7 
REMARK    3  A    between atoms: C2_9  and  C5_12 
ROOT
HETATM    1  S1  UNK     1       9.243   6.226   6.886  1.00  0.00    -0.061 SA
HETATM    2  N1  UNK     1      10.055   7.082   9.186  1.00  0.00    -0.223 NA
HETATM    3  C5  UNK     1      11.150   6.999   8.355  1.00  0.00     0.082 A 
HETATM    4  C9  UNK     1       8.991   6.697   8.517  1.00  0.00     0.171 A 
HETATM    5  C10 UNK     1      10.916   6.557   7.075  1.00  0.00     0.086 A 
ENDROOT
BRANCH   3   6
HETATM    6  C2  UNK     1      12.446   7.370   8.865  1.00  0.00     0.070 A 
HETATM    7  C3  UNK     1      13.108   8.444   8.405  1.00  0.00     0.034 A 
HETATM    8  C1  UNK     1      14.413   8.816   8.927  1.00  0.00     0.000 A 
HETATM    9  C4  UNK     1      14.978   8.040   9.929  1.00  0.00     0.089 A 
HETATM   10  C7  UNK     1      15.116   9.928   8.457  1.00  0.00     0.033 A 
HETATM   11  O1  UNK     1      14.299   6.912  10.423  1.00  0.00    -0.274 OA
HETATM   12  C8  UNK     1      16.224   8.342  10.477  1.00  0.00     0.039 A 
HETATM   13  C6  UNK     1      13.056   6.520   9.932  1.00  0.00     0.301 A 
HETATM   14  O2  UNK     1      12.500   5.514  10.364  1.00  0.00    -0.259 OA
HETATM   15  C13 UNK     1      16.918   9.452  10.004  1.00  0.00     0.022 A 
HETATM   16  C12 UNK     1      16.366  10.244   8.996  1.00  0.00     0.011 A 
HETATM   17 Br1  UNK     1      17.311  11.754   8.361  1.00  0.00    -0.051 Br
ENDBRANCH   3   6
BRANCH   4  18
HETATM   18  N2  UNK     1       7.734   6.656   9.034  1.00  0.00    -0.335 N 
HETATM   19  H5  UNK     1       7.092   7.395   8.756  1.00  0.00     0.168 HD
BRANCH  18  20
HETATM   20  C11 UNK     1       7.128   5.695   9.885  1.00  0.00     0.034 A 
HETATM   21  C14 UNK     1       7.023   4.374   9.467  1.00  0.00     0.031 A 
HETATM   22  C16 UNK     1       6.427   3.430  10.304  1.00  0.00     0.021 A 
HETATM   23  C18 UNK     1       5.941   3.813  11.553  1.00  0.00     0.011 A 
HETATM   24 Br2  UNK     1       5.132   2.535  12.686  1.00  0.00    -0.051 Br
HETATM   25  C17 UNK     1       6.051   5.141  11.967  1.00  0.00     0.021 A 
HETATM   26  C15 UNK     1       6.646   6.085  11.130  1.00  0.00     0.031 A 
ENDBRANCH  18  20
ENDBRANCH   4  18
TORSDOF 3
ENDMDL
MODEL 4
REMARK VINA RESULT:      -8.6      4.744      6.982
REMARK  3 active torsions:
REMARK  status: ('A' for Active; 'I' for Inactive)
REMARK    1  A    between atoms: C11_18  and  N2_7 
REMARK    2  A    between atoms: C9_16  and  N2_7 
REMARK    3  A    between atoms: C2_9  and  C5_12 
ROOT
HETATM    1  S1  UNK     1      18.809   2.910  30.162  1.00  0.00    -0.061 SA
HETATM    2  N1  UNK     1      18.147   3.728  32.523  1.00  0.00    -0.223 NA
HETATM    3  C5  UNK     1      18.311   4.836  31.722  1.00  0.00     0.082 A 
HETATM    4  C9  UNK     1      18.385   2.653  31.804  1.00  0.00     0.171 A 
HETATM    5  C10 UNK     1      18.669   4.601  30.416  1.00  0.00     0.086 A 
ENDROOT
BRANCH   3   6
HETATM    6  C2  UNK     1      18.106   6.146  32.289  1.00  0.00     0.070 A 
HETATM    7  C3  UNK     1      16.916   6.765  32.226  1.00  0.00     0.034 A 
HETATM    8  C1  UNK     1      16.713   8.084  32.803  1.00  0.00     0.000 A 
HETATM    9  C4  UNK     1      17.779   8.708  33.437  1.00  0.00     0.089 A 
HETATM   10  C7  UNK     1      15.483   8.744  32.745  1.00  0.00     0.033 A 
HETATM   11  O1  UNK     1      19.032   8.073  33.512  1.00  0.00    -0.274 OA
HETATM   12  C8  UNK     1      17.653   9.969  34.015  1.00  0.00     0.039 A 
HETATM   13  C6  UNK     1      19.262   6.818  32.954  1.00  0.00     0.301 A 
HETATM   14  O2  UNK     1      20.374   6.301  33.011  1.00  0.00    -0.259 OA
HETATM   15  C13 UNK     1      16.424  10.621  33.954  1.00  0.00     0.022 A 
HETATM   16  C12 UNK     1      15.340  10.010  33.320  1.00  0.00     0.011 A 
HETATM   17 Br1  UNK     1      13.672  10.897  33.244  1.00  0.00    -0.051 Br
ENDBRANCH   3   6
BRANCH   4  18
HETATM   18  N2  UNK     1      18.312   1.381  32.280  1.00  0.00    -0.335 N 
HETATM   19  H5  UNK     1      18.350   0.627  31.600  1.00  0.00     0.168 HD
BRANCH  18  20
HETATM   20  C11 UNK     1      18.242   0.910  33.617  1.00  0.00     0.034 A 
HETATM   21  C14 UNK     1      18.310   1.815  34.672  1.00  0.00     0.031 A 
HETATM   22  C16 UNK     1      18.241   1.351  35.986  1.00  0.00     0.021 A 
HETATM   23  C18 UNK     1      18.104  -0.014  36.237  1.00  0.00     0.011 A 
HETATM   24 Br2  UNK     1      18.013  -0.642  38.018  1.00  0.00    -0.051 Br
HETATM   25  C17 UNK     1      18.036  -0.916  35.175  1.00  0.00     0.021 A 
HETATM   26  C15 UNK     1      18.105  -0.452  33.861  1.00  0.00     0.031 A 
ENDBRANCH  18  20
ENDBRANCH   4  18
TORSDOF 3
ENDMDL
MODEL 5
REMARK VINA RESULT:      -8.5     26.937     28.180
REMARK  3 active torsions:
REMARK  status: ('A' for Active; 'I' for Inactive)
REMARK    1  A    between atoms: C11_18  and  N2_7 
REMARK    2  A    between atoms: C9_16  and  N2_7 
REMARK    3  A    between atoms: C2_9  and  C5_12 
ROOT
HETATM    1  S1  UNK     1       9.983   6.489   6.070  1.00  0.00    -0.061 SA
HETATM    2  N1  UNK     1      10.065   5.458   8.440  1.00  0.00    -0.223 NA
HETATM    3  C5  UNK     1       8.766   5.842   8.190  1.00  0.00     0.082 A 
HETATM    4  C9  UNK     1      10.798   5.752   7.388  1.00  0.00     0.171 A 
HETATM    5  C10 UNK     1       8.521   6.419   6.966  1.00  0.00     0.086 A 
ENDROOT
BRANCH   3   6
HETATM    6  C2  UNK     1       7.764   5.625   9.204  1.00  0.00     0.070 A 
HETATM    7  C3  UNK     1       7.528   6.525  10.171  1.00  0.00     0.034 A 
HETATM    8  C1  UNK     1       6.513   6.303  11.188  1.00  0.00     0.000 A 
HETATM    9  C4  UNK     1       5.772   5.130  11.147  1.00  0.00     0.089 A 
HETATM   10  C7  UNK     1       6.257   7.228  12.202  1.00  0.00     0.033 A 
HETATM   11  O1  UNK     1       6.006   4.176  10.141  1.00  0.00    -0.274 OA
HETATM   12  C8  UNK     1       4.781   4.854  12.088  1.00  0.00     0.039 A 
HETATM   13  C6  UNK     1       6.982   4.352   9.163  1.00  0.00     0.301 A 
HETATM   14  O2  UNK     1       7.182   3.488   8.314  1.00  0.00    -0.259 OA
HETATM   15  C13 UNK     1       4.531   5.781  13.096  1.00  0.00     0.022 A 
HETATM   16  C12 UNK     1       5.267   6.967  13.154  1.00  0.00     0.011 A 
HETATM   17 Br1  UNK     1       4.919   8.225  14.522  1.00  0.00    -0.051 Br
ENDBRANCH   3   6
BRANCH   4  18
HETATM   18  N2  UNK     1      12.131   5.506   7.292  1.00  0.00    -0.335 N 
HETATM   19  H5  UNK     1      12.441   4.914   6.525  1.00  0.00     0.168 HD
BRANCH  18  20
HETATM   20  C11 UNK     1      13.208   5.996   8.076  1.00  0.00     0.034 A 
HETATM   21  C14 UNK     1      13.408   7.366   8.195  1.00  0.00     0.031 A 
HETATM   22  C16 UNK     1      14.467   7.846   8.966  1.00  0.00     0.021 A 
HETATM   23  C18 UNK     1      15.319   6.953   9.614  1.00  0.00     0.011 A 
HETATM   24 Br2  UNK     1      16.755   7.603  10.658  1.00  0.00    -0.051 Br
HETATM   25  C17 UNK     1      15.112   5.578   9.492  1.00  0.00     0.021 A 
HETATM   26  C15 UNK     1      14.054   5.098   8.720  1.00  0.00     0.031 A 
ENDBRANCH  18  20
ENDBRANCH   4  18
TORSDOF 3
ENDMDL
MODEL 6
REMARK VINA RESULT:      -8.5      5.532      7.877
REMARK  3 active torsions:
REMARK  status: ('A' for Active; 'I' for Inactive)
REMARK    1  A    between atoms: C11_18  and  N2_7 
REMARK    2  A    between atoms: C9_16  and  N2_7 
REMARK    3  A    between atoms: C2_9  and  C5_12 
ROOT
HETATM    1  S1  UNK     1      18.933   4.050  30.628  1.00  0.00    -0.061 SA
HETATM    2  N1  UNK     1      17.712   4.759  32.793  1.00  0.00    -0.223 NA
HETATM    3  C5  UNK     1      18.026   5.902  32.091  1.00  0.00     0.082 A 
HETATM    4  C9  UNK     1      18.144   3.719  32.115  1.00  0.00     0.171 A 
HETATM    5  C10 UNK     1      18.686   5.726  30.898  1.00  0.00     0.086 A 
ENDROOT
BRANCH   3   6
HETATM    6  C2  UNK     1      17.654   7.183  32.637  1.00  0.00     0.070 A 
HETATM    7  C3  UNK     1      16.436   7.712  32.436  1.00  0.00     0.034 A 
HETATM    8  C1  UNK     1      16.065   9.002  32.993  1.00  0.00     0.000 A 
HETATM    9  C4  UNK     1      16.997   9.695  33.754  1.00  0.00     0.089 A 
HETATM   10  C7  UNK     1      14.804   9.568  32.791  1.00  0.00     0.033 A 
HETATM   11  O1  UNK     1      18.277   9.156  33.974  1.00  0.00    -0.274 OA
HETATM   12  C8  UNK     1      16.706  10.935  34.320  1.00  0.00     0.039 A 
HETATM   13  C6  UNK     1      18.668   7.931  33.441  1.00  0.00     0.301 A 
HETATM   14  O2  UNK     1      19.802   7.499  33.627  1.00  0.00    -0.259 OA
HETATM   15  C13 UNK     1      15.447  11.492  34.116  1.00  0.00     0.022 A 
HETATM   16  C12 UNK     1      14.496  10.811  33.352  1.00  0.00     0.011 A 
HETATM   17 Br1  UNK     1      12.786  11.570  33.082  1.00  0.00    -0.051 Br
ENDBRANCH   3   6
BRANCH   4  18
HETATM   18  N2  UNK     1      18.000   2.428  32.518  1.00  0.00    -0.335 N 
HETATM   19  H5  UNK     1      17.959   1.716  31.793  1.00  0.00     0.168 HD
BRANCH  18  20
HETATM   20  C11 UNK     1      17.948   1.881  33.827  1.00  0.00     0.034 A 
HETATM   21  C14 UNK     1      18.666   2.483  34.855  1.00  0.00     0.031 A 
HETATM   22  C16 UNK     1      18.614   1.944  36.141  1.00  0.00     0.021 A 
HETATM   23  C18 UNK     1      17.845   0.809  36.391  1.00  0.00     0.011 A 
HETATM   24 Br2  UNK     1      17.777   0.078  38.133  1.00  0.00    -0.051 Br
HETATM   25  C17 UNK     1      17.126   0.211  35.355  1.00  0.00     0.021 A 
HETATM   26  C15 UNK     1      17.178   0.748  34.069  1.00  0.00     0.031 A 
ENDBRANCH  18  20
ENDBRANCH   4  18
TORSDOF 3
ENDMDL
MODEL 7
REMARK VINA RESULT:      -8.5      9.737     12.248
REMARK  3 active torsions:
REMARK  status: ('A' for Active; 'I' for Inactive)
REMARK    1  A    between atoms: C11_18  and  N2_7 
REMARK    2  A    between atoms: C9_16  and  N2_7 
REMARK    3  A    between atoms: C2_9  and  C5_12 
ROOT
HETATM    1  S1  UNK     1      26.876  -9.331  39.452  1.00  0.00    -0.061 SA
HETATM    2  N1  UNK     1      26.918  -7.628  37.508  1.00  0.00    -0.223 NA
HETATM    3  C5  UNK     1      28.046  -7.427  38.271  1.00  0.00     0.082 A 
HETATM    4  C9  UNK     1      26.223  -8.611  38.038  1.00  0.00     0.171 A 
HETATM    5  C10 UNK     1      28.202  -8.247  39.363  1.00  0.00     0.086 A 
ENDROOT
BRANCH   3   6
HETATM    6  C2  UNK     1      28.974  -6.391  37.889  1.00  0.00     0.070 A 
HETATM    7  C3  UNK     1      30.062  -6.654  37.148  1.00  0.00     0.034 A 
HETATM    8  C1  UNK     1      30.992  -5.605  36.762  1.00  0.00     0.000 A 
HETATM    9  C4  UNK     1      30.737  -4.303  37.169  1.00  0.00     0.089 A 
HETATM   10  C7  UNK     1      32.130  -5.862  35.993  1.00  0.00     0.033 A 
HETATM   11  O1  UNK     1      29.602  -4.010  37.945  1.00  0.00    -0.274 OA
HETATM   12  C8  UNK     1      31.584  -3.249  36.830  1.00  0.00     0.039 A 
HETATM   13  C6  UNK     1      28.702  -4.995  38.345  1.00  0.00     0.301 A 
HETATM   14  O2  UNK     1      27.735  -4.713  39.047  1.00  0.00    -0.259 OA
HETATM   15  C13 UNK     1      32.716  -3.512  36.064  1.00  0.00     0.022 A 
HETATM   16  C12 UNK     1      32.990  -4.816  35.646  1.00  0.00     0.011 A 
HETATM   17 Br1  UNK     1      34.526  -5.166  34.601  1.00  0.00    -0.051 Br
ENDBRANCH   3   6
BRANCH   4  18
HETATM   18  N2  UNK     1      25.048  -9.076  37.537  1.00  0.00    -0.335 N 
HETATM   19  H5  UNK     1      25.083  -9.927  36.982  1.00  0.00     0.168 HD
BRANCH  18  20
HETATM   20  C11 UNK     1      23.727  -8.586  37.706  1.00  0.00     0.034 A 
HETATM   21  C14 UNK     1      22.752  -8.890  36.762  1.00  0.00     0.031 A 
HETATM   22  C16 UNK     1      21.454  -8.407  36.929  1.00  0.00     0.021 A 
HETATM   23  C18 UNK     1      21.138  -7.624  38.038  1.00  0.00     0.011 A 
HETATM   24 Br2  UNK     1      19.379  -6.968  38.263  1.00  0.00    -0.051 Br
HETATM   25  C17 UNK     1      22.121  -7.322  38.982  1.00  0.00     0.021 A 
HETATM   26  C15 UNK     1      23.419  -7.804  38.815  1.00  0.00     0.031 A 
ENDBRANCH  18  20
ENDBRANCH   4  18
TORSDOF 3
ENDMDL
MODEL 8
REMARK VINA RESULT:      -8.4      6.473      8.820
REMARK  3 active torsions:
REMARK  status: ('A' for Active; 'I' for Inactive)
REMARK    1  A    between atoms: C11_18  and  N2_7 
REMARK    2  A    between atoms: C9_16  and  N2_7 
REMARK    3  A    between atoms: C2_9  and  C5_12 
ROOT
HETATM    1  S1  UNK     1      19.248   5.137  31.059  1.00  0.00    -0.061 SA
HETATM    2  N1  UNK     1      17.019   5.305  32.357  1.00  0.00    -0.223 NA
HETATM    3  C5  UNK     1      17.636   6.535  32.416  1.00  0.00     0.082 A 
HETATM    4  C9  UNK     1      17.780   4.487  31.665  1.00  0.00     0.171 A 
HETATM    5  C10 UNK     1      18.848   6.643  31.776  1.00  0.00     0.086 A 
ENDROOT
BRANCH   3   6
HETATM    6  C2  UNK     1      16.991   7.609  33.129  1.00  0.00     0.070 A 
HETATM    7  C3  UNK     1      15.907   8.233  32.640  1.00  0.00     0.034 A 
HETATM    8  C1  UNK     1      15.258   9.312  33.366  1.00  0.00     0.000 A 
HETATM    9  C4  UNK     1      15.774   9.697  34.596  1.00  0.00     0.089 A 
HETATM   10  C7  UNK     1      14.131   9.973  32.871  1.00  0.00     0.033 A 
HETATM   11  O1  UNK     1      16.909   9.053  35.123  1.00  0.00    -0.274 OA
HETATM   12  C8  UNK     1      15.199  10.720  35.346  1.00  0.00     0.039 A 
HETATM   13  C6  UNK     1      17.563   8.028  34.444  1.00  0.00     0.301 A 
HETATM   14  O2  UNK     1      18.568   7.505  34.917  1.00  0.00    -0.259 OA
HETATM   15  C13 UNK     1      14.076  11.375  34.847  1.00  0.00     0.022 A 
HETATM   16  C12 UNK     1      13.542  11.003  33.611  1.00  0.00     0.011 A 
HETATM   17 Br1  UNK     1      12.014  11.891  32.940  1.00  0.00    -0.051 Br
ENDBRANCH   3   6
BRANCH   4  18
HETATM   18  N2  UNK     1      17.473   3.188  31.408  1.00  0.00    -0.335 N 
HETATM   19  H5  UNK     1      16.528   2.881  31.624  1.00  0.00     0.168 HD
BRANCH  18  20
HETATM   20  C11 UNK     1      18.261   2.163  30.821  1.00  0.00     0.034 A 
HETATM   21  C14 UNK     1      19.035   1.339  31.631  1.00  0.00     0.031 A 
HETATM   22  C16 UNK     1      19.809   0.333  31.054  1.00  0.00     0.021 A 
HETATM   23  C18 UNK     1      19.804   0.155  29.671  1.00  0.00     0.011 A 
HETATM   24 Br2  UNK     1      20.855  -1.207  28.888  1.00  0.00    -0.051 Br
HETATM   25  C17 UNK     1      19.024   0.985  28.864  1.00  0.00     0.021 A 
HETATM   26  C15 UNK     1      18.251   1.992  29.441  1.00  0.00     0.031 A 
ENDBRANCH  18  20
ENDBRANCH   4  18
TORSDOF 3
ENDMDL
MODEL 9
REMARK VINA RESULT:      -8.3     26.898     28.153
REMARK  3 active torsions:
REMARK  status: ('A' for Active; 'I' for Inactive)
REMARK    1  A    between atoms: C11_18  and  N2_7 
REMARK    2  A    between atoms: C9_16  and  N2_7 
REMARK    3  A    between atoms: C2_9  and  C5_12 
ROOT
HETATM    1  S1  UNK     1       9.958   6.181   5.943  1.00  0.00    -0.061 SA
HETATM    2  N1  UNK     1      10.366   6.008   8.490  1.00  0.00    -0.223 NA
HETATM    3  C5  UNK     1       9.016   6.189   8.289  1.00  0.00     0.082 A 
HETATM    4  C9  UNK     1      10.965   5.988   7.319  1.00  0.00     0.171 A 
HETATM    5  C10 UNK     1       8.600   6.304   6.983  1.00  0.00     0.086 A 
ENDROOT
BRANCH   3   6
HETATM    6  C2  UNK     1       8.139   6.246   9.432  1.00  0.00     0.070 A 
HETATM    7  C3  UNK     1       7.562   5.145   9.938  1.00  0.00     0.034 A 
HETATM    8  C1  UNK     1       6.683   5.209  11.094  1.00  0.00     0.000 A 
HETATM    9  C4  UNK     1       6.444   6.441  11.686  1.00  0.00     0.089 A 
HETATM   10  C7  UNK     1       6.072   4.073  11.631  1.00  0.00     0.033 A 
HETATM   11  O1  UNK     1       7.041   7.605  11.169  1.00  0.00    -0.274 OA
HETATM   12  C8  UNK     1       5.616   6.573  12.799  1.00  0.00     0.039 A 
HETATM   13  C6  UNK     1       7.874   7.579  10.053  1.00  0.00     0.301 A 
HETATM   14  O2  UNK     1       8.358   8.616   9.608  1.00  0.00    -0.259 OA
HETATM   15  C13 UNK     1       5.011   5.437  13.329  1.00  0.00     0.022 A 
HETATM   16  C12 UNK     1       5.238   4.188  12.746  1.00  0.00     0.011 A 
HETATM   17 Br1  UNK     1       4.418   2.648  13.474  1.00  0.00    -0.051 Br
ENDBRANCH   3   6
BRANCH   4  18
HETATM   18  N2  UNK     1      12.303   5.825   7.146  1.00  0.00    -0.335 N 
HETATM   19  H5  UNK     1      12.610   5.372   6.289  1.00  0.00     0.168 HD
BRANCH  18  20
HETATM   20  C11 UNK     1      13.386   6.241   7.964  1.00  0.00     0.034 A 
HETATM   21  C14 UNK     1      14.223   5.289   8.537  1.00  0.00     0.031 A 
HETATM   22  C16 UNK     1      15.287   5.699   9.341  1.00  0.00     0.021 A 
HETATM   23  C18 UNK     1      15.508   7.057   9.567  1.00  0.00     0.011 A 
HETATM   24 Br2  UNK     1      16.949   7.611  10.657  1.00  0.00    -0.051 Br
HETATM   25  C17 UNK     1      14.665   8.007   8.988  1.00  0.00     0.021 A 
HETATM   26  C15 UNK     1      13.601   7.597   8.185  1.00  0.00     0.031 A 
ENDBRANCH  18  20
ENDBRANCH   4  18
TORSDOF 3
ENDMDL
MODEL 10
REMARK VINA RESULT:      -8.3     26.773     29.303
REMARK  3 active torsions:
REMARK  status: ('A' for Active; 'I' for Inactive)
REMARK    1  A    between atoms: C11_18  and  N2_7 
REMARK    2  A    between atoms: C9_16  and  N2_7 
REMARK    3  A    between atoms: C2_9  and  C5_12 
ROOT
HETATM    1  S1  UNK     1      17.263  11.931  10.595  1.00  0.00    -0.061 SA
HETATM    2  N1  UNK     1      17.613   9.879   9.063  1.00  0.00    -0.223 NA
HETATM    3  C5  UNK     1      16.412   9.719   9.717  1.00  0.00     0.082 A 
HETATM    4  C9  UNK     1      18.152  11.014   9.450  1.00  0.00     0.171 A 
HETATM    5  C10 UNK     1      16.048  10.720  10.586  1.00  0.00     0.086 A 
ENDROOT
BRANCH   3   6
HETATM    6  C2  UNK     1      15.626   8.538   9.458  1.00  0.00     0.070 A 
HETATM    7  C3  UNK     1      14.544   8.567   8.664  1.00  0.00     0.034 A 
HETATM    8  C1  UNK     1      13.758   7.372   8.403  1.00  0.00     0.000 A 
HETATM    9  C4  UNK     1      14.147   6.175   8.989  1.00  0.00     0.089 A 
HETATM   10  C7  UNK     1      12.628   7.386   7.582  1.00  0.00     0.033 A 
HETATM   11  O1  UNK     1      15.278   6.127   9.823  1.00  0.00    -0.274 OA
HETATM   12  C8  UNK     1      13.442   4.992   8.778  1.00  0.00     0.039 A 
HETATM   13  C6  UNK     1      16.041   7.256  10.106  1.00  0.00     0.301 A 
HETATM   14  O2  UNK     1      17.006   7.188  10.861  1.00  0.00    -0.259 OA
HETATM   15  C13 UNK     1      12.317   5.013   7.958  1.00  0.00     0.022 A 
HETATM   16  C12 UNK     1      11.910   6.207   7.361  1.00  0.00     0.011 A 
HETATM   17 Br1  UNK     1      10.384   6.229   6.244  1.00  0.00    -0.051 Br
ENDBRANCH   3   6
BRANCH   4  18
HETATM   18  N2  UNK     1      19.345  11.488   9.001  1.00  0.00    -0.335 N 
HETATM   19  H5  UNK     1      20.168  11.283   9.562  1.00  0.00     0.168 HD
BRANCH  18  20
HETATM   20  C11 UNK     1      19.654  12.202   7.813  1.00  0.00     0.034 A 
HETATM   21  C14 UNK     1      20.827  12.945   7.742  1.00  0.00     0.031 A 
HETATM   22  C16 UNK     1      21.129  13.647   6.574  1.00  0.00     0.021 A 
HETATM   23  C18 UNK     1      20.258  13.600   5.486  1.00  0.00     0.011 A 
HETATM   24 Br2  UNK     1      20.668  14.552   3.906  1.00  0.00    -0.051 Br
HETATM   25  C17 UNK     1      19.084  12.851   5.565  1.00  0.00     0.021 A 
HETATM   26  C15 UNK     1      18.780  12.151   6.732  1.00  0.00     0.031 A 
ENDBRANCH  18  20
ENDBRANCH   4  18
TORSDOF 3
ENDMDL
