MODEL 1
REMARK VINA RESULT:     -10.4      0.000      0.000
REMARK  7 active torsions:
REMARK  status: ('A' for Active; 'I' for Inactive)
REMARK    1  A    between atoms: C24_32  and  O4_4 
REMARK    2  A    between atoms: C26_34  and  O5_5 
REMARK    3  A    between atoms: C5_13  and  N1_6 
REMARK    4  A    between atoms: C6_14  and  N2_7 
REMARK    5  A    between atoms: C5_13  and  C7_15 
REMARK    6  A    between atoms: C6_14  and  C8_16 
REMARK    7  A    between atoms: C14_22  and  C20_28 
ROOT
HETATM    1  N1  UNK     1      18.079   5.622  31.591  1.00  0.00     0.096 N 
HETATM    2  N2  UNK     1      18.999   3.069  30.590  1.00  0.00     0.097 N 
HETATM    3  C1  UNK     1      19.178   5.534  30.621  1.00  0.00     0.303 C 
HETATM    4  C2  UNK     1      18.036   4.415  32.426  1.00  0.00     0.303 C 
HETATM    5  C3  UNK     1      19.044   4.276  29.756  1.00  0.00     0.303 C 
HETATM    6  C4  UNK     1      17.900   3.157  31.560  1.00  0.00     0.303 C 
ENDROOT
BRANCH   2   7
HETATM    7  C6  UNK     1      18.866   1.871  29.763  1.00  0.00     0.334 C 
BRANCH   7   8
HETATM    8  C8  UNK     1      19.280   0.676  30.558  1.00  0.00     0.095 A 
HETATM    9  C10 UNK     1      20.007  -0.418  30.159  1.00  0.00     0.078 A 
HETATM   10  C16 UNK     1      20.633  -0.845  28.903  1.00  0.00     0.079 C 
HETATM   11  O1  UNK     1      20.134  -1.250  31.230  1.00  0.00    -0.294 OA
HETATM   12  C14 UNK     1      19.467  -0.598  32.220  1.00  0.00     0.180 A 
HETATM   13  N3  UNK     1      18.937   0.555  31.880  1.00  0.00    -0.224 NA
BRANCH  12  14
HETATM   14  C20 UNK     1      19.445  -1.272  33.489  1.00  0.00     0.020 A 
HETATM   15  C22 UNK     1      18.594  -0.828  34.501  1.00  0.00     0.055 A 
HETATM   16  C24 UNK     1      18.573  -1.482  35.733  1.00  0.00     0.102 A 
HETATM   17  C26 UNK     1      19.401  -2.582  35.952  1.00  0.00     0.101 A 
HETATM   18  C25 UNK     1      20.252  -3.027  34.940  1.00  0.00     0.040 A 
HETATM   19  C23 UNK     1      20.274  -2.373  33.708  1.00  0.00     0.019 A 
BRANCH  16  20
HETATM   20  O4  UNK     1      17.737  -1.038  36.713  1.00  0.00    -0.353 OA
HETATM   21  C27 UNK     1      17.851   0.333  37.091  1.00  0.00     0.210 C 
ENDBRANCH  16  20
BRANCH  17  22
HETATM   22  O5  UNK     1      19.390  -3.230  37.150  1.00  0.00    -0.353 OA
HETATM   23  C28 UNK     1      20.575  -3.931  37.520  1.00  0.00     0.210 C 
ENDBRANCH  17  22
ENDBRANCH  12  14
ENDBRANCH   7   8
ENDBRANCH   2   7
BRANCH   1  24
HETATM   24  C5  UNK     1      18.210   6.820  32.417  1.00  0.00     0.312 C 
BRANCH  24  25
HETATM   25  C7  UNK     1      16.907   7.514  32.612  1.00  0.00    -0.011 A 
HETATM   26  C11 UNK     1      15.753   6.937  32.245  1.00  0.00     0.092 A 
HETATM   27  C15 UNK     1      14.442   7.583  32.418  1.00  0.00     0.288 A 
HETATM   28  O2  UNK     1      14.441   8.847  32.990  1.00  0.00    -0.275 OA
HETATM   29  O3  UNK     1      13.407   7.026  32.071  1.00  0.00    -0.260 OA
HETATM   30  C12 UNK     1      15.637   9.478  33.386  1.00  0.00     0.090 A 
HETATM   31  C9  UNK     1      16.873   8.852  33.215  1.00  0.00     0.006 A 
HETATM   32  C17 UNK     1      15.515  10.749  33.951  1.00  0.00     0.045 A 
HETATM   33  C13 UNK     1      18.016   9.548  33.633  1.00  0.00     0.015 A 
HETATM   34  C18 UNK     1      17.910  10.823  34.201  1.00  0.00     0.007 A 
HETATM   35  C19 UNK     1      16.661  11.422  34.359  1.00  0.00    -0.059 A 
HETATM   36  C21 UNK     1      16.556  12.780  34.965  1.00  0.00     0.048 C 
ENDBRANCH  24  25
ENDBRANCH   1  24
TORSDOF 7
ENDMDL
MODEL 2
REMARK VINA RESULT:     -10.2      4.074     13.203
REMARK  7 active torsions:
REMARK  status: ('A' for Active; 'I' for Inactive)
REMARK    1  A    between atoms: C24_32  and  O4_4 
REMARK    2  A    between atoms: C26_34  and  O5_5 
REMARK    3  A    between atoms: C5_13  and  N1_6 
REMARK    4  A    between atoms: C6_14  and  N2_7 
REMARK    5  A    between atoms: C5_13  and  C7_15 
REMARK    6  A    between atoms: C6_14  and  C8_16 
REMARK    7  A    between atoms: C14_22  and  C20_28 
ROOT
HETATM    1  N1  UNK     1      19.784  -4.543  36.630  1.00  0.00     0.096 N 
HETATM    2  N2  UNK     1      18.795  -1.856  36.226  1.00  0.00     0.097 N 
HETATM    3  C1  UNK     1      20.416  -3.636  35.665  1.00  0.00     0.303 C 
HETATM    4  C2  UNK     1      18.358  -4.226  36.773  1.00  0.00     0.303 C 
HETATM    5  C3  UNK     1      20.221  -2.173  36.081  1.00  0.00     0.303 C 
HETATM    6  C4  UNK     1      18.163  -2.764  37.191  1.00  0.00     0.303 C 
ENDROOT
BRANCH   2   7
HETATM    7  C6  UNK     1      18.611  -0.462  36.626  1.00  0.00     0.334 C 
BRANCH   7   8
HETATM    8  C8  UNK     1      18.049   0.311  35.478  1.00  0.00     0.095 A 
HETATM    9  C10 UNK     1      16.793   0.252  34.929  1.00  0.00     0.078 A 
HETATM   10  C16 UNK     1      15.576  -0.519  35.205  1.00  0.00     0.079 C 
HETATM   11  O1  UNK     1      16.743   1.142  33.899  1.00  0.00    -0.294 OA
HETATM   12  C14 UNK     1      17.989   1.689  33.891  1.00  0.00     0.180 A 
HETATM   13  N3  UNK     1      18.811   1.234  34.809  1.00  0.00    -0.224 NA
BRANCH  12  14
HETATM   14  C20 UNK     1      18.214   2.683  32.877  1.00  0.00     0.020 A 
HETATM   15  C22 UNK     1      18.282   2.308  31.536  1.00  0.00     0.055 A 
HETATM   16  C24 UNK     1      18.501   3.272  30.551  1.00  0.00     0.102 A 
HETATM   17  C26 UNK     1      18.649   4.612  30.910  1.00  0.00     0.101 A 
HETATM   18  C25 UNK     1      18.581   4.987  32.251  1.00  0.00     0.040 A 
HETATM   19  C23 UNK     1      18.362   4.022  33.235  1.00  0.00     0.019 A 
BRANCH  16  20
HETATM   20  O4  UNK     1      18.566   2.893  29.245  1.00  0.00    -0.353 OA
HETATM   21  C27 UNK     1      18.001   1.627  28.907  1.00  0.00     0.210 C 
ENDBRANCH  16  20
BRANCH  17  22
HETATM   22  O5  UNK     1      18.863   5.563  29.958  1.00  0.00    -0.353 OA
HETATM   23  C28 UNK     1      20.197   6.044  29.810  1.00  0.00     0.210 C 
ENDBRANCH  17  22
ENDBRANCH  12  14
ENDBRANCH   7   8
ENDBRANCH   2   7
BRANCH   1  24
HETATM   24  C5  UNK     1      19.968  -5.937  36.231  1.00  0.00     0.312 C 
BRANCH  24  25
HETATM   25  C7  UNK     1      21.081  -6.591  36.973  1.00  0.00    -0.011 A 
HETATM   26  C11 UNK     1      21.629  -6.014  38.052  1.00  0.00     0.092 A 
HETATM   27  C15 UNK     1      22.729  -6.623  38.818  1.00  0.00     0.288 A 
HETATM   28  O2  UNK     1      23.195  -7.850  38.369  1.00  0.00    -0.275 OA
HETATM   29  O3  UNK     1      23.205  -6.067  39.800  1.00  0.00    -0.260 OA
HETATM   30  C12 UNK     1      22.640  -8.481  37.239  1.00  0.00     0.090 A 
HETATM   31  C9  UNK     1      21.596  -7.891  36.523  1.00  0.00     0.006 A 
HETATM   32  C17 UNK     1      23.187  -9.714  36.879  1.00  0.00     0.045 A 
HETATM   33  C13 UNK     1      21.101  -8.582  35.409  1.00  0.00     0.015 A 
HETATM   34  C18 UNK     1      21.640  -9.819  35.036  1.00  0.00     0.007 A 
HETATM   35  C19 UNK     1      22.682 -10.383  35.771  1.00  0.00    -0.059 A 
HETATM   36  C21 UNK     1      23.250 -11.701  35.368  1.00  0.00     0.048 C 
ENDBRANCH  24  25
ENDBRANCH   1  24
TORSDOF 7
ENDMDL
MODEL 3
REMARK VINA RESULT:      -9.9     13.150     16.432
REMARK  7 active torsions:
REMARK  status: ('A' for Active; 'I' for Inactive)
REMARK    1  A    between atoms: C24_32  and  O4_4 
REMARK    2  A    between atoms: C26_34  and  O5_5 
REMARK    3  A    between atoms: C5_13  and  N1_6 
REMARK    4  A    between atoms: C6_14  and  N2_7 
REMARK    5  A    between atoms: C5_13  and  C7_15 
REMARK    6  A    between atoms: C6_14  and  C8_16 
REMARK    7  A    between atoms: C14_22  and  C20_28 
ROOT
HETATM    1  N1  UNK     1      30.159  -6.640  35.080  1.00  0.00     0.096 N 
HETATM    2  N2  UNK     1      28.874  -6.963  37.650  1.00  0.00     0.097 N 
HETATM    3  C1  UNK     1      28.921  -7.417  35.221  1.00  0.00     0.303 C 
HETATM    4  C2  UNK     1      30.940  -6.691  36.322  1.00  0.00     0.303 C 
HETATM    5  C3  UNK     1      28.093  -6.914  36.408  1.00  0.00     0.303 C 
HETATM    6  C4  UNK     1      30.111  -6.186  37.508  1.00  0.00     0.303 C 
ENDROOT
BRANCH   2   7
HETATM    7  C6  UNK     1      28.083  -6.478  38.780  1.00  0.00     0.334 C 
BRANCH   7   8
HETATM    8  C8  UNK     1      26.857  -7.321  38.921  1.00  0.00     0.095 A 
HETATM    9  C10 UNK     1      26.745  -8.615  39.365  1.00  0.00     0.078 A 
HETATM   10  C16 UNK     1      27.687  -9.632  39.846  1.00  0.00     0.079 C 
HETATM   11  O1  UNK     1      25.429  -8.962  39.318  1.00  0.00    -0.294 OA
HETATM   12  C14 UNK     1      24.822  -7.840  38.844  1.00  0.00     0.180 A 
HETATM   13  N3  UNK     1      25.621  -6.830  38.589  1.00  0.00    -0.224 NA
BRANCH  12  14
HETATM   14  C20 UNK     1      23.395  -7.935  38.694  1.00  0.00     0.020 A 
HETATM   15  C22 UNK     1      22.852  -8.569  37.577  1.00  0.00     0.055 A 
HETATM   16  C24 UNK     1      21.467  -8.660  37.431  1.00  0.00     0.102 A 
HETATM   17  C26 UNK     1      20.627  -8.118  38.403  1.00  0.00     0.101 A 
HETATM   18  C25 UNK     1      21.170  -7.484  39.519  1.00  0.00     0.040 A 
HETATM   19  C23 UNK     1      22.555  -7.393  39.666  1.00  0.00     0.019 A 
BRANCH  16  20
HETATM   20  O4  UNK     1      20.949  -9.282  36.335  1.00  0.00    -0.353 OA
HETATM   21  C27 UNK     1      21.292  -8.743  35.060  1.00  0.00     0.210 C 
ENDBRANCH  16  20
BRANCH  17  22
HETATM   22  O5  UNK     1      19.273  -8.201  38.272  1.00  0.00    -0.353 OA
HETATM   23  C28 UNK     1      18.613  -7.099  37.652  1.00  0.00     0.210 C 
ENDBRANCH  17  22
ENDBRANCH  12  14
ENDBRANCH   7   8
ENDBRANCH   2   7
BRANCH   1  24
HETATM   24  C5  UNK     1      30.949  -7.123  33.949  1.00  0.00     0.312 C 
BRANCH  24  25
HETATM   25  C7  UNK     1      30.453  -6.593  32.649  1.00  0.00    -0.011 A 
HETATM   26  C11 UNK     1      30.425  -5.275  32.403  1.00  0.00     0.092 A 
HETATM   27  C15 UNK     1      29.944  -4.705  31.135  1.00  0.00     0.288 A 
HETATM   28  O2  UNK     1      29.505  -5.604  30.174  1.00  0.00    -0.275 OA
HETATM   29  O3  UNK     1      29.933  -3.494  30.944  1.00  0.00    -0.260 OA
HETATM   30  C12 UNK     1      29.523  -6.994  30.403  1.00  0.00     0.090 A 
HETATM   31  C9  UNK     1      29.982  -7.520  31.612  1.00  0.00     0.006 A 
HETATM   32  C17 UNK     1      29.058  -7.804  29.366  1.00  0.00     0.045 A 
HETATM   33  C13 UNK     1      29.965  -8.914  31.762  1.00  0.00     0.015 A 
HETATM   34  C18 UNK     1      29.502  -9.739  30.731  1.00  0.00     0.007 A 
HETATM   35  C19 UNK     1      29.049  -9.184  29.534  1.00  0.00    -0.059 A 
HETATM   36  C21 UNK     1      28.558 -10.070  28.440  1.00  0.00     0.048 C 
ENDBRANCH  24  25
ENDBRANCH   1  24
TORSDOF 7
ENDMDL
MODEL 4
REMARK VINA RESULT:      -9.8      2.105      3.424
REMARK  7 active torsions:
REMARK  status: ('A' for Active; 'I' for Inactive)
REMARK    1  A    between atoms: C24_32  and  O4_4 
REMARK    2  A    between atoms: C26_34  and  O5_5 
REMARK    3  A    between atoms: C5_13  and  N1_6 
REMARK    4  A    between atoms: C6_14  and  N2_7 
REMARK    5  A    between atoms: C5_13  and  C7_15 
REMARK    6  A    between atoms: C6_14  and  C8_16 
REMARK    7  A    between atoms: C14_22  and  C20_28 
ROOT
HETATM    1  N1  UNK     1      16.556   8.468  33.780  1.00  0.00     0.096 N 
HETATM    2  N2  UNK     1      17.648   6.118  32.496  1.00  0.00     0.097 N 
HETATM    3  C1  UNK     1      17.943   8.046  34.014  1.00  0.00     0.303 C 
HETATM    4  C2  UNK     1      15.713   7.307  33.471  1.00  0.00     0.303 C 
HETATM    5  C3  UNK     1      18.492   7.278  32.807  1.00  0.00     0.303 C 
HETATM    6  C4  UNK     1      16.262   6.540  32.262  1.00  0.00     0.303 C 
ENDROOT
BRANCH   2   7
HETATM    7  C6  UNK     1      18.171   5.390  31.342  1.00  0.00     0.334 C 
BRANCH   7   8
HETATM    8  C8  UNK     1      18.226   3.931  31.663  1.00  0.00     0.095 A 
HETATM    9  C10 UNK     1      18.275   2.859  30.808  1.00  0.00     0.078 A 
HETATM   10  C16 UNK     1      18.293   2.696  29.350  1.00  0.00     0.079 C 
HETATM   11  O1  UNK     1      18.313   1.724  31.560  1.00  0.00    -0.294 OA
HETATM   12  C14 UNK     1      18.286   2.189  32.838  1.00  0.00     0.180 A 
HETATM   13  N3  UNK     1      18.234   3.495  32.963  1.00  0.00    -0.224 NA
BRANCH  12  14
HETATM   14  C20 UNK     1      18.317   1.175  33.857  1.00  0.00     0.020 A 
HETATM   15  C22 UNK     1      18.272   1.538  35.203  1.00  0.00     0.055 A 
HETATM   16  C24 UNK     1      18.303   0.555  36.193  1.00  0.00     0.102 A 
HETATM   17  C26 UNK     1      18.377  -0.791  35.835  1.00  0.00     0.101 A 
HETATM   18  C25 UNK     1      18.422  -1.154  34.489  1.00  0.00     0.040 A 
HETATM   19  C23 UNK     1      18.391  -0.171  33.500  1.00  0.00     0.019 A 
BRANCH  16  20
HETATM   20  O4  UNK     1      18.259   0.922  37.504  1.00  0.00    -0.353 OA
HETATM   21  C27 UNK     1      17.039   1.489  37.978  1.00  0.00     0.210 C 
ENDBRANCH  16  20
BRANCH  17  22
HETATM   22  O5  UNK     1      18.407  -1.761  36.792  1.00  0.00    -0.353 OA
HETATM   23  C28 UNK     1      19.611  -2.516  36.910  1.00  0.00     0.210 C 
ENDBRANCH  17  22
ENDBRANCH  12  14
ENDBRANCH   7   8
ENDBRANCH   2   7
BRANCH   1  24
HETATM   24  C5  UNK     1      16.034   9.198  34.933  1.00  0.00     0.312 C 
BRANCH  24  25
HETATM   25  C7  UNK     1      15.341  10.455  34.536  1.00  0.00    -0.011 A 
HETATM   26  C11 UNK     1      14.004  10.513  34.452  1.00  0.00     0.092 A 
HETATM   27  C15 UNK     1      13.275  11.732  34.064  1.00  0.00     0.288 A 
HETATM   28  O2  UNK     1      14.043  12.852  33.779  1.00  0.00    -0.275 OA
HETATM   29  O3  UNK     1      12.052  11.749  33.998  1.00  0.00    -0.260 OA
HETATM   30  C12 UNK     1      15.449  12.821  33.858  1.00  0.00     0.090 A 
HETATM   31  C9  UNK     1      16.126  11.657  34.227  1.00  0.00     0.006 A 
HETATM   32  C17 UNK     1      16.118  14.007  33.549  1.00  0.00     0.045 A 
HETATM   33  C13 UNK     1      17.525  11.709  34.281  1.00  0.00     0.015 A 
HETATM   34  C18 UNK     1      18.210  12.890  33.974  1.00  0.00     0.007 A 
HETATM   35  C19 UNK     1      17.507  14.038  33.608  1.00  0.00    -0.059 A 
HETATM   36  C21 UNK     1      18.243  15.292  33.283  1.00  0.00     0.048 C 
ENDBRANCH  24  25
ENDBRANCH   1  24
TORSDOF 7
ENDMDL
MODEL 5
REMARK VINA RESULT:      -9.8      7.184     11.443
REMARK  7 active torsions:
REMARK  status: ('A' for Active; 'I' for Inactive)
REMARK    1  A    between atoms: C24_32  and  O4_4 
REMARK    2  A    between atoms: C26_34  and  O5_5 
REMARK    3  A    between atoms: C5_13  and  N1_6 
REMARK    4  A    between atoms: C6_14  and  N2_7 
REMARK    5  A    between atoms: C5_13  and  C7_15 
REMARK    6  A    between atoms: C6_14  and  C8_16 
REMARK    7  A    between atoms: C14_22  and  C20_28 
ROOT
HETATM    1  N1  UNK     1      20.040  -3.866  36.706  1.00  0.00     0.096 N 
HETATM    2  N2  UNK     1      20.917  -6.621  36.731  1.00  0.00     0.097 N 
HETATM    3  C1  UNK     1      20.206  -4.624  35.460  1.00  0.00     0.303 C 
HETATM    4  C2  UNK     1      20.961  -4.363  37.735  1.00  0.00     0.303 C 
HETATM    5  C3  UNK     1      19.998  -6.124  35.701  1.00  0.00     0.303 C 
HETATM    6  C4  UNK     1      20.751  -5.862  37.977  1.00  0.00     0.303 C 
ENDROOT
BRANCH   2   7
HETATM    7  C6  UNK     1      20.714  -8.050  36.963  1.00  0.00     0.334 C 
BRANCH   7   8
HETATM    8  C8  UNK     1      22.017  -8.764  36.809  1.00  0.00     0.095 A 
HETATM    9  C10 UNK     1      22.284  -9.945  36.162  1.00  0.00     0.078 A 
HETATM   10  C16 UNK     1      21.484 -10.922  35.415  1.00  0.00     0.079 C 
HETATM   11  O1  UNK     1      23.616 -10.200  36.288  1.00  0.00    -0.294 OA
HETATM   12  C14 UNK     1      24.075  -9.144  37.012  1.00  0.00     0.180 A 
HETATM   13  N3  UNK     1      23.169  -8.255  37.351  1.00  0.00    -0.224 NA
BRANCH  12  14
HETATM   14  C20 UNK     1      25.484  -9.162  37.294  1.00  0.00     0.020 A 
HETATM   15  C22 UNK     1      25.996  -8.397  38.342  1.00  0.00     0.055 A 
HETATM   16  C24 UNK     1      27.364  -8.415  38.616  1.00  0.00     0.102 A 
HETATM   17  C26 UNK     1      28.219  -9.200  37.844  1.00  0.00     0.101 A 
HETATM   18  C25 UNK     1      27.707  -9.966  36.796  1.00  0.00     0.040 A 
HETATM   19  C23 UNK     1      26.340  -9.948  36.522  1.00  0.00     0.019 A 
BRANCH  16  20
HETATM   20  O4  UNK     1      27.851  -7.662  39.642  1.00  0.00    -0.353 OA
HETATM   21  C27 UNK     1      28.200  -6.311  39.346  1.00  0.00     0.210 C 
ENDBRANCH  16  20
BRANCH  17  22
HETATM   22  O5  UNK     1      29.556  -9.227  38.102  1.00  0.00    -0.353 OA
HETATM   23  C28 UNK     1      30.401  -8.484  37.225  1.00  0.00     0.210 C 
ENDBRANCH  17  22
ENDBRANCH  12  14
ENDBRANCH   7   8
ENDBRANCH   2   7
BRANCH   1  24
HETATM   24  C5  UNK     1      20.241  -2.437  36.475  1.00  0.00     0.312 C 
BRANCH  24  25
HETATM   25  C7  UNK     1      19.257  -1.880  35.506  1.00  0.00    -0.011 A 
HETATM   26  C11 UNK     1      18.070  -1.410  35.917  1.00  0.00     0.092 A 
HETATM   27  C15 UNK     1      17.066  -0.851  34.998  1.00  0.00     0.288 A 
HETATM   28  O2  UNK     1      17.399  -0.826  33.651  1.00  0.00    -0.275 OA
HETATM   29  O3  UNK     1      15.990  -0.430  35.409  1.00  0.00    -0.260 OA
HETATM   30  C12 UNK     1      18.638  -1.312  33.190  1.00  0.00     0.090 A 
HETATM   31  C9  UNK     1      19.580  -1.840  34.074  1.00  0.00     0.006 A 
HETATM   32  C17 UNK     1      18.866  -1.237  31.814  1.00  0.00     0.045 A 
HETATM   33  C13 UNK     1      20.788  -2.304  33.535  1.00  0.00     0.015 A 
HETATM   34  C18 UNK     1      21.031  -2.236  32.159  1.00  0.00     0.007 A 
HETATM   35  C19 UNK     1      20.070  -1.702  31.300  1.00  0.00    -0.059 A 
HETATM   36  C21 UNK     1      20.336  -1.632  29.835  1.00  0.00     0.048 C 
ENDBRANCH  24  25
ENDBRANCH   1  24
TORSDOF 7
ENDMDL
MODEL 6
REMARK VINA RESULT:      -9.5      6.675     11.021
REMARK  7 active torsions:
REMARK  status: ('A' for Active; 'I' for Inactive)
REMARK    1  A    between atoms: C24_32  and  O4_4 
REMARK    2  A    between atoms: C26_34  and  O5_5 
REMARK    3  A    between atoms: C5_13  and  N1_6 
REMARK    4  A    between atoms: C6_14  and  N2_7 
REMARK    5  A    between atoms: C5_13  and  C7_15 
REMARK    6  A    between atoms: C6_14  and  C8_16 
REMARK    7  A    between atoms: C14_22  and  C20_28 
ROOT
HETATM    1  N1  UNK     1      20.174  -3.645  36.596  1.00  0.00     0.096 N 
HETATM    2  N2  UNK     1      20.946  -6.431  36.686  1.00  0.00     0.097 N 
HETATM    3  C1  UNK     1      20.254  -4.453  35.373  1.00  0.00     0.303 C 
HETATM    4  C2  UNK     1      21.122  -4.141  37.601  1.00  0.00     0.303 C 
HETATM    5  C3  UNK     1      20.000  -5.934  35.680  1.00  0.00     0.303 C 
HETATM    6  C4  UNK     1      20.866  -5.621  37.909  1.00  0.00     0.303 C 
ENDROOT
BRANCH   2   7
HETATM    7  C6  UNK     1      20.699  -7.841  36.979  1.00  0.00     0.334 C 
BRANCH   7   8
HETATM    8  C8  UNK     1      21.975  -8.605  36.833  1.00  0.00     0.095 A 
HETATM    9  C10 UNK     1      22.203  -9.787  36.174  1.00  0.00     0.078 A 
HETATM   10  C16 UNK     1      21.376 -10.720  35.402  1.00  0.00     0.079 C 
HETATM   11  O1  UNK     1      23.522 -10.097  36.315  1.00  0.00    -0.294 OA
HETATM   12  C14 UNK     1      24.013  -9.070  37.059  1.00  0.00     0.180 A 
HETATM   13  N3  UNK     1      23.138  -8.150  37.398  1.00  0.00    -0.224 NA
BRANCH  12  14
HETATM   14  C20 UNK     1      25.416  -9.149  37.361  1.00  0.00     0.020 A 
HETATM   15  C22 UNK     1      25.952  -8.382  38.395  1.00  0.00     0.055 A 
HETATM   16  C24 UNK     1      27.314  -8.458  38.687  1.00  0.00     0.102 A 
HETATM   17  C26 UNK     1      28.139  -9.305  37.948  1.00  0.00     0.101 A 
HETATM   18  C25 UNK     1      27.603 -10.073  36.914  1.00  0.00     0.040 A 
HETATM   19  C23 UNK     1      26.241  -9.996  36.621  1.00  0.00     0.019 A 
BRANCH  16  20
HETATM   20  O4  UNK     1      27.825  -7.703  39.699  1.00  0.00    -0.353 OA
HETATM   21  C27 UNK     1      28.317  -6.408  39.357  1.00  0.00     0.210 C 
ENDBRANCH  16  20
BRANCH  17  22
HETATM   22  O5  UNK     1      29.470  -9.389  38.224  1.00  0.00    -0.353 OA
HETATM   23  C28 UNK     1      30.373  -9.114  37.155  1.00  0.00     0.210 C 
ENDBRANCH  17  22
ENDBRANCH  12  14
ENDBRANCH   7   8
ENDBRANCH   2   7
BRANCH   1  24
HETATM   24  C5  UNK     1      20.420  -2.235  36.303  1.00  0.00     0.312 C 
BRANCH  24  25
HETATM   25  C7  UNK     1      19.473  -1.699  35.286  1.00  0.00    -0.011 A 
HETATM   26  C11 UNK     1      19.690  -1.879  33.975  1.00  0.00     0.092 A 
HETATM   27  C15 UNK     1      18.783  -1.369  32.933  1.00  0.00     0.288 A 
HETATM   28  O2  UNK     1      17.664  -0.674  33.368  1.00  0.00    -0.275 OA
HETATM   29  O3  UNK     1      19.012  -1.552  31.744  1.00  0.00    -0.260 OA
HETATM   30  C12 UNK     1      17.409  -0.469  34.739  1.00  0.00     0.090 A 
HETATM   31  C9  UNK     1      18.279  -0.959  35.714  1.00  0.00     0.006 A 
HETATM   32  C17 UNK     1      16.253   0.244  35.060  1.00  0.00     0.045 A 
HETATM   33  C13 UNK     1      17.955  -0.712  37.056  1.00  0.00     0.015 A 
HETATM   34  C18 UNK     1      16.800   0.002  37.393  1.00  0.00     0.007 A 
HETATM   35  C19 UNK     1      15.950   0.478  36.396  1.00  0.00    -0.059 A 
HETATM   36  C21 UNK     1      14.720   1.237  36.763  1.00  0.00     0.048 C 
ENDBRANCH  24  25
ENDBRANCH   1  24
TORSDOF 7
ENDMDL
MODEL 7
REMARK VINA RESULT:      -9.4      2.362      3.910
REMARK  7 active torsions:
REMARK  status: ('A' for Active; 'I' for Inactive)
REMARK    1  A    between atoms: C24_32  and  O4_4 
REMARK    2  A    between atoms: C26_34  and  O5_5 
REMARK    3  A    between atoms: C5_13  and  N1_6 
REMARK    4  A    between atoms: C6_14  and  N2_7 
REMARK    5  A    between atoms: C5_13  and  C7_15 
REMARK    6  A    between atoms: C6_14  and  C8_16 
REMARK    7  A    between atoms: C14_22  and  C20_28 
ROOT
HETATM    1  N1  UNK     1      16.747   8.440  33.512  1.00  0.00     0.096 N 
HETATM    2  N2  UNK     1      17.864   6.023  32.384  1.00  0.00     0.097 N 
HETATM    3  C1  UNK     1      18.135   8.044  33.781  1.00  0.00     0.303 C 
HETATM    4  C2  UNK     1      15.914   7.256  33.272  1.00  0.00     0.303 C 
HETATM    5  C3  UNK     1      18.697   7.206  32.627  1.00  0.00     0.303 C 
HETATM    6  C4  UNK     1      16.476   6.420  32.116  1.00  0.00     0.303 C 
ENDROOT
BRANCH   2   7
HETATM    7  C6  UNK     1      18.399   5.228  31.281  1.00  0.00     0.334 C 
BRANCH   7   8
HETATM    8  C8  UNK     1      18.317   3.778  31.633  1.00  0.00     0.095 A 
HETATM    9  C10 UNK     1      18.313   2.686  30.802  1.00  0.00     0.078 A 
HETATM   10  C16 UNK     1      18.382   2.488  29.350  1.00  0.00     0.079 C 
HETATM   11  O1  UNK     1      18.224   1.570  31.577  1.00  0.00    -0.294 OA
HETATM   12  C14 UNK     1      18.179   2.065  32.843  1.00  0.00     0.180 A 
HETATM   13  N3  UNK     1      18.231   3.374  32.940  1.00  0.00    -0.224 NA
BRANCH  12  14
HETATM   14  C20 UNK     1      18.081   1.077  33.883  1.00  0.00     0.020 A 
HETATM   15  C22 UNK     1      17.454   1.392  35.088  1.00  0.00     0.055 A 
HETATM   16  C24 UNK     1      17.359   0.434  36.097  1.00  0.00     0.102 A 
HETATM   17  C26 UNK     1      17.889  -0.841  35.900  1.00  0.00     0.101 A 
HETATM   18  C25 UNK     1      18.516  -1.157  34.695  1.00  0.00     0.040 A 
HETATM   19  C23 UNK     1      18.611  -0.198  33.685  1.00  0.00     0.019 A 
BRANCH  16  20
HETATM   20  O4  UNK     1      16.744   0.754  37.270  1.00  0.00    -0.353 OA
HETATM   21  C27 UNK     1      17.532   1.422  38.254  1.00  0.00     0.210 C 
ENDBRANCH  16  20
BRANCH  17  22
HETATM   22  O5  UNK     1      17.802  -1.786  36.877  1.00  0.00    -0.353 OA
HETATM   23  C28 UNK     1      19.028  -2.309  37.384  1.00  0.00     0.210 C 
ENDBRANCH  17  22
ENDBRANCH  12  14
ENDBRANCH   7   8
ENDBRANCH   2   7
BRANCH   1  24
HETATM   24  C5  UNK     1      16.213   9.237  34.615  1.00  0.00     0.312 C 
BRANCH  24  25
HETATM   25  C7  UNK     1      16.248  10.697  34.323  1.00  0.00    -0.011 A 
HETATM   26  C11 UNK     1      17.400  11.383  34.358  1.00  0.00     0.092 A 
HETATM   27  C15 UNK     1      17.484  12.825  34.077  1.00  0.00     0.288 A 
HETATM   28  O2  UNK     1      16.296  13.470  33.766  1.00  0.00    -0.275 OA
HETATM   29  O3  UNK     1      18.555  13.420  34.117  1.00  0.00    -0.260 OA
HETATM   30  C12 UNK     1      15.071  12.775  33.721  1.00  0.00     0.090 A 
HETATM   31  C9  UNK     1      15.007  11.408  33.991  1.00  0.00     0.006 A 
HETATM   32  C17 UNK     1      13.939  13.526  33.398  1.00  0.00     0.045 A 
HETATM   33  C13 UNK     1      13.749  10.791  33.927  1.00  0.00     0.015 A 
HETATM   34  C18 UNK     1      12.606  11.531  33.605  1.00  0.00     0.007 A 
HETATM   35  C19 UNK     1      12.701  12.896  33.340  1.00  0.00    -0.059 A 
HETATM   36  C21 UNK     1      11.478  13.677  32.996  1.00  0.00     0.048 C 
ENDBRANCH  24  25
ENDBRANCH   1  24
TORSDOF 7
ENDMDL
MODEL 8
REMARK VINA RESULT:      -9.4     13.140     18.437
REMARK  7 active torsions:
REMARK  status: ('A' for Active; 'I' for Inactive)
REMARK    1  A    between atoms: C24_32  and  O4_4 
REMARK    2  A    between atoms: C26_34  and  O5_5 
REMARK    3  A    between atoms: C5_13  and  N1_6 
REMARK    4  A    between atoms: C6_14  and  N2_7 
REMARK    5  A    between atoms: C5_13  and  C7_15 
REMARK    6  A    between atoms: C6_14  and  C8_16 
REMARK    7  A    between atoms: C14_22  and  C20_28 
ROOT
HETATM    1  N1  UNK     1      31.105  -7.281  35.573  1.00  0.00     0.096 N 
HETATM    2  N2  UNK     1      29.018  -7.330  37.574  1.00  0.00     0.097 N 
HETATM    3  C1  UNK     1      29.690  -7.157  35.202  1.00  0.00     0.303 C 
HETATM    4  C2  UNK     1      31.245  -8.073  36.801  1.00  0.00     0.303 C 
HETATM    5  C3  UNK     1      28.877  -6.540  36.345  1.00  0.00     0.303 C 
HETATM    6  C4  UNK     1      30.434  -7.453  37.945  1.00  0.00     0.303 C 
ENDROOT
BRANCH   2   7
HETATM    7  C6  UNK     1      28.246  -6.736  38.664  1.00  0.00     0.334 C 
BRANCH   7   8
HETATM    8  C8  UNK     1      26.987  -7.517  38.858  1.00  0.00     0.095 A 
HETATM    9  C10 UNK     1      26.815  -8.751  39.432  1.00  0.00     0.078 A 
HETATM   10  C16 UNK     1      27.705  -9.742  40.046  1.00  0.00     0.079 C 
HETATM   11  O1  UNK     1      25.488  -9.055  39.384  1.00  0.00    -0.294 OA
HETATM   12  C14 UNK     1      24.936  -7.971  38.775  1.00  0.00     0.180 A 
HETATM   13  N3  UNK     1      25.779  -7.022  38.439  1.00  0.00    -0.224 NA
BRANCH  12  14
HETATM   14  C20 UNK     1      23.511  -8.032  38.593  1.00  0.00     0.020 A 
HETATM   15  C22 UNK     1      22.980  -8.527  37.402  1.00  0.00     0.055 A 
HETATM   16  C24 UNK     1      21.597  -8.585  37.226  1.00  0.00     0.102 A 
HETATM   17  C26 UNK     1      20.746  -8.151  38.241  1.00  0.00     0.101 A 
HETATM   18  C25 UNK     1      21.277  -7.656  39.432  1.00  0.00     0.040 A 
HETATM   19  C23 UNK     1      22.660  -7.597  39.609  1.00  0.00     0.019 A 
BRANCH  16  20
HETATM   20  O4  UNK     1      21.091  -9.070  36.058  1.00  0.00    -0.353 OA
HETATM   21  C27 UNK     1      21.857 -10.066  35.382  1.00  0.00     0.210 C 
ENDBRANCH  16  20
BRANCH  17  22
HETATM   22  O5  UNK     1      19.394  -8.203  38.081  1.00  0.00    -0.353 OA
HETATM   23  C28 UNK     1      18.732  -6.983  37.756  1.00  0.00     0.210 C 
ENDBRANCH  17  22
ENDBRANCH  12  14
ENDBRANCH   7   8
ENDBRANCH   2   7
BRANCH   1  24
HETATM   24  C5  UNK     1      31.878  -7.873  34.483  1.00  0.00     0.312 C 
BRANCH  24  25
HETATM   25  C7  UNK     1      33.198  -7.207  34.303  1.00  0.00    -0.011 A 
HETATM   26  C11 UNK     1      33.342  -5.889  34.501  1.00  0.00     0.092 A 
HETATM   27  C15 UNK     1      34.626  -5.187  34.336  1.00  0.00     0.288 A 
HETATM   28  O2  UNK     1      35.713  -5.960  33.957  1.00  0.00    -0.275 OA
HETATM   29  O3  UNK     1      34.720  -3.980  34.526  1.00  0.00    -0.260 OA
HETATM   30  C12 UNK     1      35.593  -7.348  33.742  1.00  0.00     0.090 A 
HETATM   31  C9  UNK     1      34.368  -7.998  33.902  1.00  0.00     0.006 A 
HETATM   32  C17 UNK     1      36.754  -8.024  33.363  1.00  0.00     0.045 A 
HETATM   33  C13 UNK     1      34.332  -9.380  33.668  1.00  0.00     0.015 A 
HETATM   34  C18 UNK     1      35.487 -10.072  33.287  1.00  0.00     0.007 A 
HETATM   35  C19 UNK     1      36.696  -9.394  33.136  1.00  0.00    -0.059 A 
HETATM   36  C21 UNK     1      37.923 -10.139  32.731  1.00  0.00     0.048 C 
ENDBRANCH  24  25
ENDBRANCH   1  24
TORSDOF 7
ENDMDL
MODEL 9
REMARK VINA RESULT:      -9.4     13.987     17.050
REMARK  7 active torsions:
REMARK  status: ('A' for Active; 'I' for Inactive)
REMARK    1  A    between atoms: C24_32  and  O4_4 
REMARK    2  A    between atoms: C26_34  and  O5_5 
REMARK    3  A    between atoms: C5_13  and  N1_6 
REMARK    4  A    between atoms: C6_14  and  N2_7 
REMARK    5  A    between atoms: C5_13  and  C7_15 
REMARK    6  A    between atoms: C6_14  and  C8_16 
REMARK    7  A    between atoms: C14_22  and  C20_28 
ROOT
HETATM    1  N1  UNK     1      29.891  -6.542  34.773  1.00  0.00     0.096 N 
HETATM    2  N2  UNK     1      28.804  -6.573  37.453  1.00  0.00     0.097 N 
HETATM    3  C1  UNK     1      30.296  -5.545  35.772  1.00  0.00     0.303 C 
HETATM    4  C2  UNK     1      28.522  -7.002  35.035  1.00  0.00     0.303 C 
HETATM    5  C3  UNK     1      30.172  -6.111  37.191  1.00  0.00     0.303 C 
HETATM    6  C4  UNK     1      28.400  -7.570  36.454  1.00  0.00     0.303 C 
ENDROOT
BRANCH   2   7
HETATM    7  C6  UNK     1      28.690  -7.117  38.805  1.00  0.00     0.334 C 
BRANCH   7   8
HETATM    8  C8  UNK     1      27.357  -7.776  38.960  1.00  0.00     0.095 A 
HETATM    9  C10 UNK     1      27.051  -8.977  39.548  1.00  0.00     0.078 A 
HETATM   10  C16 UNK     1      27.822 -10.031  40.215  1.00  0.00     0.079 C 
HETATM   11  O1  UNK     1      25.705  -9.161  39.450  1.00  0.00    -0.294 OA
HETATM   12  C14 UNK     1      25.278  -8.044  38.801  1.00  0.00     0.180 A 
HETATM   13  N3  UNK     1      26.217  -7.182  38.483  1.00  0.00    -0.224 NA
BRANCH  12  14
HETATM   14  C20 UNK     1      23.862  -7.979  38.561  1.00  0.00     0.020 A 
HETATM   15  C22 UNK     1      23.337  -8.443  37.356  1.00  0.00     0.055 A 
HETATM   16  C24 UNK     1      21.963  -8.380  37.123  1.00  0.00     0.102 A 
HETATM   17  C26 UNK     1      21.114  -7.855  38.098  1.00  0.00     0.101 A 
HETATM   18  C25 UNK     1      21.640  -7.391  39.303  1.00  0.00     0.040 A 
HETATM   19  C23 UNK     1      23.014  -7.454  39.536  1.00  0.00     0.019 A 
BRANCH  16  20
HETATM   20  O4  UNK     1      21.461  -8.836  35.942  1.00  0.00    -0.353 OA
HETATM   21  C27 UNK     1      21.815 -10.163  35.556  1.00  0.00     0.210 C 
ENDBRANCH  16  20
BRANCH  17  22
HETATM   22  O5  UNK     1      19.771  -7.788  37.883  1.00  0.00    -0.353 OA
HETATM   23  C28 UNK     1      18.988  -8.894  38.327  1.00  0.00     0.210 C 
ENDBRANCH  17  22
ENDBRANCH  12  14
ENDBRANCH   7   8
ENDBRANCH   2   7
BRANCH   1  24
HETATM   24  C5  UNK     1      30.007  -6.000  33.421  1.00  0.00     0.312 C 
BRANCH  24  25
HETATM   25  C7  UNK     1      30.737  -6.922  32.507  1.00  0.00    -0.011 A 
HETATM   26  C11 UNK     1      32.066  -7.073  32.590  1.00  0.00     0.092 A 
HETATM   27  C15 UNK     1      32.830  -7.971  31.709  1.00  0.00     0.288 A 
HETATM   28  O2  UNK     1      32.105  -8.676  30.760  1.00  0.00    -0.275 OA
HETATM   29  O3  UNK     1      34.046  -8.085  31.815  1.00  0.00    -0.260 OA
HETATM   30  C12 UNK     1      30.707  -8.538  30.648  1.00  0.00     0.090 A 
HETATM   31  C9  UNK     1      29.997  -7.682  31.491  1.00  0.00     0.006 A 
HETATM   32  C17 UNK     1      30.082  -9.297  29.656  1.00  0.00     0.045 A 
HETATM   33  C13 UNK     1      28.609  -7.600  31.314  1.00  0.00     0.015 A 
HETATM   34  C18 UNK     1      27.968  -8.354  30.325  1.00  0.00     0.007 A 
HETATM   35  C19 UNK     1      28.704  -9.202  29.497  1.00  0.00    -0.059 A 
HETATM   36  C21 UNK     1      28.014 -10.002  28.446  1.00  0.00     0.048 C 
ENDBRANCH  24  25
ENDBRANCH   1  24
TORSDOF 7
ENDMDL
MODEL 10
REMARK VINA RESULT:      -9.3     21.972     25.696
REMARK  7 active torsions:
REMARK  status: ('A' for Active; 'I' for Inactive)
REMARK    1  A    between atoms: C24_32  and  O4_4 
REMARK    2  A    between atoms: C26_34  and  O5_5 
REMARK    3  A    between atoms: C5_13  and  N1_6 
REMARK    4  A    between atoms: C6_14  and  N2_7 
REMARK    5  A    between atoms: C5_13  and  C7_15 
REMARK    6  A    between atoms: C6_14  and  C8_16 
REMARK    7  A    between atoms: C14_22  and  C20_28 
ROOT
HETATM    1  N1  UNK     1      15.546   9.326   9.580  1.00  0.00     0.096 N 
HETATM    2  N2  UNK     1      17.124  11.677   8.991  1.00  0.00     0.097 N 
HETATM    3  C1  UNK     1      15.009  10.420   8.761  1.00  0.00     0.303 C 
HETATM    4  C2  UNK     1      16.534   9.841  10.537  1.00  0.00     0.303 C 
HETATM    5  C3  UNK     1      16.135  11.164   8.035  1.00  0.00     0.303 C 
HETATM    6  C4  UNK     1      17.662  10.583   9.810  1.00  0.00     0.303 C 
ENDROOT
BRANCH   2   7
HETATM    7  C6  UNK     1      18.200  12.382   8.296  1.00  0.00     0.334 C 
BRANCH   7   8
HETATM    8  C8  UNK     1      19.169  12.915   9.301  1.00  0.00     0.095 A 
HETATM    9  C10 UNK     1      18.996  13.920  10.220  1.00  0.00     0.078 A 
HETATM   10  C16 UNK     1      17.893  14.818  10.579  1.00  0.00     0.079 C 
HETATM   11  O1  UNK     1      20.157  14.053  10.918  1.00  0.00    -0.294 OA
HETATM   12  C14 UNK     1      20.968  13.108  10.371  1.00  0.00     0.180 A 
HETATM   13  N3  UNK     1      20.435  12.398   9.403  1.00  0.00    -0.224 NA
BRANCH  12  14
HETATM   14  C20 UNK     1      22.287  13.032  10.937  1.00  0.00     0.020 A 
HETATM   15  C22 UNK     1      22.456  12.633  12.263  1.00  0.00     0.055 A 
HETATM   16  C24 UNK     1      23.736  12.559  12.812  1.00  0.00     0.102 A 
HETATM   17  C26 UNK     1      24.848  12.883  12.035  1.00  0.00     0.101 A 
HETATM   18  C25 UNK     1      24.679  13.282  10.709  1.00  0.00     0.040 A 
HETATM   19  C23 UNK     1      23.399  13.356  10.159  1.00  0.00     0.019 A 
BRANCH  16  20
HETATM   20  O4  UNK     1      23.887  12.169  14.108  1.00  0.00    -0.353 OA
HETATM   21  C27 UNK     1      22.854  12.536  15.021  1.00  0.00     0.210 C 
ENDBRANCH  16  20
BRANCH  17  22
HETATM   22  O5  UNK     1      26.103  12.815  12.559  1.00  0.00    -0.353 OA
HETATM   23  C28 UNK     1      27.103  12.179  11.766  1.00  0.00     0.210 C 
ENDBRANCH  17  22
ENDBRANCH  12  14
ENDBRANCH   7   8
ENDBRANCH   2   7
BRANCH   1  24
HETATM   24  C5  UNK     1      14.471   8.620  10.274  1.00  0.00     0.312 C 
BRANCH  24  25
HETATM   25  C7  UNK     1      14.254   7.251   9.728  1.00  0.00    -0.011 A 
HETATM   26  C11 UNK     1      15.049   6.231  10.080  1.00  0.00     0.092 A 
HETATM   27  C15 UNK     1      14.873   4.862   9.567  1.00  0.00     0.288 A 
HETATM   28  O2  UNK     1      13.827   4.659   8.679  1.00  0.00    -0.275 OA
HETATM   29  O3  UNK     1      15.619   3.952   9.911  1.00  0.00    -0.260 OA
HETATM   30  C12 UNK     1      12.975   5.712   8.291  1.00  0.00     0.090 A 
HETATM   31  C9  UNK     1      13.154   7.005   8.786  1.00  0.00     0.006 A 
HETATM   32  C17 UNK     1      11.955   5.392   7.393  1.00  0.00     0.045 A 
HETATM   33  C13 UNK     1      12.265   7.997   8.349  1.00  0.00     0.015 A 
HETATM   34  C18 UNK     1      11.239   7.691   7.449  1.00  0.00     0.007 A 
HETATM   35  C19 UNK     1      11.084   6.390   6.972  1.00  0.00    -0.059 A 
HETATM   36  C21 UNK     1       9.987   6.073   6.014  1.00  0.00     0.048 C 
ENDBRANCH  24  25
ENDBRANCH   1  24
TORSDOF 7
ENDMDL
