MODEL 1
REMARK VINA RESULT:      -7.9      0.000      0.000
REMARK  2 active torsions:
REMARK  status: ('A' for Active; 'I' for Inactive)
REMARK    1  A    between atoms: C15_20  and  O4_4 
REMARK       I    between atoms: C8_13  and  N1_5 
REMARK    2  A    between atoms: C8_13  and  C9_14 
ROOT
HETATM    1  O2  UNK     1      18.489  -1.339  35.434  1.00  0.00    -0.271 OA
HETATM    2  O3  UNK     1      18.319  -2.096  37.583  1.00  0.00    -0.259 OA
HETATM    3  C9  UNK     1      19.884  -3.201  36.187  1.00  0.00     0.108 A 
HETATM    4  C10 UNK     1      20.454  -3.298  34.981  1.00  0.00     0.037 A 
HETATM    5  C11 UNK     1      18.844  -2.188  36.478  1.00  0.00     0.304 A 
HETATM    6  C12 UNK     1      20.060  -2.397  33.909  1.00  0.00     0.002 A 
HETATM    7  C13 UNK     1      19.085  -1.437  34.161  1.00  0.00     0.123 A 
HETATM    8  C14 UNK     1      20.627  -2.463  32.634  1.00  0.00     0.014 A 
HETATM    9  C15 UNK     1      18.663  -0.543  33.179  1.00  0.00     0.102 A 
HETATM   10  C16 UNK     1      20.214  -1.574  31.638  1.00  0.00     0.004 A 
HETATM   11  C17 UNK     1      19.235  -0.616  31.910  1.00  0.00     0.040 A 
ENDROOT
BRANCH   3  12
HETATM   12  C8  UNK     1      20.351  -4.160  37.208  1.00  0.00     0.260 C 
HETATM   13  N1  UNK     1      19.720  -5.400  37.272  1.00  0.00    -0.347 N 
HETATM   14  C4  UNK     1      18.617  -5.864  36.419  1.00  0.00     0.130 C 
HETATM   15  C5  UNK     1      20.131  -6.363  38.296  1.00  0.00     0.130 C 
HETATM   16  C1  UNK     1      18.977  -7.174  35.705  1.00  0.00    -0.000 C 
HETATM   17  C3  UNK     1      19.459  -8.223  36.722  1.00  0.00     0.011 C 
HETATM   18  C6  UNK     1      20.007  -6.939  34.597  1.00  0.00     0.011 C 
HETATM   19  C2  UNK     1      20.562  -7.688  37.652  1.00  0.00    -0.000 C 
HETATM   20  C7  UNK     1      20.913  -8.720  38.723  1.00  0.00     0.011 C 
HETATM   21  O1  UNK     1      21.275  -3.805  37.942  1.00  0.00    -0.267 OA
ENDBRANCH   3  12
BRANCH   9  22
HETATM   22  O4  UNK     1      17.710   0.390  33.438  1.00  0.00    -0.353 OA
HETATM   23  C18 UNK     1      18.158   1.704  33.770  1.00  0.00     0.210 C 
ENDBRANCH   9  22
TORSDOF 2
ENDMDL
MODEL 2
REMARK VINA RESULT:      -7.9      6.556      8.495
REMARK  2 active torsions:
REMARK  status: ('A' for Active; 'I' for Inactive)
REMARK    1  A    between atoms: C15_20  and  O4_4 
REMARK       I    between atoms: C8_13  and  N1_5 
REMARK    2  A    between atoms: C8_13  and  C9_14 
ROOT
HETATM    1  O2  UNK     1      25.771  -5.758  38.717  1.00  0.00    -0.271 OA
HETATM    2  O3  UNK     1      23.524  -5.427  38.964  1.00  0.00    -0.259 OA
HETATM    3  C9  UNK     1      24.282  -7.671  39.043  1.00  0.00     0.108 A 
HETATM    4  C10 UNK     1      25.314  -8.519  38.982  1.00  0.00     0.037 A 
HETATM    5  C11 UNK     1      24.468  -6.208  38.908  1.00  0.00     0.304 A 
HETATM    6  C12 UNK     1      26.665  -8.018  38.778  1.00  0.00     0.002 A 
HETATM    7  C13 UNK     1      26.863  -6.647  38.650  1.00  0.00     0.123 A 
HETATM    8  C14 UNK     1      27.772  -8.868  38.706  1.00  0.00     0.014 A 
HETATM    9  C15 UNK     1      28.130  -6.103  38.454  1.00  0.00     0.102 A 
HETATM   10  C16 UNK     1      29.050  -8.337  38.509  1.00  0.00     0.004 A 
HETATM   11  C17 UNK     1      29.228  -6.957  38.384  1.00  0.00     0.040 A 
ENDROOT
BRANCH   3  12
HETATM   12  C8  UNK     1      22.952  -8.275  39.252  1.00  0.00     0.260 C 
HETATM   13  N1  UNK     1      22.198  -8.591  38.125  1.00  0.00    -0.347 N 
HETATM   14  C4  UNK     1      22.588  -8.379  36.724  1.00  0.00     0.130 C 
HETATM   15  C5  UNK     1      20.858  -9.158  38.293  1.00  0.00     0.130 C 
HETATM   16  C1  UNK     1      22.536  -9.688  35.926  1.00  0.00    -0.000 C 
HETATM   17  C3  UNK     1      21.163 -10.362  36.092  1.00  0.00     0.011 C 
HETATM   18  C6  UNK     1      23.682 -10.625  36.318  1.00  0.00     0.011 C 
HETATM   19  C2  UNK     1      20.744 -10.505  37.566  1.00  0.00    -0.000 C 
HETATM   20  C7  UNK     1      19.323 -11.057  37.672  1.00  0.00     0.011 C 
HETATM   21  O1  UNK     1      22.591  -8.468  40.413  1.00  0.00    -0.267 OA
ENDBRANCH   3  12
BRANCH   9  22
HETATM   22  O4  UNK     1      28.308  -4.761  38.331  1.00  0.00    -0.353 OA
HETATM   23  C18 UNK     1      29.472  -4.200  38.940  1.00  0.00     0.210 C 
ENDBRANCH   9  22
TORSDOF 2
ENDMDL
MODEL 3
REMARK VINA RESULT:      -7.8     28.653     30.235
REMARK  2 active torsions:
REMARK  status: ('A' for Active; 'I' for Inactive)
REMARK    1  A    between atoms: C15_20  and  O4_4 
REMARK       I    between atoms: C8_13  and  N1_5 
REMARK    2  A    between atoms: C8_13  and  C9_14 
ROOT
HETATM    1  O2  UNK     1      11.540   7.549   9.907  1.00  0.00    -0.271 OA
HETATM    2  O3  UNK     1      13.101   8.321  11.387  1.00  0.00    -0.259 OA
HETATM    3  C9  UNK     1      13.878   7.752   9.222  1.00  0.00     0.108 A 
HETATM    4  C10 UNK     1      13.588   7.296   7.998  1.00  0.00     0.037 A 
HETATM    5  C11 UNK     1      12.838   7.903  10.264  1.00  0.00     0.304 A 
HETATM    6  C12 UNK     1      12.221   6.932   7.657  1.00  0.00     0.002 A 
HETATM    7  C13 UNK     1      11.227   7.066   8.621  1.00  0.00     0.123 A 
HETATM    8  C14 UNK     1      11.872   6.450   6.392  1.00  0.00     0.014 A 
HETATM    9  C15 UNK     1       9.900   6.736   8.359  1.00  0.00     0.102 A 
HETATM   10  C16 UNK     1      10.545   6.113   6.114  1.00  0.00     0.004 A 
HETATM   11  C17 UNK     1       9.561   6.257   7.095  1.00  0.00     0.040 A 
ENDROOT
BRANCH   3  12
HETATM   12  C8  UNK     1      15.292   8.096   9.471  1.00  0.00     0.260 C 
HETATM   13  N1  UNK     1      15.729   9.364   9.096  1.00  0.00    -0.347 N 
HETATM   14  C4  UNK     1      14.919  10.415   8.463  1.00  0.00     0.130 C 
HETATM   15  C5  UNK     1      17.133   9.728   9.293  1.00  0.00     0.130 C 
HETATM   16  C1  UNK     1      14.951  11.712   9.282  1.00  0.00    -0.000 C 
HETATM   17  C3  UNK     1      16.404  12.133   9.564  1.00  0.00     0.011 C 
HETATM   18  C6  UNK     1      14.138  11.576  10.572  1.00  0.00     0.011 C 
HETATM   19  C2  UNK     1      17.250  10.992  10.156  1.00  0.00    -0.000 C 
HETATM   20  C7  UNK     1      18.710  11.419  10.294  1.00  0.00     0.011 C 
HETATM   21  O1  UNK     1      16.001   7.239  10.000  1.00  0.00    -0.267 OA
ENDBRANCH   3  12
BRANCH   9  22
HETATM   22  O4  UNK     1       8.939   6.873   9.310  1.00  0.00    -0.353 OA
HETATM   23  C18 UNK     1       7.759   7.590   8.946  1.00  0.00     0.210 C 
ENDBRANCH   9  22
TORSDOF 2
ENDMDL
MODEL 4
REMARK VINA RESULT:      -7.7      5.530     10.116
REMARK  2 active torsions:
REMARK  status: ('A' for Active; 'I' for Inactive)
REMARK    1  A    between atoms: C15_20  and  O4_4 
REMARK       I    between atoms: C8_13  and  N1_5 
REMARK    2  A    between atoms: C8_13  and  C9_14 
ROOT
HETATM    1  O2  UNK     1      18.738   1.333  32.998  1.00  0.00    -0.271 OA
HETATM    2  O3  UNK     1      18.000   2.803  34.584  1.00  0.00    -0.259 OA
HETATM    3  C9  UNK     1      18.046   3.587  32.348  1.00  0.00     0.108 A 
HETATM    4  C10 UNK     1      18.320   3.330  31.064  1.00  0.00     0.037 A 
HETATM    5  C11 UNK     1      18.250   2.571  33.405  1.00  0.00     0.304 A 
HETATM    6  C12 UNK     1      18.832   2.027  30.669  1.00  0.00     0.002 A 
HETATM    7  C13 UNK     1      19.030   1.057  31.647  1.00  0.00     0.123 A 
HETATM    8  C14 UNK     1      19.133   1.716  29.341  1.00  0.00     0.014 A 
HETATM    9  C15 UNK     1      19.517  -0.211  31.336  1.00  0.00     0.102 A 
HETATM   10  C16 UNK     1      19.623   0.448  29.013  1.00  0.00     0.004 A 
HETATM   11  C17 UNK     1      19.813  -0.513  30.009  1.00  0.00     0.040 A 
ENDROOT
BRANCH   3  12
HETATM   12  C8  UNK     1      17.531   4.937  32.648  1.00  0.00     0.260 C 
HETATM   13  N1  UNK     1      18.327   5.779  33.420  1.00  0.00    -0.347 N 
HETATM   14  C4  UNK     1      19.647   5.461  33.984  1.00  0.00     0.130 C 
HETATM   15  C5  UNK     1      17.834   7.113  33.770  1.00  0.00     0.130 C 
HETATM   16  C1  UNK     1      20.704   6.479  33.535  1.00  0.00    -0.000 C 
HETATM   17  C3  UNK     1      20.231   7.911  33.835  1.00  0.00     0.011 C 
HETATM   18  C6  UNK     1      21.063   6.295  32.058  1.00  0.00     0.011 C 
HETATM   19  C2  UNK     1      18.816   8.195  33.300  1.00  0.00    -0.000 C 
HETATM   20  C7  UNK     1      18.343   9.581  33.736  1.00  0.00     0.011 C 
HETATM   21  O1  UNK     1      16.428   5.240  32.192  1.00  0.00    -0.267 OA
ENDBRANCH   3  12
BRANCH   9  22
HETATM   22  O4  UNK     1      19.705  -1.149  32.301  1.00  0.00    -0.353 OA
HETATM   23  C18 UNK     1      20.684  -2.157  32.049  1.00  0.00     0.210 C 
ENDBRANCH   9  22
TORSDOF 2
ENDMDL
MODEL 5
REMARK VINA RESULT:      -7.7      1.631      2.749
REMARK  2 active torsions:
REMARK  status: ('A' for Active; 'I' for Inactive)
REMARK    1  A    between atoms: C15_20  and  O4_4 
REMARK       I    between atoms: C8_13  and  N1_5 
REMARK    2  A    between atoms: C8_13  and  C9_14 
ROOT
HETATM    1  O2  UNK     1      19.272  -2.267  34.889  1.00  0.00    -0.271 OA
HETATM    2  O3  UNK     1      20.550  -4.121  34.500  1.00  0.00    -0.259 OA
HETATM    3  C9  UNK     1      20.024  -3.648  36.762  1.00  0.00     0.108 A 
HETATM    4  C10 UNK     1      19.406  -2.846  37.637  1.00  0.00     0.037 A 
HETATM    5  C11 UNK     1      19.985  -3.388  35.306  1.00  0.00     0.304 A 
HETATM    6  C12 UNK     1      18.671  -1.681  37.171  1.00  0.00     0.002 A 
HETATM    7  C13 UNK     1      18.621  -1.418  35.806  1.00  0.00     0.123 A 
HETATM    8  C14 UNK     1      18.013  -0.815  38.049  1.00  0.00     0.014 A 
HETATM    9  C15 UNK     1      17.933  -0.320  35.294  1.00  0.00     0.102 A 
HETATM   10  C16 UNK     1      17.319   0.291  37.551  1.00  0.00     0.004 A 
HETATM   11  C17 UNK     1      17.279   0.538  36.176  1.00  0.00     0.040 A 
ENDROOT
BRANCH   3  12
HETATM   12  C8  UNK     1      20.743  -4.804  37.332  1.00  0.00     0.260 C 
HETATM   13  N1  UNK     1      20.013  -5.962  37.587  1.00  0.00    -0.347 N 
HETATM   14  C4  UNK     1      18.576  -6.160  37.349  1.00  0.00     0.130 C 
HETATM   15  C5  UNK     1      20.684  -7.117  38.187  1.00  0.00     0.130 C 
HETATM   16  C1  UNK     1      18.323  -7.368  36.437  1.00  0.00    -0.000 C 
HETATM   17  C3  UNK     1      19.038  -8.614  36.988  1.00  0.00     0.011 C 
HETATM   18  C6  UNK     1      18.731  -7.069  34.992  1.00  0.00     0.011 C 
HETATM   19  C2  UNK     1      20.523  -8.359  37.299  1.00  0.00    -0.000 C 
HETATM   20  C7  UNK     1      21.152  -9.583  37.963  1.00  0.00     0.011 C 
HETATM   21  O1  UNK     1      21.950  -4.675  37.545  1.00  0.00    -0.267 OA
ENDBRANCH   3  12
BRANCH   9  22
HETATM   22  O4  UNK     1      17.892  -0.075  33.958  1.00  0.00    -0.353 OA
HETATM   23  C18 UNK     1      18.282   1.228  33.522  1.00  0.00     0.210 C 
ENDBRANCH   9  22
TORSDOF 2
ENDMDL
MODEL 6
REMARK VINA RESULT:      -7.3      9.606     12.290
REMARK  2 active torsions:
REMARK  status: ('A' for Active; 'I' for Inactive)
REMARK    1  A    between atoms: C15_20  and  O4_4 
REMARK       I    between atoms: C8_13  and  N1_5 
REMARK    2  A    between atoms: C8_13  and  C9_14 
ROOT
HETATM    1  O2  UNK     1      27.086  -7.618  36.378  1.00  0.00    -0.271 OA
HETATM    2  O3  UNK     1      27.966  -6.622  34.520  1.00  0.00    -0.259 OA
HETATM    3  C9  UNK     1      29.487  -7.759  35.938  1.00  0.00     0.108 A 
HETATM    4  C10 UNK     1      29.677  -8.477  37.050  1.00  0.00     0.037 A 
HETATM    5  C11 UNK     1      28.144  -7.281  35.539  1.00  0.00     0.304 A 
HETATM    6  C12 UNK     1      28.550  -8.812  37.908  1.00  0.00     0.002 A 
HETATM    7  C13 UNK     1      27.279  -8.374  37.552  1.00  0.00     0.123 A 
HETATM    8  C14 UNK     1      28.702  -9.559  39.079  1.00  0.00     0.014 A 
HETATM    9  C15 UNK     1      26.159  -8.661  38.329  1.00  0.00     0.102 A 
HETATM   10  C16 UNK     1      27.588  -9.854  39.870  1.00  0.00     0.004 A 
HETATM   11  C17 UNK     1      26.319  -9.407  39.494  1.00  0.00     0.040 A 
ENDROOT
BRANCH   3  12
HETATM   12  C8  UNK     1      30.691  -7.471  35.134  1.00  0.00     0.260 C 
HETATM   13  N1  UNK     1      31.299  -6.228  35.296  1.00  0.00    -0.347 N 
HETATM   14  C4  UNK     1      30.860  -5.151  36.195  1.00  0.00     0.130 C 
HETATM   15  C5  UNK     1      32.473  -5.892  34.489  1.00  0.00     0.130 C 
HETATM   16  C1  UNK     1      31.980  -4.737  37.157  1.00  0.00    -0.000 C 
HETATM   17  C3  UNK     1      33.264  -4.409  36.376  1.00  0.00     0.011 C 
HETATM   18  C6  UNK     1      32.222  -5.808  38.225  1.00  0.00     0.011 C 
HETATM   19  C2  UNK     1      33.661  -5.520  35.388  1.00  0.00    -0.000 C 
HETATM   20  C7  UNK     1      34.861  -5.090  34.547  1.00  0.00     0.011 C 
HETATM   21  O1  UNK     1      31.089  -8.351  34.369  1.00  0.00    -0.267 OA
ENDBRANCH   3  12
BRANCH   9  22
HETATM   22  O4  UNK     1      24.922  -8.227  37.968  1.00  0.00    -0.353 OA
HETATM   23  C18 UNK     1      24.125  -7.614  38.982  1.00  0.00     0.210 C 
ENDBRANCH   9  22
TORSDOF 2
ENDMDL
MODEL 7
REMARK VINA RESULT:      -7.3     27.276     29.741
REMARK  2 active torsions:
REMARK  status: ('A' for Active; 'I' for Inactive)
REMARK    1  A    between atoms: C15_20  and  O4_4 
REMARK       I    between atoms: C8_13  and  N1_5 
REMARK    2  A    between atoms: C8_13  and  C9_14 
ROOT
HETATM    1  O2  UNK     1      10.393   5.602   9.297  1.00  0.00    -0.271 OA
HETATM    2  O3  UNK     1      11.959   5.158  10.901  1.00  0.00    -0.259 OA
HETATM    3  C9  UNK     1      12.772   5.692   8.740  1.00  0.00     0.108 A 
HETATM    4  C10 UNK     1      12.491   6.021   7.474  1.00  0.00     0.037 A 
HETATM    5  C11 UNK     1      11.705   5.460   9.739  1.00  0.00     0.304 A 
HETATM    6  C12 UNK     1      11.108   6.159   7.041  1.00  0.00     0.002 A 
HETATM    7  C13 UNK     1      10.090   5.946   7.965  1.00  0.00     0.123 A 
HETATM    8  C14 UNK     1      10.769   6.499   5.729  1.00  0.00     0.014 A 
HETATM    9  C15 UNK     1       8.746   6.064   7.616  1.00  0.00     0.102 A 
HETATM   10  C16 UNK     1       9.425   6.620   5.364  1.00  0.00     0.004 A 
HETATM   11  C17 UNK     1       8.416   6.404   6.306  1.00  0.00     0.040 A 
ENDROOT
BRANCH   3  12
HETATM   12  C8  UNK     1      14.203   5.576   9.081  1.00  0.00     0.260 C 
HETATM   13  N1  UNK     1      14.944   6.750   9.183  1.00  0.00    -0.347 N 
HETATM   14  C4  UNK     1      14.447   8.118   8.979  1.00  0.00     0.130 C 
HETATM   15  C5  UNK     1      16.375   6.673   9.483  1.00  0.00     0.130 C 
HETATM   16  C1  UNK     1      14.710   8.996  10.209  1.00  0.00    -0.000 C 
HETATM   17  C3  UNK     1      16.194   8.929  10.608  1.00  0.00     0.011 C 
HETATM   18  C6  UNK     1      13.790   8.615  11.372  1.00  0.00     0.011 C 
HETATM   19  C2  UNK     1      16.710   7.486  10.742  1.00  0.00    -0.000 C 
HETATM   20  C7  UNK     1      18.214   7.473  11.008  1.00  0.00     0.011 C 
HETATM   21  O1  UNK     1      14.656   4.444   9.259  1.00  0.00    -0.267 OA
ENDBRANCH   3  12
BRANCH   9  22
HETATM   22  O4  UNK     1       7.761   5.853   8.528  1.00  0.00    -0.353 OA
HETATM   23  C18 UNK     1       7.288   6.990   9.251  1.00  0.00     0.210 C 
ENDBRANCH   9  22
TORSDOF 2
ENDMDL
MODEL 8
REMARK VINA RESULT:      -7.3     10.425     12.152
REMARK  2 active torsions:
REMARK  status: ('A' for Active; 'I' for Inactive)
REMARK    1  A    between atoms: C15_20  and  O4_4 
REMARK       I    between atoms: C8_13  and  N1_5 
REMARK    2  A    between atoms: C8_13  and  C9_14 
ROOT
HETATM    1  O2  UNK     1      30.125  -6.945  36.563  1.00  0.00    -0.271 OA
HETATM    2  O3  UNK     1      29.065  -8.844  35.861  1.00  0.00    -0.259 OA
HETATM    3  C9  UNK     1      30.365  -7.693  34.248  1.00  0.00     0.108 A 
HETATM    4  C10 UNK     1      31.159  -6.654  33.965  1.00  0.00     0.037 A 
HETATM    5  C11 UNK     1      29.794  -7.892  35.599  1.00  0.00     0.304 A 
HETATM    6  C12 UNK     1      31.485  -5.680  34.995  1.00  0.00     0.002 A 
HETATM    7  C13 UNK     1      30.960  -5.848  36.272  1.00  0.00     0.123 A 
HETATM    8  C14 UNK     1      32.309  -4.579  34.745  1.00  0.00     0.014 A 
HETATM    9  C15 UNK     1      31.234  -4.952  37.303  1.00  0.00     0.102 A 
HETATM   10  C16 UNK     1      32.592  -3.670  35.769  1.00  0.00     0.004 A 
HETATM   11  C17 UNK     1      32.056  -3.858  37.045  1.00  0.00     0.040 A 
ENDROOT
BRANCH   3  12
HETATM   12  C8  UNK     1      30.092  -8.627  33.137  1.00  0.00     0.260 C 
HETATM   13  N1  UNK     1      28.941  -8.419  32.381  1.00  0.00    -0.347 N 
HETATM   14  C4  UNK     1      27.947  -7.354  32.577  1.00  0.00     0.130 C 
HETATM   15  C5  UNK     1      28.618  -9.346  31.295  1.00  0.00     0.130 C 
HETATM   16  C1  UNK     1      27.761  -6.524  31.300  1.00  0.00    -0.000 C 
HETATM   17  C3  UNK     1      27.458  -7.443  30.103  1.00  0.00     0.011 C 
HETATM   18  C6  UNK     1      28.973  -5.627  31.037  1.00  0.00     0.011 C 
HETATM   19  C2  UNK     1      28.471  -8.593  29.965  1.00  0.00    -0.000 C 
HETATM   20  C7  UNK     1      28.054  -9.548  28.848  1.00  0.00     0.011 C 
HETATM   21  O1  UNK     1      30.904  -9.532  32.942  1.00  0.00    -0.267 OA
ENDBRANCH   3  12
BRANCH   9  22
HETATM   22  O4  UNK     1      30.714  -5.129  38.546  1.00  0.00    -0.353 OA
HETATM   23  C18 UNK     1      29.723  -4.195  38.977  1.00  0.00     0.210 C 
ENDBRANCH   9  22
TORSDOF 2
ENDMDL
MODEL 9
REMARK VINA RESULT:      -7.2      7.565     10.549
REMARK  2 active torsions:
REMARK  status: ('A' for Active; 'I' for Inactive)
REMARK    1  A    between atoms: C15_20  and  O4_4 
REMARK       I    between atoms: C8_13  and  N1_5 
REMARK    2  A    between atoms: C8_13  and  C9_14 
ROOT
HETATM    1  O2  UNK     1      24.772  -8.559  37.283  1.00  0.00    -0.271 OA
HETATM    2  O3  UNK     1      26.358  -7.292  38.332  1.00  0.00    -0.259 OA
HETATM    3  C9  UNK     1      26.978  -9.505  37.751  1.00  0.00     0.108 A 
HETATM    4  C10 UNK     1      26.626 -10.670  37.196  1.00  0.00     0.037 A 
HETATM    5  C11 UNK     1      26.039  -8.362  37.823  1.00  0.00     0.304 A 
HETATM    6  C12 UNK     1      25.292 -10.845  36.641  1.00  0.00     0.002 A 
HETATM    7  C13 UNK     1      24.395  -9.784  36.698  1.00  0.00     0.123 A 
HETATM    8  C14 UNK     1      24.882 -12.045  36.053  1.00  0.00     0.014 A 
HETATM    9  C15 UNK     1      23.104  -9.886  36.184  1.00  0.00     0.102 A 
HETATM   10  C16 UNK     1      23.589 -12.162  35.535  1.00  0.00     0.004 A 
HETATM   11  C17 UNK     1      22.703 -11.085  35.600  1.00  0.00     0.040 A 
ENDROOT
BRANCH   3  12
HETATM   12  C8  UNK     1      28.351  -9.425  38.285  1.00  0.00     0.260 C 
HETATM   13  N1  UNK     1      29.380  -9.140  37.391  1.00  0.00    -0.347 N 
HETATM   14  C4  UNK     1      29.244  -8.911  35.946  1.00  0.00     0.130 C 
HETATM   15  C5  UNK     1      30.761  -9.090  37.877  1.00  0.00     0.130 C 
HETATM   16  C1  UNK     1      29.829  -7.552  35.539  1.00  0.00    -0.000 C 
HETATM   17  C3  UNK     1      31.271  -7.413  36.056  1.00  0.00     0.011 C 
HETATM   18  C6  UNK     1      28.940  -6.399  36.014  1.00  0.00     0.011 C 
HETATM   19  C2  UNK     1      31.399  -7.731  37.556  1.00  0.00    -0.000 C 
HETATM   20  C7  UNK     1      32.864  -7.707  37.990  1.00  0.00     0.011 C 
HETATM   21  O1  UNK     1      28.504  -9.612  39.493  1.00  0.00    -0.267 OA
ENDBRANCH   3  12
BRANCH   9  22
HETATM   22  O4  UNK     1      22.237  -8.840  36.246  1.00  0.00    -0.353 OA
HETATM   23  C18 UNK     1      21.266  -8.737  35.205  1.00  0.00     0.210 C 
ENDBRANCH   9  22
TORSDOF 2
ENDMDL
MODEL 10
REMARK VINA RESULT:      -7.2      6.891      9.816
REMARK  2 active torsions:
REMARK  status: ('A' for Active; 'I' for Inactive)
REMARK    1  A    between atoms: C15_20  and  O4_4 
REMARK       I    between atoms: C8_13  and  N1_5 
REMARK    2  A    between atoms: C8_13  and  C9_14 
ROOT
HETATM    1  O2  UNK     1      24.162  -9.593  36.703  1.00  0.00    -0.271 OA
HETATM    2  O3  UNK     1      26.080 -10.664  36.073  1.00  0.00    -0.259 OA
HETATM    3  C9  UNK     1      26.237  -9.215  37.942  1.00  0.00     0.108 A 
HETATM    4  C10 UNK     1      25.619  -8.368  38.772  1.00  0.00     0.037 A 
HETATM    5  C11 UNK     1      25.517  -9.886  36.836  1.00  0.00     0.304 A 
HETATM    6  C12 UNK     1      24.202  -8.080  38.605  1.00  0.00     0.002 A 
HETATM    7  C13 UNK     1      23.506  -8.700  37.573  1.00  0.00     0.123 A 
HETATM    8  C14 UNK     1      23.517  -7.200  39.448  1.00  0.00     0.014 A 
HETATM    9  C15 UNK     1      22.149  -8.469  37.360  1.00  0.00     0.102 A 
HETATM   10  C16 UNK     1      22.155  -6.957  39.246  1.00  0.00     0.004 A 
HETATM   11  C17 UNK     1      21.473  -7.592  38.205  1.00  0.00     0.040 A 
ENDROOT
BRANCH   3  12
HETATM   12  C8  UNK     1      27.674  -9.442  38.192  1.00  0.00     0.260 C 
HETATM   13  N1  UNK     1      28.586  -8.635  37.517  1.00  0.00    -0.347 N 
HETATM   14  C4  UNK     1      28.267  -7.566  36.560  1.00  0.00     0.130 C 
HETATM   15  C5  UNK     1      30.021  -8.855  37.711  1.00  0.00     0.130 C 
HETATM   16  C1  UNK     1      28.886  -6.230  36.991  1.00  0.00    -0.000 C 
HETATM   17  C3  UNK     1      30.392  -6.397  37.254  1.00  0.00     0.011 C 
HETATM   18  C6  UNK     1      28.157  -5.644  38.203  1.00  0.00     0.011 C 
HETATM   19  C2  UNK     1      30.705  -7.571  38.199  1.00  0.00    -0.000 C 
HETATM   20  C7  UNK     1      32.214  -7.776  38.323  1.00  0.00     0.011 C 
HETATM   21  O1  UNK     1      27.980 -10.330  38.989  1.00  0.00    -0.267 OA
ENDBRANCH   3  12
BRANCH   9  22
HETATM   22  O4  UNK     1      21.481  -9.083  36.348  1.00  0.00    -0.353 OA
HETATM   23  C18 UNK     1      20.910  -8.245  35.342  1.00  0.00     0.210 C 
ENDBRANCH   9  22
TORSDOF 2
ENDMDL
