MODEL 1
REMARK VINA RESULT:      -8.7      0.000      0.000
REMARK  7 active torsions:
REMARK  status: ('A' for Active; 'I' for Inactive)
REMARK    1  A    between atoms: C20_27  and  O3_3 
REMARK    2  A    between atoms: C22_29  and  O3_3 
REMARK    3  A    between atoms: C10_17  and  N1_5 
REMARK    4  A    between atoms: C12_19  and  N2_6 
REMARK    5  A    between atoms: C1_8  and  N3_7 
REMARK       I    between atoms: C11_18  and  N3_7 
REMARK    6  A    between atoms: C10_17  and  C11_18 
REMARK    7  A    between atoms: C12_19  and  C13_20 
ROOT
HETATM    1  N1  UNK     1      19.049   6.218  32.396  1.00  0.00     0.100 N 
HETATM    2  N2  UNK     1      18.847   3.562  31.272  1.00  0.00     0.096 N 
HETATM    3  C6  UNK     1      18.672   5.066  33.224  1.00  0.00     0.303 C 
HETATM    4  C7  UNK     1      19.914   5.791  31.288  1.00  0.00     0.303 C 
HETATM    5  C8  UNK     1      17.983   3.990  32.379  1.00  0.00     0.303 C 
HETATM    6  C9  UNK     1      19.226   4.713  30.443  1.00  0.00     0.303 C 
ENDROOT
BRANCH   2   7
HETATM    7  C12 UNK     1      18.187   2.538  30.465  1.00  0.00     0.312 C 
BRANCH   7   8
HETATM    8  C13 UNK     1      18.955   1.262  30.438  1.00  0.00    -0.011 A 
HETATM    9  C14 UNK     1      18.969   0.390  31.620  1.00  0.00     0.009 A 
HETATM   10  C16 UNK     1      19.699  -0.799  31.565  1.00  0.00     0.090 A 
HETATM   11  C17 UNK     1      18.289   0.680  32.810  1.00  0.00     0.051 A 
HETATM   12  O2  UNK     1      20.410  -1.165  30.404  1.00  0.00    -0.275 OA
HETATM   13  C19 UNK     1      19.766  -1.684  32.642  1.00  0.00     0.041 A 
HETATM   14  C18 UNK     1      20.413  -0.362  29.273  1.00  0.00     0.288 A 
HETATM   15  C15 UNK     1      19.640   0.889  29.347  1.00  0.00     0.092 A 
HETATM   16  O4  UNK     1      21.027  -0.671  28.259  1.00  0.00    -0.260 OA
HETATM   17  C21 UNK     1      19.084  -1.377  33.815  1.00  0.00     0.039 A 
HETATM   18  C20 UNK     1      18.346  -0.197  33.899  1.00  0.00     0.069 A 
BRANCH  18  19
HETATM   19  O3  UNK     1      17.678   0.103  35.047  1.00  0.00    -0.351 OA
BRANCH  19  20
HETATM   20  C22 UNK     1      18.467   0.385  36.201  1.00  0.00     0.171 C 
HETATM   21  C23 UNK     1      18.888   1.839  36.169  1.00  0.00     0.034 C 
ENDBRANCH  19  20
ENDBRANCH  18  19
ENDBRANCH   7   8
ENDBRANCH   2   7
BRANCH   1  22
HETATM   22  C10 UNK     1      19.707   7.244  33.202  1.00  0.00     0.374 C 
BRANCH  22  23
HETATM   23  C11 UNK     1      18.699   8.327  33.528  1.00  0.00     0.246 C 
HETATM   24  O1  UNK     1      18.981   9.333  34.174  1.00  0.00    -0.272 OA
HETATM   25  N3  UNK     1      17.452   8.052  32.987  1.00  0.00    -0.355 N 
HETATM   26  H18 UNK     1      17.310   7.171  32.501  1.00  0.00     0.162 HD
BRANCH  25  27
HETATM   27  C1  UNK     1      16.318   8.933  33.124  1.00  0.00     0.084 C 
HETATM   28  C2  UNK     1      15.298   8.724  32.011  1.00  0.00     0.025 C 
HETATM   29  C4  UNK     1      14.449   7.541  32.471  1.00  0.00     0.002 C 
HETATM   30  C5  UNK     1      14.622   7.451  33.987  1.00  0.00     0.002 C 
HETATM   31  C3  UNK     1      15.514   8.625  34.381  1.00  0.00     0.025 C 
ENDBRANCH  25  27
ENDBRANCH  22  23
ENDBRANCH   1  22
TORSDOF 7
ENDMDL
MODEL 2
REMARK VINA RESULT:      -8.4      2.841      9.652
REMARK  7 active torsions:
REMARK  status: ('A' for Active; 'I' for Inactive)
REMARK    1  A    between atoms: C20_27  and  O3_3 
REMARK    2  A    between atoms: C22_29  and  O3_3 
REMARK    3  A    between atoms: C10_17  and  N1_5 
REMARK    4  A    between atoms: C12_19  and  N2_6 
REMARK    5  A    between atoms: C1_8  and  N3_7 
REMARK       I    between atoms: C11_18  and  N3_7 
REMARK    6  A    between atoms: C10_17  and  C11_18 
REMARK    7  A    between atoms: C12_19  and  C13_20 
ROOT
HETATM    1  N1  UNK     1      18.384   5.117  31.447  1.00  0.00     0.100 N 
HETATM    2  N2  UNK     1      18.237   7.154  33.493  1.00  0.00     0.096 N 
HETATM    3  C6  UNK     1      18.603   6.533  31.129  1.00  0.00     0.303 C 
HETATM    4  C7  UNK     1      18.780   4.836  32.833  1.00  0.00     0.303 C 
HETATM    5  C8  UNK     1      17.841   7.435  32.107  1.00  0.00     0.303 C 
HETATM    6  C9  UNK     1      18.019   5.738  33.811  1.00  0.00     0.303 C 
ENDROOT
BRANCH   2   7
HETATM    7  C12 UNK     1      17.508   8.012  34.424  1.00  0.00     0.312 C 
BRANCH   7   8
HETATM    8  C13 UNK     1      16.164   8.392  33.905  1.00  0.00    -0.011 A 
HETATM    9  C14 UNK     1      15.772   9.808  33.852  1.00  0.00     0.009 A 
HETATM   10  C16 UNK     1      14.506  10.132  33.362  1.00  0.00     0.090 A 
HETATM   11  C17 UNK     1      16.598  10.860  34.267  1.00  0.00     0.051 A 
HETATM   12  O2  UNK     1      13.616   9.132  32.923  1.00  0.00    -0.275 OA
HETATM   13  C19 UNK     1      14.054  11.451  33.278  1.00  0.00     0.041 A 
HETATM   14  C18 UNK     1      13.959   7.789  32.959  1.00  0.00     0.288 A 
HETATM   15  C15 UNK     1      15.298   7.462  33.480  1.00  0.00     0.092 A 
HETATM   16  O4  UNK     1      13.193   6.911  32.580  1.00  0.00    -0.260 OA
HETATM   17  C21 UNK     1      14.889  12.482  33.696  1.00  0.00     0.039 A 
HETATM   18  C20 UNK     1      16.159  12.187  34.189  1.00  0.00     0.069 A 
BRANCH  18  19
HETATM   19  O3  UNK     1      16.978  13.196  34.598  1.00  0.00    -0.351 OA
BRANCH  19  20
HETATM   20  C22 UNK     1      18.366  13.068  34.297  1.00  0.00     0.171 C 
HETATM   21  C23 UNK     1      18.652  13.764  32.983  1.00  0.00     0.034 C 
ENDBRANCH  19  20
ENDBRANCH  18  19
ENDBRANCH   7   8
ENDBRANCH   2   7
BRANCH   1  22
HETATM   22  C10 UNK     1      19.110   4.257  30.515  1.00  0.00     0.374 C 
BRANCH  22  23
HETATM   23  C11 UNK     1      18.435   2.901  30.476  1.00  0.00     0.246 C 
HETATM   24  O1  UNK     1      17.257   2.730  30.778  1.00  0.00    -0.272 OA
HETATM   25  N3  UNK     1      19.297   1.907  30.036  1.00  0.00    -0.355 N 
HETATM   26  H18 UNK     1      20.267   2.145  29.848  1.00  0.00     0.162 HD
BRANCH  25  27
HETATM   27  C1  UNK     1      18.902   0.530  29.879  1.00  0.00     0.084 C 
HETATM   28  C2  UNK     1      19.569  -0.120  28.673  1.00  0.00     0.025 C 
HETATM   29  C4  UNK     1      20.945  -0.559  29.171  1.00  0.00     0.002 C 
HETATM   30  C5  UNK     1      20.840  -0.654  30.694  1.00  0.00     0.002 C 
HETATM   31  C3  UNK     1      19.389  -0.331  31.038  1.00  0.00     0.025 C 
ENDBRANCH  25  27
ENDBRANCH  22  23
ENDBRANCH   1  22
TORSDOF 7
ENDMDL
MODEL 3
REMARK VINA RESULT:      -8.3      3.952      9.444
REMARK  7 active torsions:
REMARK  status: ('A' for Active; 'I' for Inactive)
REMARK    1  A    between atoms: C20_27  and  O3_3 
REMARK    2  A    between atoms: C22_29  and  O3_3 
REMARK    3  A    between atoms: C10_17  and  N1_5 
REMARK    4  A    between atoms: C12_19  and  N2_6 
REMARK    5  A    between atoms: C1_8  and  N3_7 
REMARK       I    between atoms: C11_18  and  N3_7 
REMARK    6  A    between atoms: C10_17  and  C11_18 
REMARK    7  A    between atoms: C12_19  and  C13_20 
ROOT
HETATM    1  N1  UNK     1      18.160  -0.975  36.600  1.00  0.00     0.100 N 
HETATM    2  N2  UNK     1      17.867   1.517  35.163  1.00  0.00     0.096 N 
HETATM    3  C6  UNK     1      17.049  -0.058  36.883  1.00  0.00     0.303 C 
HETATM    4  C7  UNK     1      18.585  -0.848  35.201  1.00  0.00     0.303 C 
HETATM    5  C8  UNK     1      17.442   1.389  36.562  1.00  0.00     0.303 C 
HETATM    6  C9  UNK     1      18.977   0.599  34.878  1.00  0.00     0.303 C 
ENDROOT
BRANCH   2   7
HETATM    7  C12 UNK     1      18.244   2.895  34.859  1.00  0.00     0.312 C 
BRANCH   7   8
HETATM    8  C13 UNK     1      18.288   3.156  33.393  1.00  0.00    -0.011 A 
HETATM    9  C14 UNK     1      18.326   4.539  32.896  1.00  0.00     0.009 A 
HETATM   10  C16 UNK     1      18.365   4.752  31.517  1.00  0.00     0.090 A 
HETATM   11  C17 UNK     1      18.325   5.666  33.728  1.00  0.00     0.051 A 
HETATM   12  O2  UNK     1      18.370   3.671  30.612  1.00  0.00    -0.275 OA
HETATM   13  C19 UNK     1      18.403   6.032  30.960  1.00  0.00     0.041 A 
HETATM   14  C18 UNK     1      18.337   2.357  31.053  1.00  0.00     0.288 A 
HETATM   15  C15 UNK     1      18.294   2.148  32.510  1.00  0.00     0.092 A 
HETATM   16  O4  UNK     1      18.341   1.410  30.274  1.00  0.00    -0.260 OA
HETATM   17  C21 UNK     1      18.401   7.138  31.804  1.00  0.00     0.039 A 
HETATM   18  C20 UNK     1      18.363   6.956  33.186  1.00  0.00     0.069 A 
BRANCH  18  19
HETATM   19  O3  UNK     1      18.361   8.038  34.011  1.00  0.00    -0.351 OA
BRANCH  19  20
HETATM   20  C22 UNK     1      19.450   8.157  34.925  1.00  0.00     0.171 C 
HETATM   21  C23 UNK     1      20.330   9.313  34.498  1.00  0.00     0.034 C 
ENDBRANCH  19  20
ENDBRANCH  18  19
ENDBRANCH   7   8
ENDBRANCH   2   7
BRANCH   1  22
HETATM   22  C10 UNK     1      17.786  -2.354  36.906  1.00  0.00     0.374 C 
BRANCH  22  23
HETATM   23  C11 UNK     1      19.047  -3.176  37.068  1.00  0.00     0.246 C 
HETATM   24  O1  UNK     1      20.063  -2.748  37.610  1.00  0.00    -0.272 OA
HETATM   25  N3  UNK     1      18.896  -4.459  36.560  1.00  0.00    -0.355 N 
HETATM   26  H18 UNK     1      18.027  -4.704  36.094  1.00  0.00     0.162 HD
BRANCH  25  27
HETATM   27  C1  UNK     1      19.936  -5.457  36.610  1.00  0.00     0.084 C 
HETATM   28  C2  UNK     1      19.865  -6.288  37.886  1.00  0.00     0.025 C 
HETATM   29  C4  UNK     1      18.825  -7.369  37.596  1.00  0.00     0.002 C 
HETATM   30  C5  UNK     1      18.731  -7.477  36.074  1.00  0.00     0.002 C 
HETATM   31  C3  UNK     1      19.765  -6.504  35.516  1.00  0.00     0.025 C 
ENDBRANCH  25  27
ENDBRANCH  22  23
ENDBRANCH   1  22
TORSDOF 7
ENDMDL
MODEL 4
REMARK VINA RESULT:      -8.3     14.299     17.328
REMARK  7 active torsions:
REMARK  status: ('A' for Active; 'I' for Inactive)
REMARK    1  A    between atoms: C20_27  and  O3_3 
REMARK    2  A    between atoms: C22_29  and  O3_3 
REMARK    3  A    between atoms: C10_17  and  N1_5 
REMARK    4  A    between atoms: C12_19  and  N2_6 
REMARK    5  A    between atoms: C1_8  and  N3_7 
REMARK       I    between atoms: C11_18  and  N3_7 
REMARK    6  A    between atoms: C10_17  and  C11_18 
REMARK    7  A    between atoms: C12_19  and  C13_20 
ROOT
HETATM    1  N1  UNK     1      26.311  -9.980  36.427  1.00  0.00     0.100 N 
HETATM    2  N2  UNK     1      28.239  -7.826  36.420  1.00  0.00     0.096 N 
HETATM    3  C6  UNK     1      27.547 -10.066  35.639  1.00  0.00     0.303 C 
HETATM    4  C7  UNK     1      26.516  -9.137  37.611  1.00  0.00     0.303 C 
HETATM    5  C8  UNK     1      28.034  -8.669  35.236  1.00  0.00     0.303 C 
HETATM    6  C9  UNK     1      27.004  -7.741  37.209  1.00  0.00     0.303 C 
ENDROOT
BRANCH   2   7
HETATM    7  C12 UNK     1      28.700  -6.494  36.035  1.00  0.00     0.312 C 
BRANCH   7   8
HETATM    8  C13 UNK     1      29.600  -5.892  37.058  1.00  0.00    -0.011 A 
HETATM    9  C14 UNK     1      31.040  -6.184  37.030  1.00  0.00     0.009 A 
HETATM   10  C16 UNK     1      31.858  -5.606  38.002  1.00  0.00     0.090 A 
HETATM   11  C17 UNK     1      31.648  -7.013  36.079  1.00  0.00     0.051 A 
HETATM   12  O2  UNK     1      31.324  -4.759  38.994  1.00  0.00    -0.275 OA
HETATM   13  C19 UNK     1      33.235  -5.831  38.049  1.00  0.00     0.041 A 
HETATM   14  C18 UNK     1      29.970  -4.464  39.044  1.00  0.00     0.288 A 
HETATM   15  C15 UNK     1      29.120  -5.082  38.012  1.00  0.00     0.092 A 
HETATM   16  O4  UNK     1      29.496  -3.729  39.901  1.00  0.00    -0.260 OA
HETATM   17  C21 UNK     1      33.820  -6.658  37.095  1.00  0.00     0.039 A 
HETATM   18  C20 UNK     1      33.028  -7.248  36.111  1.00  0.00     0.069 A 
BRANCH  18  19
HETATM   19  O3  UNK     1      33.599  -8.058  35.177  1.00  0.00    -0.351 OA
BRANCH  19  20
HETATM   20  C22 UNK     1      32.937  -8.163  33.918  1.00  0.00     0.171 C 
HETATM   21  C23 UNK     1      33.567  -7.188  32.946  1.00  0.00     0.034 C 
ENDBRANCH  19  20
ENDBRANCH  18  19
ENDBRANCH   7   8
ENDBRANCH   2   7
BRANCH   1  22
HETATM   22  C10 UNK     1      25.847 -11.312  36.811  1.00  0.00     0.374 C 
BRANCH  22  23
HETATM   23  C11 UNK     1      24.599 -11.640  36.018  1.00  0.00     0.246 C 
HETATM   24  O1  UNK     1      24.566 -12.506  35.148  1.00  0.00    -0.272 OA
HETATM   25  N3  UNK     1      23.516 -10.871  36.418  1.00  0.00    -0.355 N 
HETATM   26  H18 UNK     1      23.656 -10.151  37.122  1.00  0.00     0.162 HD
BRANCH  25  27
HETATM   27  C1  UNK     1      22.199 -11.001  35.845  1.00  0.00     0.084 C 
HETATM   28  C2  UNK     1      21.106 -10.901  36.903  1.00  0.00     0.025 C 
HETATM   29  C4  UNK     1      20.885  -9.403  37.102  1.00  0.00     0.002 C 
HETATM   30  C5  UNK     1      21.416  -8.719  35.842  1.00  0.00     0.002 C 
HETATM   31  C3  UNK     1      21.873  -9.840  34.913  1.00  0.00     0.025 C 
ENDBRANCH  25  27
ENDBRANCH  22  23
ENDBRANCH   1  22
TORSDOF 7
ENDMDL
MODEL 5
REMARK VINA RESULT:      -8.2      1.916      4.078
REMARK  7 active torsions:
REMARK  status: ('A' for Active; 'I' for Inactive)
REMARK    1  A    between atoms: C20_27  and  O3_3 
REMARK    2  A    between atoms: C22_29  and  O3_3 
REMARK    3  A    between atoms: C10_17  and  N1_5 
REMARK    4  A    between atoms: C12_19  and  N2_6 
REMARK    5  A    between atoms: C1_8  and  N3_7 
REMARK       I    between atoms: C11_18  and  N3_7 
REMARK    6  A    between atoms: C10_17  and  C11_18 
REMARK    7  A    between atoms: C12_19  and  C13_20 
ROOT
HETATM    1  N1  UNK     1      18.353   4.474  32.887  1.00  0.00     0.100 N 
HETATM    2  N2  UNK     1      18.360   1.682  33.638  1.00  0.00     0.096 N 
HETATM    3  C6  UNK     1      18.764   4.048  34.230  1.00  0.00     0.303 C 
HETATM    4  C7  UNK     1      18.641   3.421  31.905  1.00  0.00     0.303 C 
HETATM    5  C8  UNK     1      18.073   2.736  34.619  1.00  0.00     0.303 C 
HETATM    6  C9  UNK     1      17.952   2.109  32.294  1.00  0.00     0.303 C 
ENDROOT
BRANCH   2   7
HETATM    7  C12 UNK     1      17.699   0.434  34.009  1.00  0.00     0.312 C 
BRANCH   7   8
HETATM    8  C13 UNK     1      18.671  -0.670  34.245  1.00  0.00    -0.011 A 
HETATM    9  C14 UNK     1      19.387  -1.270  33.111  1.00  0.00     0.009 A 
HETATM   10  C16 UNK     1      20.292  -2.303  33.363  1.00  0.00     0.090 A 
HETATM   11  C17 UNK     1      19.217  -0.866  31.780  1.00  0.00     0.051 A 
HETATM   12  O2  UNK     1      20.521  -2.767  34.674  1.00  0.00    -0.275 OA
HETATM   13  C19 UNK     1      21.013  -2.929  32.344  1.00  0.00     0.041 A 
HETATM   14  C18 UNK     1      19.861  -2.219  35.763  1.00  0.00     0.288 A 
HETATM   15  C15 UNK     1      18.909  -1.131  35.481  1.00  0.00     0.092 A 
HETATM   16  O4  UNK     1      20.054  -2.614  36.907  1.00  0.00    -0.260 OA
HETATM   17  C21 UNK     1      20.830  -2.512  31.030  1.00  0.00     0.039 A 
HETATM   18  C20 UNK     1      19.933  -1.482  30.748  1.00  0.00     0.069 A 
BRANCH  18  19
HETATM   19  O3  UNK     1      19.753  -1.075  29.461  1.00  0.00    -0.351 OA
BRANCH  19  20
HETATM   20  C22 UNK     1      19.854   0.325  29.205  1.00  0.00     0.171 C 
HETATM   21  C23 UNK     1      18.571   0.802  28.558  1.00  0.00     0.034 C 
ENDBRANCH  19  20
ENDBRANCH  18  19
ENDBRANCH   7   8
ENDBRANCH   2   7
BRANCH   1  22
HETATM   22  C10 UNK     1      19.012   5.724  32.515  1.00  0.00     0.374 C 
BRANCH  22  23
HETATM   23  C11 UNK     1      18.043   6.564  31.708  1.00  0.00     0.246 C 
HETATM   24  O1  UNK     1      18.097   6.661  30.485  1.00  0.00    -0.272 OA
HETATM   25  N3  UNK     1      17.091   7.171  32.514  1.00  0.00    -0.355 N 
HETATM   26  H18 UNK     1      17.156   7.060  33.522  1.00  0.00     0.162 HD
BRANCH  25  27
HETATM   27  C1  UNK     1      16.033   8.004  31.998  1.00  0.00     0.084 C 
HETATM   28  C2  UNK     1      14.706   7.258  31.924  1.00  0.00     0.025 C 
HETATM   29  C4  UNK     1      14.117   7.360  33.330  1.00  0.00     0.002 C 
HETATM   30  C5  UNK     1      14.798   8.557  33.995  1.00  0.00     0.002 C 
HETATM   31  C3  UNK     1      15.717   9.161  32.938  1.00  0.00     0.025 C 
ENDBRANCH  25  27
ENDBRANCH  22  23
ENDBRANCH   1  22
TORSDOF 7
ENDMDL
MODEL 6
REMARK VINA RESULT:      -8.1     13.135     16.370
REMARK  7 active torsions:
REMARK  status: ('A' for Active; 'I' for Inactive)
REMARK    1  A    between atoms: C20_27  and  O3_3 
REMARK    2  A    between atoms: C22_29  and  O3_3 
REMARK    3  A    between atoms: C10_17  and  N1_5 
REMARK    4  A    between atoms: C12_19  and  N2_6 
REMARK    5  A    between atoms: C1_8  and  N3_7 
REMARK       I    between atoms: C11_18  and  N3_7 
REMARK    6  A    between atoms: C10_17  and  C11_18 
REMARK    7  A    between atoms: C12_19  and  C13_20 
ROOT
HETATM    1  N1  UNK     1      29.830  -8.766  37.058  1.00  0.00     0.100 N 
HETATM    2  N2  UNK     1      27.057  -9.542  37.311  1.00  0.00     0.096 N 
HETATM    3  C6  UNK     1      29.367  -9.581  38.188  1.00  0.00     0.303 C 
HETATM    4  C7  UNK     1      28.995  -9.010  35.875  1.00  0.00     0.303 C 
HETATM    5  C8  UNK     1      27.892  -9.298  38.494  1.00  0.00     0.303 C 
HETATM    6  C9  UNK     1      27.520  -8.729  36.180  1.00  0.00     0.303 C 
ENDROOT
BRANCH   2   7
HETATM    7  C12 UNK     1      25.651  -9.269  37.604  1.00  0.00     0.312 C 
BRANCH   7   8
HETATM    8  C13 UNK     1      24.734 -10.137  36.815  1.00  0.00    -0.011 A 
HETATM    9  C14 UNK     1      23.368  -9.682  36.517  1.00  0.00     0.009 A 
HETATM   10  C16 UNK     1      22.532 -10.518  35.776  1.00  0.00     0.090 A 
HETATM   11  C17 UNK     1      22.851  -8.449  36.934  1.00  0.00     0.051 A 
HETATM   12  O2  UNK     1      22.977 -11.774  35.318  1.00  0.00    -0.275 OA
HETATM   13  C19 UNK     1      21.221 -10.164  35.450  1.00  0.00     0.041 A 
HETATM   14  C18 UNK     1      24.260 -12.230  35.582  1.00  0.00     0.288 A 
HETATM   15  C15 UNK     1      25.131 -11.337  36.366  1.00  0.00     0.092 A 
HETATM   16  O4  UNK     1      24.657 -13.320  35.188  1.00  0.00    -0.260 OA
HETATM   17  C21 UNK     1      20.726  -8.934  35.874  1.00  0.00     0.039 A 
HETATM   18  C20 UNK     1      21.540  -8.078  36.615  1.00  0.00     0.069 A 
BRANCH  18  19
HETATM   19  O3  UNK     1      21.055  -6.875  37.030  1.00  0.00    -0.351 OA
BRANCH  19  20
HETATM   20  C22 UNK     1      19.847  -6.889  37.788  1.00  0.00     0.171 C 
HETATM   21  C23 UNK     1      20.190  -6.883  39.263  1.00  0.00     0.034 C 
ENDBRANCH  19  20
ENDBRANCH  18  19
ENDBRANCH   7   8
ENDBRANCH   2   7
BRANCH   1  22
HETATM   22  C10 UNK     1      31.236  -9.036  36.765  1.00  0.00     0.374 C 
BRANCH  22  23
HETATM   23  C11 UNK     1      32.082  -7.945  37.390  1.00  0.00     0.246 C 
HETATM   24  O1  UNK     1      33.291  -8.057  37.576  1.00  0.00    -0.272 OA
HETATM   25  N3  UNK     1      31.330  -6.818  37.691  1.00  0.00    -0.355 N 
HETATM   26  H18 UNK     1      30.326  -6.840  37.535  1.00  0.00     0.162 HD
BRANCH  25  27
HETATM   27  C1  UNK     1      31.894  -5.623  38.268  1.00  0.00     0.084 C 
HETATM   28  C2  UNK     1      32.592  -4.760  37.223  1.00  0.00     0.025 C 
HETATM   29  C4  UNK     1      31.475  -3.938  36.580  1.00  0.00     0.002 C 
HETATM   30  C5  UNK     1      30.318  -3.931  37.579  1.00  0.00     0.002 C 
HETATM   31  C3  UNK     1      30.813  -4.693  38.805  1.00  0.00     0.025 C 
ENDBRANCH  25  27
ENDBRANCH  22  23
ENDBRANCH   1  22
TORSDOF 7
ENDMDL
MODEL 7
REMARK VINA RESULT:      -8.1     15.945     19.698
REMARK  7 active torsions:
REMARK  status: ('A' for Active; 'I' for Inactive)
REMARK    1  A    between atoms: C20_27  and  O3_3 
REMARK    2  A    between atoms: C22_29  and  O3_3 
REMARK    3  A    between atoms: C10_17  and  N1_5 
REMARK    4  A    between atoms: C12_19  and  N2_6 
REMARK    5  A    between atoms: C1_8  and  N3_7 
REMARK       I    between atoms: C11_18  and  N3_7 
REMARK    6  A    between atoms: C10_17  and  C11_18 
REMARK    7  A    between atoms: C12_19  and  C13_20 
ROOT
HETATM    1  N1  UNK     1      35.037  -6.371  34.971  1.00  0.00     0.100 N 
HETATM    2  N2  UNK     1      32.375  -5.766  35.920  1.00  0.00     0.096 N 
HETATM    3  C6  UNK     1      34.812  -5.369  36.019  1.00  0.00     0.303 C 
HETATM    4  C7  UNK     1      33.991  -7.400  35.012  1.00  0.00     0.303 C 
HETATM    5  C8  UNK     1      33.422  -4.738  35.879  1.00  0.00     0.303 C 
HETATM    6  C9  UNK     1      32.600  -6.770  34.873  1.00  0.00     0.303 C 
ENDROOT
BRANCH   2   7
HETATM    7  C12 UNK     1      31.050  -5.164  35.784  1.00  0.00     0.312 C 
BRANCH   7   8
HETATM    8  C13 UNK     1      30.247  -5.282  37.032  1.00  0.00    -0.011 A 
HETATM    9  C14 UNK     1      29.370  -6.445  37.232  1.00  0.00     0.009 A 
HETATM   10  C16 UNK     1      28.629  -6.528  38.412  1.00  0.00     0.090 A 
HETATM   11  C17 UNK     1      29.233  -7.485  36.304  1.00  0.00     0.051 A 
HETATM   12  O2  UNK     1      28.712  -5.524  39.397  1.00  0.00    -0.275 OA
HETATM   13  C19 UNK     1      27.773  -7.598  38.682  1.00  0.00     0.041 A 
HETATM   14  C18 UNK     1      29.532  -4.416  39.237  1.00  0.00     0.288 A 
HETATM   15  C15 UNK     1      30.307  -4.342  37.986  1.00  0.00     0.092 A 
HETATM   16  O4  UNK     1      29.611  -3.538  40.087  1.00  0.00    -0.260 OA
HETATM   17  C21 UNK     1      27.650  -8.620  37.746  1.00  0.00     0.039 A 
HETATM   18  C20 UNK     1      28.379  -8.565  36.559  1.00  0.00     0.069 A 
BRANCH  18  19
HETATM   19  O3  UNK     1      28.260  -9.565  35.644  1.00  0.00    -0.351 OA
BRANCH  19  20
HETATM   20  C22 UNK     1      29.421  -9.888  34.881  1.00  0.00     0.171 C 
HETATM   21  C23 UNK     1      29.004 -10.225  33.465  1.00  0.00     0.034 C 
ENDBRANCH  19  20
ENDBRANCH  18  19
ENDBRANCH   7   8
ENDBRANCH   2   7
BRANCH   1  22
HETATM   22  C10 UNK     1      36.362  -6.973  35.104  1.00  0.00     0.374 C 
BRANCH  22  23
HETATM   23  C11 UNK     1      36.751  -7.594  33.778  1.00  0.00     0.246 C 
HETATM   24  O1  UNK     1      36.707  -6.984  32.714  1.00  0.00    -0.272 OA
HETATM   25  N3  UNK     1      37.181  -8.905  33.928  1.00  0.00    -0.355 N 
HETATM   26  H18 UNK     1      37.142  -9.334  34.849  1.00  0.00     0.162 HD
BRANCH  25  27
HETATM   27  C1  UNK     1      37.635  -9.719  32.828  1.00  0.00     0.084 C 
HETATM   28  C2  UNK     1      38.255 -11.027  33.306  1.00  0.00     0.025 C 
HETATM   29  C4  UNK     1      37.072 -11.967  33.529  1.00  0.00     0.002 C 
HETATM   30  C5  UNK     1      35.916 -11.407  32.699  1.00  0.00     0.002 C 
HETATM   31  C3  UNK     1      36.475 -10.193  31.962  1.00  0.00     0.025 C 
ENDBRANCH  25  27
ENDBRANCH  22  23
ENDBRANCH   1  22
TORSDOF 7
ENDMDL
MODEL 8
REMARK VINA RESULT:      -8.0     23.058     25.315
REMARK  7 active torsions:
REMARK  status: ('A' for Active; 'I' for Inactive)
REMARK    1  A    between atoms: C20_27  and  O3_3 
REMARK    2  A    between atoms: C22_29  and  O3_3 
REMARK    3  A    between atoms: C10_17  and  N1_5 
REMARK    4  A    between atoms: C12_19  and  N2_6 
REMARK    5  A    between atoms: C1_8  and  N3_7 
REMARK       I    between atoms: C11_18  and  N3_7 
REMARK    6  A    between atoms: C10_17  and  C11_18 
REMARK    7  A    between atoms: C12_19  and  C13_20 
ROOT
HETATM    1  N1  UNK     1      12.194   6.076   7.406  1.00  0.00     0.100 N 
HETATM    2  N2  UNK     1       9.386   6.307   8.054  1.00  0.00     0.096 N 
HETATM    3  C6  UNK     1      11.246   6.700   6.475  1.00  0.00     0.303 C 
HETATM    4  C7  UNK     1      11.744   6.255   8.792  1.00  0.00     0.303 C 
HETATM    5  C8  UNK     1       9.837   6.128   6.668  1.00  0.00     0.303 C 
HETATM    6  C9  UNK     1      10.334   5.685   8.985  1.00  0.00     0.303 C 
ENDROOT
BRANCH   2   7
HETATM    7  C12 UNK     1       8.044   5.759   8.237  1.00  0.00     0.312 C 
BRANCH   7   8
HETATM    8  C13 UNK     1       7.410   6.233   9.499  1.00  0.00    -0.011 A 
HETATM    9  C14 UNK     1       6.704   5.281  10.368  1.00  0.00     0.009 A 
HETATM   10  C16 UNK     1       6.120   5.755  11.543  1.00  0.00     0.090 A 
HETATM   11  C17 UNK     1       6.581   3.914  10.086  1.00  0.00     0.051 A 
HETATM   12  O2  UNK     1       6.200   7.117  11.899  1.00  0.00    -0.275 OA
HETATM   13  C19 UNK     1       5.431   4.919  12.424  1.00  0.00     0.041 A 
HETATM   14  C18 UNK     1       6.861   8.038  11.100  1.00  0.00     0.288 A 
HETATM   15  C15 UNK     1       7.471   7.522   9.863  1.00  0.00     0.092 A 
HETATM   16  O4  UNK     1       6.937   9.223  11.401  1.00  0.00    -0.260 OA
HETATM   17  C21 UNK     1       5.320   3.565  12.126  1.00  0.00     0.039 A 
HETATM   18  C20 UNK     1       5.894   3.063  10.959  1.00  0.00     0.069 A 
BRANCH  18  19
HETATM   19  O3  UNK     1       5.785   1.737  10.667  1.00  0.00    -0.351 OA
BRANCH  19  20
HETATM   20  C22 UNK     1       4.743   1.354   9.772  1.00  0.00     0.171 C 
HETATM   21  C23 UNK     1       5.352   0.659   8.573  1.00  0.00     0.034 C 
ENDBRANCH  19  20
ENDBRANCH  18  19
ENDBRANCH   7   8
ENDBRANCH   2   7
BRANCH   1  22
HETATM   22  C10 UNK     1      13.537   6.621   7.222  1.00  0.00     0.374 C 
BRANCH  22  23
HETATM   23  C11 UNK     1      14.401   6.193   8.391  1.00  0.00     0.246 C 
HETATM   24  O1  UNK     1      14.780   5.036   8.556  1.00  0.00    -0.272 OA
HETATM   25  N3  UNK     1      14.722   7.261   9.215  1.00  0.00    -0.355 N 
HETATM   26  H18 UNK     1      14.325   8.175   9.013  1.00  0.00     0.162 HD
BRANCH  25  27
HETATM   27  C1  UNK     1      15.556   7.136  10.384  1.00  0.00     0.084 C 
HETATM   28  C2  UNK     1      17.030   7.340  10.057  1.00  0.00     0.025 C 
HETATM   29  C4  UNK     1      17.230   8.854  10.063  1.00  0.00     0.002 C 
HETATM   30  C5  UNK     1      16.081   9.436  10.887  1.00  0.00     0.002 C 
HETATM   31  C3  UNK     1      15.279   8.242  11.395  1.00  0.00     0.025 C 
ENDBRANCH  25  27
ENDBRANCH  22  23
ENDBRANCH   1  22
TORSDOF 7
ENDMDL
MODEL 9
REMARK VINA RESULT:      -8.0     14.771     17.685
REMARK  7 active torsions:
REMARK  status: ('A' for Active; 'I' for Inactive)
REMARK    1  A    between atoms: C20_27  and  O3_3 
REMARK    2  A    between atoms: C22_29  and  O3_3 
REMARK    3  A    between atoms: C10_17  and  N1_5 
REMARK    4  A    between atoms: C12_19  and  N2_6 
REMARK    5  A    between atoms: C1_8  and  N3_7 
REMARK       I    between atoms: C11_18  and  N3_7 
REMARK    6  A    between atoms: C10_17  and  C11_18 
REMARK    7  A    between atoms: C12_19  and  C13_20 
ROOT
HETATM    1  N1  UNK     1      29.101  -9.419  34.586  1.00  0.00     0.100 N 
HETATM    2  N2  UNK     1      28.901  -9.466  37.470  1.00  0.00     0.096 N 
HETATM    3  C6  UNK     1      30.200  -9.921  35.418  1.00  0.00     0.303 C 
HETATM    4  C7  UNK     1      27.812  -9.632  35.258  1.00  0.00     0.303 C 
HETATM    5  C8  UNK     1      30.188  -9.254  36.798  1.00  0.00     0.303 C 
HETATM    6  C9  UNK     1      27.800  -8.966  36.638  1.00  0.00     0.303 C 
ENDROOT
BRANCH   2   7
HETATM    7  C12 UNK     1      28.890  -8.827  38.784  1.00  0.00     0.312 C 
BRANCH   7   8
HETATM    8  C13 UNK     1      28.458  -7.403  38.713  1.00  0.00    -0.011 A 
HETATM    9  C14 UNK     1      29.461  -6.341  38.546  1.00  0.00     0.009 A 
HETATM   10  C16 UNK     1      29.026  -5.016  38.484  1.00  0.00     0.090 A 
HETATM   11  C17 UNK     1      30.837  -6.579  38.443  1.00  0.00     0.051 A 
HETATM   12  O2  UNK     1      27.658  -4.693  38.577  1.00  0.00    -0.275 OA
HETATM   13  C19 UNK     1      29.911  -3.947  38.327  1.00  0.00     0.041 A 
HETATM   14  C18 UNK     1      26.689  -5.674  38.733  1.00  0.00     0.288 A 
HETATM   15  C15 UNK     1      27.163  -7.067  38.798  1.00  0.00     0.092 A 
HETATM   16  O4  UNK     1      25.497  -5.403  38.815  1.00  0.00    -0.260 OA
HETATM   17  C21 UNK     1      31.274  -4.205  38.227  1.00  0.00     0.039 A 
HETATM   18  C20 UNK     1      31.737  -5.519  38.285  1.00  0.00     0.069 A 
BRANCH  18  19
HETATM   19  O3  UNK     1      33.072  -5.771  38.188  1.00  0.00    -0.351 OA
BRANCH  19  20
HETATM   20  C22 UNK     1      33.619  -5.864  36.875  1.00  0.00     0.171 C 
HETATM   21  C23 UNK     1      34.031  -7.297  36.611  1.00  0.00     0.034 C 
ENDBRANCH  19  20
ENDBRANCH  18  19
ENDBRANCH   7   8
ENDBRANCH   2   7
BRANCH   1  22
HETATM   22  C10 UNK     1      29.112 -10.055  33.271  1.00  0.00     0.374 C 
BRANCH  22  23
HETATM   23  C11 UNK     1      28.663  -9.043  32.236  1.00  0.00     0.246 C 
HETATM   24  O1  UNK     1      28.386  -7.879  32.513  1.00  0.00    -0.272 OA
HETATM   25  N3  UNK     1      28.636  -9.586  30.960  1.00  0.00    -0.355 N 
HETATM   26  H18 UNK     1      28.846 -10.574  30.841  1.00  0.00     0.162 HD
BRANCH  25  27
HETATM   27  C1  UNK     1      28.272  -8.832  29.787  1.00  0.00     0.084 C 
HETATM   28  C2  UNK     1      29.441  -8.016  29.249  1.00  0.00     0.025 C 
HETATM   29  C4  UNK     1      30.240  -8.992  28.387  1.00  0.00     0.002 C 
HETATM   30  C5  UNK     1      29.280 -10.122  28.015  1.00  0.00     0.002 C 
HETATM   31  C3  UNK     1      27.929  -9.743  28.615  1.00  0.00     0.025 C 
ENDBRANCH  25  27
ENDBRANCH  22  23
ENDBRANCH   1  22
TORSDOF 7
ENDMDL
MODEL 10
REMARK VINA RESULT:      -7.9     13.058     16.622
REMARK  7 active torsions:
REMARK  status: ('A' for Active; 'I' for Inactive)
REMARK    1  A    between atoms: C20_27  and  O3_3 
REMARK    2  A    between atoms: C22_29  and  O3_3 
REMARK    3  A    between atoms: C10_17  and  N1_5 
REMARK    4  A    between atoms: C12_19  and  N2_6 
REMARK    5  A    between atoms: C1_8  and  N3_7 
REMARK       I    between atoms: C11_18  and  N3_7 
REMARK    6  A    between atoms: C10_17  and  C11_18 
REMARK    7  A    between atoms: C12_19  and  C13_20 
ROOT
HETATM    1  N1  UNK     1      29.719  -8.191  37.267  1.00  0.00     0.100 N 
HETATM    2  N2  UNK     1      26.973  -9.095  37.326  1.00  0.00     0.096 N 
HETATM    3  C6  UNK     1      29.287  -9.257  38.180  1.00  0.00     0.303 C 
HETATM    4  C7  UNK     1      28.888  -8.187  36.056  1.00  0.00     0.303 C 
HETATM    5  C8  UNK     1      27.804  -9.100  38.537  1.00  0.00     0.303 C 
HETATM    6  C9  UNK     1      27.406  -8.032  36.412  1.00  0.00     0.303 C 
ENDROOT
BRANCH   2   7
HETATM    7  C12 UNK     1      25.561  -8.943  37.668  1.00  0.00     0.312 C 
BRANCH   7   8
HETATM    8  C13 UNK     1      24.690  -9.862  36.883  1.00  0.00    -0.011 A 
HETATM    9  C14 UNK     1      23.305  -9.477  36.576  1.00  0.00     0.009 A 
HETATM   10  C16 UNK     1      22.514 -10.360  35.840  1.00  0.00     0.090 A 
HETATM   11  C17 UNK     1      22.726  -8.267  36.980  1.00  0.00     0.051 A 
HETATM   12  O2  UNK     1      23.022 -11.597  35.394  1.00  0.00    -0.275 OA
HETATM   13  C19 UNK     1      21.189 -10.073  35.505  1.00  0.00     0.041 A 
HETATM   14  C18 UNK     1      24.325 -11.986  35.667  1.00  0.00     0.288 A 
HETATM   15  C15 UNK     1      25.147 -11.045  36.446  1.00  0.00     0.092 A 
HETATM   16  O4  UNK     1      24.776 -13.059  35.284  1.00  0.00    -0.260 OA
HETATM   17  C21 UNK     1      20.632  -8.866  35.917  1.00  0.00     0.039 A 
HETATM   18  C20 UNK     1      21.400  -7.964  36.653  1.00  0.00     0.069 A 
BRANCH  18  19
HETATM   19  O3  UNK     1      20.855  -6.783  37.056  1.00  0.00    -0.351 OA
BRANCH  19  20
HETATM   20  C22 UNK     1      19.695  -6.852  37.883  1.00  0.00     0.171 C 
HETATM   21  C23 UNK     1      20.123  -6.843  39.335  1.00  0.00     0.034 C 
ENDBRANCH  19  20
ENDBRANCH  18  19
ENDBRANCH   7   8
ENDBRANCH   2   7
BRANCH   1  22
HETATM   22  C10 UNK     1      31.132  -8.341  36.926  1.00  0.00     0.374 C 
BRANCH  22  23
HETATM   23  C11 UNK     1      31.888  -7.134  37.444  1.00  0.00     0.246 C 
HETATM   24  O1  UNK     1      31.642  -6.601  38.523  1.00  0.00    -0.272 OA
HETATM   25  N3  UNK     1      32.890  -6.738  36.570  1.00  0.00    -0.355 N 
HETATM   26  H18 UNK     1      32.987  -7.221  35.681  1.00  0.00     0.162 HD
BRANCH  25  27
HETATM   27  C1  UNK     1      33.777  -5.632  36.832  1.00  0.00     0.084 C 
HETATM   28  C2  UNK     1      35.141  -5.831  36.182  1.00  0.00     0.025 C 
HETATM   29  C4  UNK     1      34.963  -5.360  34.739  1.00  0.00     0.002 C 
HETATM   30  C5  UNK     1      33.742  -4.440  34.736  1.00  0.00     0.002 C 
HETATM   31  C3  UNK     1      33.280  -4.345  36.187  1.00  0.00     0.025 C 
ENDBRANCH  25  27
ENDBRANCH  22  23
ENDBRANCH   1  22
TORSDOF 7
ENDMDL
