MODEL 1
REMARK VINA RESULT:      -6.9      0.000      0.000
REMARK  2 active torsions:
REMARK  status: ('A' for Active; 'I' for Inactive)
REMARK    1  A    between atoms: C1_4  and  C3_6 
REMARK    2  A    between atoms: C2_5  and  C4_7 
ROOT
HETATM    1  N1  UNK     1      16.101   4.598   9.544  1.00  0.00    -0.191 NA
HETATM    2  C3  UNK     1      13.929   5.813   8.793  1.00  0.00     0.055 C 
HETATM    3  C4  UNK     1      13.024   5.101   8.070  1.00  0.00     0.036 C 
HETATM    4  C15 UNK     1      15.128   5.132   9.205  1.00  0.00     0.100 C 
ENDROOT
BRANCH   2   5
HETATM    5  C1  UNK     1      13.752   7.210   9.161  1.00  0.00    -0.015 A 
HETATM    6  C5  UNK     1      13.006   7.543  10.292  1.00  0.00     0.014 A 
HETATM    7  C9  UNK     1      12.838   8.882  10.646  1.00  0.00     0.024 A 
HETATM    8  C13 UNK     1      13.415   9.887   9.870  1.00  0.00     0.034 A 
HETATM    9  C10 UNK     1      14.161   9.553   8.740  1.00  0.00     0.024 A 
HETATM   10 Cl2  UNK     1      13.207  11.539  10.308  1.00  0.00    -0.084 Cl
HETATM   11  C6  UNK     1      14.330   8.215   8.386  1.00  0.00     0.014 A 
ENDBRANCH   2   5
BRANCH   3  12
HETATM   12  C2  UNK     1      11.734   5.605   7.577  1.00  0.00    -0.013 A 
HETATM   13  C7  UNK     1      10.565   5.472   8.315  1.00  0.00     0.044 A 
HETATM   14  C11 UNK     1       9.367   5.967   7.803  1.00  0.00     0.024 A 
HETATM   15 Cl1  UNK     1      10.534   4.708   9.867  1.00  0.00    -0.083 Cl
HETATM   16  C14 UNK     1       9.347   6.592   6.556  1.00  0.00     0.002 A 
HETATM   17  C12 UNK     1      10.525   6.720   5.821  1.00  0.00     0.001 A 
HETATM   18  C8  UNK     1      11.723   6.224   6.333  1.00  0.00     0.013 A 
ENDBRANCH   3  12
TORSDOF 2
ENDMDL
MODEL 2
REMARK VINA RESULT:      -6.5     23.318     24.998
REMARK  2 active torsions:
REMARK  status: ('A' for Active; 'I' for Inactive)
REMARK    1  A    between atoms: C1_4  and  C3_6 
REMARK    2  A    between atoms: C2_5  and  C4_7 
ROOT
HETATM    1  N1  UNK     1      20.446   6.088  29.548  1.00  0.00    -0.191 NA
HETATM    2  C3  UNK     1      18.544   6.148  31.320  1.00  0.00     0.055 C 
HETATM    3  C4  UNK     1      17.709   7.222  31.314  1.00  0.00     0.036 C 
HETATM    4  C15 UNK     1      19.594   6.123  30.335  1.00  0.00     0.100 C 
ENDROOT
BRANCH   2   5
HETATM    5  C1  UNK     1      18.436   5.043  32.260  1.00  0.00    -0.015 A 
HETATM    6  C5  UNK     1      18.088   3.771  31.803  1.00  0.00     0.014 A 
HETATM    7  C9  UNK     1      17.986   2.711  32.703  1.00  0.00     0.024 A 
HETATM    8  C13 UNK     1      18.231   2.922  34.060  1.00  0.00     0.034 A 
HETATM    9  C10 UNK     1      18.578   4.194  34.517  1.00  0.00     0.024 A 
HETATM   10 Cl2  UNK     1      18.104   1.613  35.171  1.00  0.00    -0.084 Cl
HETATM   11  C6  UNK     1      18.681   5.253  33.616  1.00  0.00     0.014 A 
ENDBRANCH   2   5
BRANCH   3  12
HETATM   12  C2  UNK     1      16.568   7.424  32.219  1.00  0.00    -0.013 A 
HETATM   13  C7  UNK     1      16.699   8.105  33.422  1.00  0.00     0.044 A 
HETATM   14  C11 UNK     1      15.585   8.271  34.244  1.00  0.00     0.024 A 
HETATM   15 Cl1  UNK     1      18.206   8.768  33.950  1.00  0.00    -0.083 Cl
HETATM   16  C14 UNK     1      14.348   7.753  33.856  1.00  0.00     0.002 A 
HETATM   17  C12 UNK     1      14.227   7.069  32.646  1.00  0.00     0.001 A 
HETATM   18  C8  UNK     1      15.341   6.904  31.825  1.00  0.00     0.013 A 
ENDBRANCH   3  12
TORSDOF 2
ENDMDL
MODEL 3
REMARK VINA RESULT:      -6.5     34.340     36.326
REMARK  2 active torsions:
REMARK  status: ('A' for Active; 'I' for Inactive)
REMARK    1  A    between atoms: C1_4  and  C3_6 
REMARK    2  A    between atoms: C2_5  and  C4_7 
ROOT
HETATM    1  N1  UNK     1      29.414  -3.651  40.003  1.00  0.00    -0.191 NA
HETATM    2  C3  UNK     1      29.817  -5.406  38.128  1.00  0.00     0.055 C 
HETATM    3  C4  UNK     1      28.744  -6.109  37.679  1.00  0.00     0.036 C 
HETATM    4  C15 UNK     1      29.584  -4.436  39.166  1.00  0.00     0.100 C 
ENDROOT
BRANCH   2   5
HETATM    5  C1  UNK     1      31.170  -5.584  37.624  1.00  0.00    -0.015 A 
HETATM    6  C5  UNK     1      31.635  -4.788  36.577  1.00  0.00     0.014 A 
HETATM    7  C9  UNK     1      32.932  -4.958  36.094  1.00  0.00     0.024 A 
HETATM    8  C13 UNK     1      33.766  -5.924  36.659  1.00  0.00     0.034 A 
HETATM    9  C10 UNK     1      33.301  -6.720  37.706  1.00  0.00     0.024 A 
HETATM   10 Cl2  UNK     1      35.367  -6.133  36.063  1.00  0.00    -0.084 Cl
HETATM   11  C6  UNK     1      32.004  -6.549  38.188  1.00  0.00     0.014 A 
ENDBRANCH   2   5
BRANCH   3  12
HETATM   12  C2  UNK     1      28.767  -7.122  36.615  1.00  0.00    -0.013 A 
HETATM   13  C7  UNK     1      29.005  -8.464  36.886  1.00  0.00     0.044 A 
HETATM   14  C11 UNK     1      29.016  -9.386  35.840  1.00  0.00     0.024 A 
HETATM   15 Cl1  UNK     1      29.289  -9.047  38.489  1.00  0.00    -0.083 Cl
HETATM   16  C14 UNK     1      28.791  -8.960  34.531  1.00  0.00     0.002 A 
HETATM   17  C12 UNK     1      28.554  -7.611  34.269  1.00  0.00     0.001 A 
HETATM   18  C8  UNK     1      28.542  -6.688  35.314  1.00  0.00     0.013 A 
ENDBRANCH   3  12
TORSDOF 2
ENDMDL
MODEL 4
REMARK VINA RESULT:      -6.4     35.193     36.629
REMARK  2 active torsions:
REMARK  status: ('A' for Active; 'I' for Inactive)
REMARK    1  A    between atoms: C1_4  and  C3_6 
REMARK    2  A    between atoms: C2_5  and  C4_7 
ROOT
HETATM    1  N1  UNK     1      29.492  -3.672  39.888  1.00  0.00    -0.191 NA
HETATM    2  C3  UNK     1      30.316  -5.573  38.316  1.00  0.00     0.055 C 
HETATM    3  C4  UNK     1      29.686  -6.775  38.396  1.00  0.00     0.036 C 
HETATM    4  C15 UNK     1      29.853  -4.526  39.190  1.00  0.00     0.100 C 
ENDROOT
BRANCH   2   5
HETATM    5  C1  UNK     1      31.420  -5.295  37.411  1.00  0.00    -0.015 A 
HETATM    6  C5  UNK     1      32.730  -5.563  37.806  1.00  0.00     0.014 A 
HETATM    7  C9  UNK     1      33.789  -5.298  36.937  1.00  0.00     0.024 A 
HETATM    8  C13 UNK     1      33.537  -4.765  35.673  1.00  0.00     0.034 A 
HETATM    9  C10 UNK     1      32.226  -4.497  35.278  1.00  0.00     0.024 A 
HETATM   10 Cl2  UNK     1      34.844  -4.438  34.601  1.00  0.00    -0.084 Cl
HETATM   11  C6  UNK     1      31.168  -4.763  36.146  1.00  0.00     0.014 A 
ENDBRANCH   2   5
BRANCH   3  12
HETATM   12  C2  UNK     1      29.992  -7.958  37.578  1.00  0.00    -0.013 A 
HETATM   13  C7  UNK     1      29.362  -8.191  36.363  1.00  0.00     0.044 A 
HETATM   14  C11 UNK     1      29.689  -9.328  35.625  1.00  0.00     0.024 A 
HETATM   15 Cl1  UNK     1      28.174  -7.113  35.716  1.00  0.00    -0.083 Cl
HETATM   16  C14 UNK     1      30.643 -10.224  36.108  1.00  0.00     0.002 A 
HETATM   17  C12 UNK     1      31.270  -9.982  37.330  1.00  0.00     0.001 A 
HETATM   18  C8  UNK     1      30.943  -8.845  38.068  1.00  0.00     0.013 A 
ENDBRANCH   3  12
TORSDOF 2
ENDMDL
MODEL 5
REMARK VINA RESULT:      -6.4     31.716     33.801
REMARK  2 active torsions:
REMARK  status: ('A' for Active; 'I' for Inactive)
REMARK    1  A    between atoms: C1_4  and  C3_6 
REMARK    2  A    between atoms: C2_5  and  C4_7 
ROOT
HETATM    1  N1  UNK     1      20.964  -7.192  32.806  1.00  0.00    -0.191 NA
HETATM    2  C3  UNK     1      20.938  -8.311  35.153  1.00  0.00     0.055 C 
HETATM    3  C4  UNK     1      20.013  -7.877  36.050  1.00  0.00     0.036 C 
HETATM    4  C15 UNK     1      20.944  -7.686  33.856  1.00  0.00     0.100 C 
ENDROOT
BRANCH   2   5
HETATM    5  C1  UNK     1      21.910  -9.357  35.434  1.00  0.00    -0.015 A 
HETATM    6  C5  UNK     1      23.000  -9.090  36.263  1.00  0.00     0.014 A 
HETATM    7  C9  UNK     1      23.931 -10.092  36.534  1.00  0.00     0.024 A 
HETATM    8  C13 UNK     1      23.773 -11.361  35.977  1.00  0.00     0.034 A 
HETATM    9  C10 UNK     1      22.683 -11.628  35.148  1.00  0.00     0.024 A 
HETATM   10 Cl2  UNK     1      24.922 -12.598  36.311  1.00  0.00    -0.084 Cl
HETATM   11  C6  UNK     1      21.751 -10.626  34.878  1.00  0.00     0.014 A 
ENDBRANCH   2   5
BRANCH   3  12
HETATM   12  C2  UNK     1      19.829  -8.399  37.412  1.00  0.00    -0.013 A 
HETATM   13  C7  UNK     1      20.148  -7.646  38.534  1.00  0.00     0.044 A 
HETATM   14  C11 UNK     1      19.954  -8.187  39.804  1.00  0.00     0.024 A 
HETATM   15 Cl1  UNK     1      20.783  -6.041  38.422  1.00  0.00    -0.083 Cl
HETATM   16  C14 UNK     1      19.442  -9.478  39.942  1.00  0.00     0.002 A 
HETATM   17  C12 UNK     1      19.125 -10.227  38.809  1.00  0.00     0.001 A 
HETATM   18  C8  UNK     1      19.319  -9.685  37.539  1.00  0.00     0.013 A 
ENDBRANCH   3  12
TORSDOF 2
ENDMDL
MODEL 6
REMARK VINA RESULT:      -6.3     34.865     36.817
REMARK  2 active torsions:
REMARK  status: ('A' for Active; 'I' for Inactive)
REMARK    1  A    between atoms: C1_4  and  C3_6 
REMARK    2  A    between atoms: C2_5  and  C4_7 
ROOT
HETATM    1  N1  UNK     1      29.311  -3.623  39.946  1.00  0.00    -0.191 NA
HETATM    2  C3  UNK     1      30.597  -5.171  38.300  1.00  0.00     0.055 C 
HETATM    3  C4  UNK     1      31.907  -4.895  38.065  1.00  0.00     0.036 C 
HETATM    4  C15 UNK     1      29.893  -4.309  39.213  1.00  0.00     0.100 C 
ENDROOT
BRANCH   2   5
HETATM    5  C1  UNK     1      29.879  -6.275  37.681  1.00  0.00    -0.015 A 
HETATM    6  C5  UNK     1      29.724  -7.479  38.368  1.00  0.00     0.014 A 
HETATM    7  C9  UNK     1      29.035  -8.537  37.776  1.00  0.00     0.024 A 
HETATM    8  C13 UNK     1      28.499  -8.390  36.496  1.00  0.00     0.034 A 
HETATM    9  C10 UNK     1      28.653  -7.186  35.809  1.00  0.00     0.024 A 
HETATM   10 Cl2  UNK     1      27.648  -9.696  35.765  1.00  0.00    -0.084 Cl
HETATM   11  C6  UNK     1      29.342  -6.129  36.402  1.00  0.00     0.014 A 
ENDBRANCH   2   5
BRANCH   3  12
HETATM   12  C2  UNK     1      32.802  -5.665  37.189  1.00  0.00    -0.013 A 
HETATM   13  C7  UNK     1      33.017  -5.305  35.864  1.00  0.00     0.044 A 
HETATM   14  C11 UNK     1      33.875  -6.069  35.075  1.00  0.00     0.024 A 
HETATM   15 Cl1  UNK     1      32.255  -3.930  35.144  1.00  0.00    -0.083 Cl
HETATM   16  C14 UNK     1      34.512  -7.186  35.616  1.00  0.00     0.002 A 
HETATM   17  C12 UNK     1      34.289  -7.540  36.946  1.00  0.00     0.001 A 
HETATM   18  C8  UNK     1      33.431  -6.776  37.736  1.00  0.00     0.013 A 
ENDBRANCH   3  12
TORSDOF 2
ENDMDL
MODEL 7
REMARK VINA RESULT:      -6.2     30.013     31.832
REMARK  2 active torsions:
REMARK  status: ('A' for Active; 'I' for Inactive)
REMARK    1  A    between atoms: C1_4  and  C3_6 
REMARK    2  A    between atoms: C2_5  and  C4_7 
ROOT
HETATM    1  N1  UNK     1      30.206  -2.303  31.180  1.00  0.00    -0.191 NA
HETATM    2  C3  UNK     1      29.758  -4.862  31.285  1.00  0.00     0.055 C 
HETATM    3  C4  UNK     1      29.552  -5.516  30.111  1.00  0.00     0.036 C 
HETATM    4  C15 UNK     1      30.006  -3.445  31.217  1.00  0.00     0.100 C 
ENDROOT
BRANCH   2   5
HETATM    5  C1  UNK     1      29.736  -5.510  32.587  1.00  0.00    -0.015 A 
HETATM    6  C5  UNK     1      30.920  -5.666  33.309  1.00  0.00     0.014 A 
HETATM    7  C9  UNK     1      30.899  -6.285  34.558  1.00  0.00     0.024 A 
HETATM    8  C13 UNK     1      29.694  -6.749  35.086  1.00  0.00     0.034 A 
HETATM    9  C10 UNK     1      28.510  -6.594  34.365  1.00  0.00     0.024 A 
HETATM   10 Cl2  UNK     1      29.668  -7.515  36.628  1.00  0.00    -0.084 Cl
HETATM   11  C6  UNK     1      28.532  -5.973  33.116  1.00  0.00     0.014 A 
ENDBRANCH   2   5
BRANCH   3  12
HETATM   12  C2  UNK     1      29.307  -6.958  29.965  1.00  0.00    -0.013 A 
HETATM   13  C7  UNK     1      28.022  -7.485  29.954  1.00  0.00     0.044 A 
HETATM   14  C11 UNK     1      27.843  -8.860  29.812  1.00  0.00     0.024 A 
HETATM   15 Cl1  UNK     1      26.614  -6.492  30.110  1.00  0.00    -0.083 Cl
HETATM   16  C14 UNK     1      28.951  -9.698  29.682  1.00  0.00     0.002 A 
HETATM   17  C12 UNK     1      30.238  -9.160  29.695  1.00  0.00     0.001 A 
HETATM   18  C8  UNK     1      30.416  -7.785  29.837  1.00  0.00     0.013 A 
ENDBRANCH   3  12
TORSDOF 2
ENDMDL
MODEL 8
REMARK VINA RESULT:      -6.2      1.770      5.043
REMARK  2 active torsions:
REMARK  status: ('A' for Active; 'I' for Inactive)
REMARK    1  A    between atoms: C1_4  and  C3_6 
REMARK    2  A    between atoms: C2_5  and  C4_7 
ROOT
HETATM    1  N1  UNK     1      15.862   3.955   9.822  1.00  0.00    -0.191 NA
HETATM    2  C3  UNK     1      14.454   6.133   9.640  1.00  0.00     0.055 C 
HETATM    3  C4  UNK     1      14.857   7.208  10.369  1.00  0.00     0.036 C 
HETATM    4  C15 UNK     1      15.240   4.932   9.747  1.00  0.00     0.100 C 
ENDROOT
BRANCH   2   5
HETATM    5  C1  UNK     1      13.283   6.133   8.776  1.00  0.00    -0.015 A 
HETATM    6  C5  UNK     1      13.373   6.644   7.481  1.00  0.00     0.014 A 
HETATM    7  C9  UNK     1      12.252   6.643   6.652  1.00  0.00     0.024 A 
HETATM    8  C13 UNK     1      11.040   6.130   7.117  1.00  0.00     0.034 A 
HETATM    9  C10 UNK     1      10.951   5.619   8.412  1.00  0.00     0.024 A 
HETATM   10 Cl2  UNK     1       9.657   6.129   6.093  1.00  0.00    -0.084 Cl
HETATM   11  C6  UNK     1      12.073   5.620   9.241  1.00  0.00     0.014 A 
ENDBRANCH   2   5
BRANCH   3  12
HETATM   12  C2  UNK     1      14.207   8.527  10.381  1.00  0.00    -0.013 A 
HETATM   13  C7  UNK     1      14.817   9.649   9.836  1.00  0.00     0.044 A 
HETATM   14  C11 UNK     1      14.158  10.877   9.872  1.00  0.00     0.024 A 
HETATM   15 Cl1  UNK     1      16.382   9.586   9.101  1.00  0.00    -0.083 Cl
HETATM   16  C14 UNK     1      12.894  10.974  10.454  1.00  0.00     0.002 A 
HETATM   17  C12 UNK     1      12.289   9.842  10.999  1.00  0.00     0.001 A 
HETATM   18  C8  UNK     1      12.948   8.614  10.963  1.00  0.00     0.013 A 
ENDBRANCH   3  12
TORSDOF 2
ENDMDL
MODEL 9
REMARK VINA RESULT:      -6.2     35.788     36.971
REMARK  2 active torsions:
REMARK  status: ('A' for Active; 'I' for Inactive)
REMARK    1  A    between atoms: C1_4  and  C3_6 
REMARK    2  A    between atoms: C2_5  and  C4_7 
ROOT
HETATM    1  N1  UNK     1      29.600  -3.511  39.808  1.00  0.00    -0.191 NA
HETATM    2  C3  UNK     1      29.248  -5.924  38.906  1.00  0.00     0.055 C 
HETATM    3  C4  UNK     1      28.087  -6.555  39.226  1.00  0.00     0.036 C 
HETATM    4  C15 UNK     1      29.434  -4.588  39.409  1.00  0.00     0.100 C 
ENDROOT
BRANCH   2   5
HETATM    5  C1  UNK     1      30.299  -6.523  38.097  1.00  0.00    -0.015 A 
HETATM    6  C5  UNK     1      30.990  -7.639  38.567  1.00  0.00     0.014 A 
HETATM    7  C9  UNK     1      31.996  -8.214  37.792  1.00  0.00     0.024 A 
HETATM    8  C13 UNK     1      32.311  -7.674  36.545  1.00  0.00     0.034 A 
HETATM    9  C10 UNK     1      31.619  -6.557  36.074  1.00  0.00     0.024 A 
HETATM   10 Cl2  UNK     1      33.553  -8.384  35.588  1.00  0.00    -0.084 Cl
HETATM   11  C6  UNK     1      30.613  -5.983  36.850  1.00  0.00     0.014 A 
ENDBRANCH   2   5
BRANCH   3  12
HETATM   12  C2  UNK     1      27.698  -7.905  38.793  1.00  0.00    -0.013 A 
HETATM   13  C7  UNK     1      27.394  -8.191  37.469  1.00  0.00     0.044 A 
HETATM   14  C11 UNK     1      27.031  -9.488  37.110  1.00  0.00     0.024 A 
HETATM   15 Cl1  UNK     1      27.449  -6.988  36.227  1.00  0.00    -0.083 Cl
HETATM   16  C14 UNK     1      26.975 -10.491  38.079  1.00  0.00     0.002 A 
HETATM   17  C12 UNK     1      27.281 -10.194  39.407  1.00  0.00     0.001 A 
HETATM   18  C8  UNK     1      27.644  -8.896  39.766  1.00  0.00     0.013 A 
ENDBRANCH   3  12
TORSDOF 2
ENDMDL
MODEL 10
REMARK VINA RESULT:      -6.2     34.966     36.491
REMARK  2 active torsions:
REMARK  status: ('A' for Active; 'I' for Inactive)
REMARK    1  A    between atoms: C1_4  and  C3_6 
REMARK    2  A    between atoms: C2_5  and  C4_7 
ROOT
HETATM    1  N1  UNK     1      29.420  -3.708  39.923  1.00  0.00    -0.191 NA
HETATM    2  C3  UNK     1      30.213  -5.315  38.039  1.00  0.00     0.055 C 
HETATM    3  C4  UNK     1      31.410  -5.056  37.450  1.00  0.00     0.036 C 
HETATM    4  C15 UNK     1      29.782  -4.420  39.082  1.00  0.00     0.100 C 
ENDROOT
BRANCH   2   5
HETATM    5  C1  UNK     1      29.354  -6.432  37.673  1.00  0.00    -0.015 A 
HETATM    6  C5  UNK     1      28.722  -6.446  36.429  1.00  0.00     0.014 A 
HETATM    7  C9  UNK     1      27.901  -7.517  36.077  1.00  0.00     0.024 A 
HETATM    8  C13 UNK     1      27.711  -8.573  36.968  1.00  0.00     0.034 A 
HETATM    9  C10 UNK     1      28.343  -8.559  38.211  1.00  0.00     0.024 A 
HETATM   10 Cl2  UNK     1      26.697  -9.894  36.533  1.00  0.00    -0.084 Cl
HETATM   11  C6  UNK     1      29.166  -7.489  38.563  1.00  0.00     0.014 A 
ENDBRANCH   2   5
BRANCH   3  12
HETATM   12  C2  UNK     1      32.034  -5.859  36.388  1.00  0.00    -0.013 A 
HETATM   13  C7  UNK     1      32.655  -7.072  36.656  1.00  0.00     0.044 A 
HETATM   14  C11 UNK     1      33.231  -7.796  35.613  1.00  0.00     0.024 A 
HETATM   15 Cl1  UNK     1      32.741  -7.733  38.252  1.00  0.00    -0.083 Cl
HETATM   16  C14 UNK     1      33.183  -7.300  34.310  1.00  0.00     0.002 A 
HETATM   17  C12 UNK     1      32.559  -6.080  34.050  1.00  0.00     0.001 A 
HETATM   18  C8  UNK     1      31.982  -5.357  35.093  1.00  0.00     0.013 A 
ENDBRANCH   3  12
TORSDOF 2
ENDMDL
