MODEL 1
REMARK VINA RESULT:      -9.0      0.000      0.000
REMARK  5 active torsions:
REMARK  status: ('A' for Active; 'I' for Inactive)
REMARK    1  A    between atoms: C12_19  and  O3_4 
REMARK    2  A    between atoms: C24_31  and  O3_4 
REMARK    3  A    between atoms: C1_8  and  C9_16 
REMARK    4  A    between atoms: C11_18  and  C4_11 
REMARK    5  A    between atoms: C12_19  and  C8_15 
ROOT
HETATM    1  O1  UNK     1      27.736 -10.015  38.710  1.00  0.00    -0.293 OA
HETATM    2  N1  UNK     1      28.049  -5.317  38.188  1.00  0.00    -0.362 N 
HETATM    3  C1  UNK     1      25.067  -7.587  38.480  1.00  0.00     0.031 C 
HETATM    4  C2  UNK     1      25.870  -6.305  38.742  1.00  0.00     0.067 C 
HETATM    5  C3  UNK     1      27.944  -7.678  38.355  1.00  0.00     0.024 C 
HETATM    6  C4  UNK     1      29.416  -7.796  37.973  1.00  0.00     0.104 C 
HETATM    7  C5  UNK     1      27.333  -6.476  38.421  1.00  0.00     0.021 C 
HETATM    8  C6  UNK     1      25.744  -8.778  39.163  1.00  0.00     0.093 C 
HETATM    9  C7  UNK     1      27.184  -8.915  38.715  1.00  0.00     0.159 C 
HETATM   10  C8  UNK     1      30.113  -6.437  37.885  1.00  0.00     0.052 C 
HETATM   11  C10 UNK     1      29.417  -5.279  37.967  1.00  0.00     0.018 C 
HETATM   12  C13 UNK     1      30.004  -3.900  37.843  1.00  0.00     0.069 C 
HETATM   13  H7  UNK     1      27.556  -4.434  38.249  1.00  0.00     0.165 HD
ENDROOT
BRANCH   6  14
HETATM   14  C11 UNK     1      29.561  -8.539  36.673  1.00  0.00     0.029 A 
HETATM   15  C14 UNK     1      30.519  -9.670  36.605  1.00  0.00     0.194 A 
HETATM   16  O5  UNK     1      31.190 -10.014  37.570  1.00  0.00    -0.287 OA
HETATM   17  C18 UNK     1      30.624 -10.363  35.307  1.00  0.00     0.049 A 
HETATM   18  C19 UNK     1      29.836  -9.928  34.241  1.00  0.00     0.089 A 
HETATM   19  C23 UNK     1      31.498 -11.441  35.142  1.00  0.00     0.025 A 
HETATM   20  O2  UNK     1      28.961  -8.875  34.348  1.00  0.00    -0.321 OA
HETATM   21  C25 UNK     1      29.917 -10.567  33.004  1.00  0.00     0.039 A 
HETATM   22  C17 UNK     1      28.875  -8.240  35.562  1.00  0.00     0.154 A 
HETATM   23  C27 UNK     1      30.789 -11.644  32.837  1.00  0.00     0.009 A 
HETATM   24  C26 UNK     1      31.577 -12.079  33.903  1.00  0.00    -0.061 A 
HETATM   25  C30 UNK     1      32.507 -13.231  33.719  1.00  0.00     0.048 C 
ENDBRANCH   6  14
BRANCH  10  26
HETATM   26  C12 UNK     1      31.580  -6.455  37.762  1.00  0.00     0.292 C 
HETATM   27  O4  UNK     1      32.320  -6.850  38.644  1.00  0.00    -0.259 OA
BRANCH  26  28
HETATM   28  O3  UNK     1      31.913  -5.972  36.541  1.00  0.00    -0.313 OA
BRANCH  28  29
HETATM   29  C24 UNK     1      32.842  -6.773  35.804  1.00  0.00     0.124 C 
HETATM   30  C28 UNK     1      34.174  -6.042  35.716  1.00  0.00     0.040 C 
HETATM   31  C29 UNK     1      32.266  -7.071  34.429  1.00  0.00     0.040 C 
ENDBRANCH  28  29
ENDBRANCH  26  28
ENDBRANCH  10  26
BRANCH   3  32
HETATM   32  C9  UNK     1      23.614  -7.441  38.891  1.00  0.00    -0.053 A 
HETATM   33  C15 UNK     1      22.979  -8.472  39.578  1.00  0.00     0.010 A 
HETATM   34  C20 UNK     1      21.643  -8.336  39.956  1.00  0.00     0.043 A 
HETATM   35  C22 UNK     1      20.944  -7.169  39.642  1.00  0.00     0.116 A 
HETATM   36  C21 UNK     1      21.583  -6.138  38.952  1.00  0.00     0.043 A 
HETATM   37  F1  UNK     1      19.661  -7.039  40.002  1.00  0.00    -0.206 F 
HETATM   38  C16 UNK     1      22.919  -6.274  38.576  1.00  0.00     0.010 A 
ENDBRANCH   3  32
TORSDOF 5
ENDMDL
MODEL 2
REMARK VINA RESULT:      -8.7      1.105      2.201
REMARK  5 active torsions:
REMARK  status: ('A' for Active; 'I' for Inactive)
REMARK    1  A    between atoms: C12_19  and  O3_4 
REMARK    2  A    between atoms: C24_31  and  O3_4 
REMARK    3  A    between atoms: C1_8  and  C9_16 
REMARK    4  A    between atoms: C11_18  and  C4_11 
REMARK    5  A    between atoms: C12_19  and  C8_15 
ROOT
HETATM    1  O1  UNK     1      27.704  -9.962  38.678  1.00  0.00    -0.293 OA
HETATM    2  N1  UNK     1      28.011  -5.251  38.283  1.00  0.00    -0.362 N 
HETATM    3  C1  UNK     1      25.032  -7.537  38.470  1.00  0.00     0.031 C 
HETATM    4  C2  UNK     1      25.826  -6.259  38.777  1.00  0.00     0.067 C 
HETATM    5  C3  UNK     1      27.910  -7.616  38.387  1.00  0.00     0.024 C 
HETATM    6  C4  UNK     1      29.388  -7.720  38.025  1.00  0.00     0.104 C 
HETATM    7  C5  UNK     1      27.295  -6.418  38.474  1.00  0.00     0.021 C 
HETATM    8  C6  UNK     1      25.702  -8.743  39.131  1.00  0.00     0.093 C 
HETATM    9  C7  UNK     1      27.149  -8.864  38.703  1.00  0.00     0.159 C 
HETATM   10  C8  UNK     1      30.082  -6.357  37.983  1.00  0.00     0.052 C 
HETATM   11  C10 UNK     1      29.382  -5.204  38.084  1.00  0.00     0.018 C 
HETATM   12  C13 UNK     1      29.966  -3.820  38.005  1.00  0.00     0.069 C 
HETATM   13  H7  UNK     1      27.514  -4.372  38.359  1.00  0.00     0.165 HD
ENDROOT
BRANCH   6  14
HETATM   14  C11 UNK     1      29.556  -8.428  36.708  1.00  0.00     0.029 A 
HETATM   15  C14 UNK     1      28.853  -7.890  35.517  1.00  0.00     0.194 A 
HETATM   16  O5  UNK     1      28.145  -6.893  35.574  1.00  0.00    -0.287 OA
HETATM   17  C18 UNK     1      29.051  -8.624  34.253  1.00  0.00     0.049 A 
HETATM   18  C19 UNK     1      29.869  -9.754  34.246  1.00  0.00     0.089 A 
HETATM   19  C23 UNK     1      28.432  -8.197  33.075  1.00  0.00     0.025 A 
HETATM   20  O2  UNK     1      30.501 -10.218  35.373  1.00  0.00    -0.321 OA
HETATM   21  C25 UNK     1      30.072 -10.464  33.063  1.00  0.00     0.039 A 
HETATM   22  C17 UNK     1      30.307  -9.525  36.542  1.00  0.00     0.154 A 
HETATM   23  C27 UNK     1      29.454 -10.040  31.885  1.00  0.00     0.009 A 
HETATM   24  C26 UNK     1      28.637  -8.908  31.892  1.00  0.00    -0.061 A 
HETATM   25  C30 UNK     1      27.980  -8.458  30.630  1.00  0.00     0.048 C 
ENDBRANCH   6  14
BRANCH  10  26
HETATM   26  C12 UNK     1      31.552  -6.368  37.882  1.00  0.00     0.292 C 
HETATM   27  O4  UNK     1      32.266  -7.029  38.612  1.00  0.00    -0.259 OA
BRANCH  26  28
HETATM   28  O3  UNK     1      31.917  -5.543  36.872  1.00  0.00    -0.313 OA
BRANCH  28  29
HETATM   29  C24 UNK     1      32.281  -6.200  35.654  1.00  0.00     0.124 C 
HETATM   30  C28 UNK     1      33.777  -6.044  35.427  1.00  0.00     0.040 C 
HETATM   31  C29 UNK     1      31.469  -5.616  34.507  1.00  0.00     0.040 C 
ENDBRANCH  28  29
ENDBRANCH  26  28
ENDBRANCH  10  26
BRANCH   3  32
HETATM   32  C9  UNK     1      23.572  -7.405  38.861  1.00  0.00    -0.053 A 
HETATM   33  C15 UNK     1      22.871  -6.243  38.548  1.00  0.00     0.010 A 
HETATM   34  C20 UNK     1      21.528  -6.123  38.908  1.00  0.00     0.043 A 
HETATM   35  C22 UNK     1      20.891  -7.165  39.582  1.00  0.00     0.116 A 
HETATM   36  C21 UNK     1      21.596  -8.328  39.895  1.00  0.00     0.043 A 
HETATM   37  F1  UNK     1      19.603  -7.049  39.929  1.00  0.00    -0.206 F 
HETATM   38  C16 UNK     1      22.938  -8.448  39.535  1.00  0.00     0.010 A 
ENDBRANCH   3  32
TORSDOF 5
ENDMDL
MODEL 3
REMARK VINA RESULT:      -8.6      2.112      2.605
REMARK  5 active torsions:
REMARK  status: ('A' for Active; 'I' for Inactive)
REMARK    1  A    between atoms: C12_19  and  O3_4 
REMARK    2  A    between atoms: C24_31  and  O3_4 
REMARK    3  A    between atoms: C1_8  and  C9_16 
REMARK    4  A    between atoms: C11_18  and  C4_11 
REMARK    5  A    between atoms: C12_19  and  C8_15 
ROOT
HETATM    1  O1  UNK     1      27.672  -9.985  35.921  1.00  0.00    -0.293 OA
HETATM    2  N1  UNK     1      28.008  -6.077  38.578  1.00  0.00    -0.362 N 
HETATM    3  C1  UNK     1      25.035  -8.151  37.580  1.00  0.00     0.031 C 
HETATM    4  C2  UNK     1      25.882  -7.307  38.544  1.00  0.00     0.067 C 
HETATM    5  C3  UNK     1      27.880  -7.976  37.167  1.00  0.00     0.024 C 
HETATM    6  C4  UNK     1      29.302  -7.733  36.670  1.00  0.00     0.104 C 
HETATM    7  C5  UNK     1      27.301  -7.145  38.058  1.00  0.00     0.021 C 
HETATM    8  C6  UNK     1      25.760  -9.457  37.251  1.00  0.00     0.093 C 
HETATM    9  C7  UNK     1      27.142  -9.189  36.695  1.00  0.00     0.159 C 
HETATM   10  C8  UNK     1      30.009  -6.610  37.430  1.00  0.00     0.052 C 
HETATM   11  C10 UNK     1      29.346  -5.828  38.313  1.00  0.00     0.018 C 
HETATM   12  C13 UNK     1      29.940  -4.672  39.070  1.00  0.00     0.069 C 
HETATM   13  H7  UNK     1      27.539  -5.478  39.246  1.00  0.00     0.165 HD
ENDROOT
BRANCH   6  14
HETATM   14  C11 UNK     1      29.298  -7.438  35.194  1.00  0.00     0.029 A 
HETATM   15  C14 UNK     1      30.203  -8.215  34.312  1.00  0.00     0.194 A 
HETATM   16  O5  UNK     1      30.949  -9.082  34.746  1.00  0.00    -0.287 OA
HETATM   17  C18 UNK     1      30.160  -7.884  32.875  1.00  0.00     0.049 A 
HETATM   18  C19 UNK     1      29.291  -6.885  32.436  1.00  0.00     0.089 A 
HETATM   19  C23 UNK     1      30.975  -8.559  31.963  1.00  0.00     0.025 A 
HETATM   20  O2  UNK     1      28.469  -6.189  33.288  1.00  0.00    -0.321 OA
HETATM   21  C25 UNK     1      29.233  -6.554  31.082  1.00  0.00     0.039 A 
HETATM   22  C17 UNK     1      28.521  -6.508  34.622  1.00  0.00     0.154 A 
HETATM   23  C27 UNK     1      30.046  -7.227  30.168  1.00  0.00     0.009 A 
HETATM   24  C26 UNK     1      30.914  -8.227  30.608  1.00  0.00    -0.061 A 
HETATM   25  C30 UNK     1      31.781  -8.944  29.627  1.00  0.00     0.048 C 
ENDBRANCH   6  14
BRANCH  10  26
HETATM   26  C12 UNK     1      31.455  -6.461  37.193  1.00  0.00     0.292 C 
HETATM   27  O4  UNK     1      32.283  -7.258  37.594  1.00  0.00    -0.259 OA
BRANCH  26  28
HETATM   28  O3  UNK     1      31.657  -5.327  36.482  1.00  0.00    -0.313 OA
BRANCH  28  29
HETATM   29  C24 UNK     1      32.589  -5.446  35.402  1.00  0.00     0.124 C 
HETATM   30  C28 UNK     1      33.855  -4.674  35.746  1.00  0.00     0.040 C 
HETATM   31  C29 UNK     1      31.943  -4.935  34.124  1.00  0.00     0.040 C 
ENDBRANCH  28  29
ENDBRANCH  26  28
ENDBRANCH  10  26
BRANCH   3  32
HETATM   32  C9  UNK     1      23.636  -8.389  38.115  1.00  0.00    -0.053 A 
HETATM   33  C15 UNK     1      22.668  -8.964  37.297  1.00  0.00     0.010 A 
HETATM   34  C20 UNK     1      21.381  -9.183  37.790  1.00  0.00     0.043 A 
HETATM   35  C22 UNK     1      21.066  -8.825  39.101  1.00  0.00     0.116 A 
HETATM   36  C21 UNK     1      22.038  -8.248  39.919  1.00  0.00     0.043 A 
HETATM   37  F1  UNK     1      19.831  -9.034  39.574  1.00  0.00    -0.206 F 
HETATM   38  C16 UNK     1      23.324  -8.030  39.426  1.00  0.00     0.010 A 
ENDBRANCH   3  32
TORSDOF 5
ENDMDL
MODEL 4
REMARK VINA RESULT:      -8.6      5.882     10.960
REMARK  5 active torsions:
REMARK  status: ('A' for Active; 'I' for Inactive)
REMARK    1  A    between atoms: C12_19  and  O3_4 
REMARK    2  A    between atoms: C24_31  and  O3_4 
REMARK    3  A    between atoms: C1_8  and  C9_16 
REMARK    4  A    between atoms: C11_18  and  C4_11 
REMARK    5  A    between atoms: C12_19  and  C8_15 
ROOT
HETATM    1  O1  UNK     1      33.003  -9.588  34.391  1.00  0.00    -0.293 OA
HETATM    2  N1  UNK     1      33.048  -7.599  30.092  1.00  0.00    -0.362 N 
HETATM    3  C1  UNK     1      35.777  -9.227  32.101  1.00  0.00     0.031 C 
HETATM    4  C2  UNK     1      35.003  -8.898  30.817  1.00  0.00     0.067 C 
HETATM    5  C3  UNK     1      32.996  -8.499  32.282  1.00  0.00     0.024 C 
HETATM    6  C4  UNK     1      31.638  -7.854  32.541  1.00  0.00     0.104 C 
HETATM    7  C5  UNK     1      33.638  -8.328  31.107  1.00  0.00     0.021 C 
HETATM    8  C6  UNK     1      34.909 -10.072  33.035  1.00  0.00     0.093 C 
HETATM    9  C7  UNK     1      33.596  -9.380  33.333  1.00  0.00     0.159 C 
HETATM   10  C8  UNK     1      31.047  -7.202  31.291  1.00  0.00     0.052 C 
HETATM   11  C10 UNK     1      31.765  -7.079  30.151  1.00  0.00     0.018 C 
HETATM   12  C13 UNK     1      31.290  -6.412  28.889  1.00  0.00     0.069 C 
HETATM   13  H7  UNK     1      33.561  -7.495  29.224  1.00  0.00     0.165 HD
ENDROOT
BRANCH   6  14
HETATM   14  C11 UNK     1      31.741  -6.845  33.653  1.00  0.00     0.029 A 
HETATM   15  C14 UNK     1      30.697  -6.842  34.708  1.00  0.00     0.194 A 
HETATM   16  O5  UNK     1      29.760  -7.630  34.699  1.00  0.00    -0.287 OA
HETATM   17  C18 UNK     1      30.845  -5.831  35.772  1.00  0.00     0.049 A 
HETATM   18  C19 UNK     1      31.932  -4.958  35.731  1.00  0.00     0.089 A 
HETATM   19  C23 UNK     1      29.914  -5.747  36.810  1.00  0.00     0.025 A 
HETATM   20  O2  UNK     1      32.876  -4.996  34.735  1.00  0.00    -0.321 OA
HETATM   21  C25 UNK     1      32.093  -3.994  36.726  1.00  0.00     0.039 A 
HETATM   22  C17 UNK     1      32.725  -5.941  33.751  1.00  0.00     0.154 A 
HETATM   23  C27 UNK     1      31.165  -3.907  37.764  1.00  0.00     0.009 A 
HETATM   24  C26 UNK     1      30.078  -4.782  37.805  1.00  0.00    -0.061 A 
HETATM   25  C30 UNK     1      29.088  -4.686  38.918  1.00  0.00     0.048 C 
ENDBRANCH   6  14
BRANCH  10  26
HETATM   26  C12 UNK     1      29.642  -6.768  31.375  1.00  0.00     0.292 C 
HETATM   27  O4  UNK     1      29.311  -5.617  31.594  1.00  0.00    -0.259 OA
BRANCH  26  28
HETATM   28  O3  UNK     1      28.847  -7.845  31.170  1.00  0.00    -0.313 OA
BRANCH  28  29
HETATM   29  C24 UNK     1      28.038  -7.787  29.992  1.00  0.00     0.124 C 
HETATM   30  C28 UNK     1      26.660  -7.254  30.356  1.00  0.00     0.040 C 
HETATM   31  C29 UNK     1      27.963  -9.171  29.366  1.00  0.00     0.040 C 
ENDBRANCH  28  29
ENDBRANCH  26  28
ENDBRANCH  10  26
BRANCH   3  32
HETATM   32  C9  UNK     1      37.112  -9.885  31.806  1.00  0.00    -0.053 A 
HETATM   33  C15 UNK     1      38.054 -10.030  32.821  1.00  0.00     0.010 A 
HETATM   34  C20 UNK     1      39.281 -10.635  32.549  1.00  0.00     0.043 A 
HETATM   35  C22 UNK     1      39.563 -11.093  31.262  1.00  0.00     0.116 A 
HETATM   36  C21 UNK     1      38.617 -10.946  30.246  1.00  0.00     0.043 A 
HETATM   37  F1  UNK     1      40.742 -11.673  31.000  1.00  0.00    -0.206 F 
HETATM   38  C16 UNK     1      37.391 -10.341  30.519  1.00  0.00     0.010 A 
ENDBRANCH   3  32
TORSDOF 5
ENDMDL
MODEL 5
REMARK VINA RESULT:      -8.4      6.827     10.583
REMARK  5 active torsions:
REMARK  status: ('A' for Active; 'I' for Inactive)
REMARK    1  A    between atoms: C12_19  and  O3_4 
REMARK    2  A    between atoms: C24_31  and  O3_4 
REMARK    3  A    between atoms: C1_8  and  C9_16 
REMARK    4  A    between atoms: C11_18  and  C4_11 
REMARK    5  A    between atoms: C12_19  and  C8_15 
ROOT
HETATM    1  O1  UNK     1      33.903  -6.811  30.653  1.00  0.00    -0.293 OA
HETATM    2  N1  UNK     1      34.517  -8.303  35.107  1.00  0.00    -0.362 N 
HETATM    3  C1  UNK     1      36.120  -9.388  31.884  1.00  0.00     0.031 C 
HETATM    4  C2  UNK     1      36.099  -9.045  33.381  1.00  0.00     0.067 C 
HETATM    5  C3  UNK     1      34.107  -7.587  32.887  1.00  0.00     0.024 C 
HETATM    6  C4  UNK     1      32.835  -6.871  33.326  1.00  0.00     0.104 C 
HETATM    7  C5  UNK     1      34.862  -8.276  33.769  1.00  0.00     0.021 C 
HETATM    8  C6  UNK     1      35.852  -8.131  31.054  1.00  0.00     0.093 C 
HETATM    9  C7  UNK     1      34.550  -7.476  31.462  1.00  0.00     0.159 C 
HETATM   10  C8  UNK     1      32.656  -6.865  34.845  1.00  0.00     0.052 C 
HETATM   11  C10 UNK     1      33.467  -7.584  35.655  1.00  0.00     0.018 C 
HETATM   12  C13 UNK     1      33.341  -7.681  37.151  1.00  0.00     0.069 C 
HETATM   13  H7  UNK     1      35.110  -8.829  35.739  1.00  0.00     0.165 HD
ENDROOT
BRANCH   6  14
HETATM   14  C11 UNK     1      31.631  -7.487  32.665  1.00  0.00     0.029 A 
HETATM   15  C14 UNK     1      30.575  -6.589  32.135  1.00  0.00     0.194 A 
HETATM   16  O5  UNK     1      30.653  -5.370  32.221  1.00  0.00    -0.287 OA
HETATM   17  C18 UNK     1      29.418  -7.244  31.499  1.00  0.00     0.049 A 
HETATM   18  C19 UNK     1      29.381  -8.637  31.429  1.00  0.00     0.089 A 
HETATM   19  C23 UNK     1      28.370  -6.486  30.969  1.00  0.00     0.025 A 
HETATM   20  O2  UNK     1      30.382  -9.431  31.933  1.00  0.00    -0.321 OA
HETATM   21  C25 UNK     1      28.297  -9.280  30.831  1.00  0.00     0.039 A 
HETATM   22  C17 UNK     1      31.452  -8.807  32.523  1.00  0.00     0.154 A 
HETATM   23  C27 UNK     1      27.249  -8.525  30.302  1.00  0.00     0.009 A 
HETATM   24  C26 UNK     1      27.286  -7.132  30.371  1.00  0.00    -0.061 A 
HETATM   25  C30 UNK     1      26.164  -6.329  29.803  1.00  0.00     0.048 C 
ENDBRANCH   6  14
BRANCH  10  26
HETATM   26  C12 UNK     1      31.594  -5.996  35.381  1.00  0.00     0.292 C 
HETATM   27  O4  UNK     1      30.633  -6.419  35.997  1.00  0.00    -0.259 OA
BRANCH  26  28
HETATM   28  O3  UNK     1      31.892  -4.713  35.067  1.00  0.00    -0.313 OA
BRANCH  28  29
HETATM   29  C24 UNK     1      32.762  -4.049  35.988  1.00  0.00     0.124 C 
HETATM   30  C28 UNK     1      32.042  -2.845  36.578  1.00  0.00     0.040 C 
HETATM   31  C29 UNK     1      34.041  -3.648  35.270  1.00  0.00     0.040 C 
ENDBRANCH  28  29
ENDBRANCH  26  28
ENDBRANCH  10  26
BRANCH   3  32
HETATM   32  C9  UNK     1      37.407 -10.080  31.479  1.00  0.00    -0.053 A 
HETATM   33  C15 UNK     1      38.395 -10.323  32.430  1.00  0.00     0.010 A 
HETATM   34  C20 UNK     1      39.578 -10.960  32.056  1.00  0.00     0.043 A 
HETATM   35  C22 UNK     1      39.771 -11.353  30.731  1.00  0.00     0.116 A 
HETATM   36  C21 UNK     1      38.780 -11.108  29.780  1.00  0.00     0.043 A 
HETATM   37  F1  UNK     1      40.908 -11.963  30.372  1.00  0.00    -0.206 F 
HETATM   38  C16 UNK     1      37.597 -10.471  30.154  1.00  0.00     0.010 A 
ENDBRANCH   3  32
TORSDOF 5
ENDMDL
MODEL 6
REMARK VINA RESULT:      -8.3      6.590     10.024
REMARK  5 active torsions:
REMARK  status: ('A' for Active; 'I' for Inactive)
REMARK    1  A    between atoms: C12_19  and  O3_4 
REMARK    2  A    between atoms: C24_31  and  O3_4 
REMARK    3  A    between atoms: C1_8  and  C9_16 
REMARK    4  A    between atoms: C11_18  and  C4_11 
REMARK    5  A    between atoms: C12_19  and  C8_15 
ROOT
HETATM    1  O1  UNK     1      31.065 -11.197  33.947  1.00  0.00    -0.293 OA
HETATM    2  N1  UNK     1      29.826 -11.730  29.406  1.00  0.00    -0.362 N 
HETATM    3  C1  UNK     1      31.479 -14.090  31.820  1.00  0.00     0.031 C 
HETATM    4  C2  UNK     1      30.517 -13.709  30.685  1.00  0.00     0.067 C 
HETATM    5  C3  UNK     1      30.511 -11.383  31.647  1.00  0.00     0.024 C 
HETATM    6  C4  UNK     1      30.313  -9.878  31.501  1.00  0.00     0.104 C 
HETATM    7  C5  UNK     1      30.288 -12.221  30.612  1.00  0.00     0.021 C 
HETATM    8  C6  UNK     1      31.029 -13.440  33.129  1.00  0.00     0.093 C 
HETATM    9  C7  UNK     1      30.906 -11.939  32.978  1.00  0.00     0.159 C 
HETATM   10  C8  UNK     1      29.667  -9.495  30.168  1.00  0.00     0.052 C 
HETATM   11  C10 UNK     1      29.477 -10.407  29.187  1.00  0.00     0.018 C 
HETATM   12  C13 UNK     1      28.898 -10.117  27.829  1.00  0.00     0.069 C 
HETATM   13  H7  UNK     1      29.668 -12.391  28.654  1.00  0.00     0.165 HD
ENDROOT
BRANCH   6  14
HETATM   14  C11 UNK     1      31.624  -9.158  31.668  1.00  0.00     0.029 A 
HETATM   15  C14 UNK     1      31.739  -8.131  32.733  1.00  0.00     0.194 A 
HETATM   16  O5  UNK     1      30.806  -7.854  33.474  1.00  0.00    -0.287 OA
HETATM   17  C18 UNK     1      33.045  -7.456  32.851  1.00  0.00     0.049 A 
HETATM   18  C19 UNK     1      34.074  -7.811  31.979  1.00  0.00     0.089 A 
HETATM   19  C23 UNK     1      33.255  -6.474  33.823  1.00  0.00     0.025 A 
HETATM   20  O2  UNK     1      33.924  -8.768  31.006  1.00  0.00    -0.321 OA
HETATM   21  C25 UNK     1      35.318  -7.187  32.072  1.00  0.00     0.039 A 
HETATM   22  C17 UNK     1      32.703  -9.388  30.907  1.00  0.00     0.154 A 
HETATM   23  C27 UNK     1      35.529  -6.206  33.042  1.00  0.00     0.009 A 
HETATM   24  C26 UNK     1      34.500  -5.851  33.915  1.00  0.00    -0.061 A 
HETATM   25  C30 UNK     1      34.732  -4.801  34.951  1.00  0.00     0.048 C 
ENDBRANCH   6  14
BRANCH  10  26
HETATM   26  C12 UNK     1      29.214  -8.099  30.031  1.00  0.00     0.292 C 
HETATM   27  O4  UNK     1      29.871  -7.236  29.480  1.00  0.00    -0.259 OA
BRANCH  26  28
HETATM   28  O3  UNK     1      27.995  -7.987  30.609  1.00  0.00    -0.313 OA
BRANCH  28  29
HETATM   29  C24 UNK     1      27.525  -6.645  30.776  1.00  0.00     0.124 C 
HETATM   30  C28 UNK     1      27.767  -6.206  32.213  1.00  0.00     0.040 C 
HETATM   31  C29 UNK     1      26.051  -6.580  30.404  1.00  0.00     0.040 C 
ENDBRANCH  28  29
ENDBRANCH  26  28
ENDBRANCH  10  26
BRANCH   3  32
HETATM   32  C9  UNK     1      31.636 -15.594  31.949  1.00  0.00    -0.053 A 
HETATM   33  C15 UNK     1      31.107 -16.255  33.054  1.00  0.00     0.010 A 
HETATM   34  C20 UNK     1      31.252 -17.637  33.172  1.00  0.00     0.043 A 
HETATM   35  C22 UNK     1      31.927 -18.355  32.184  1.00  0.00     0.116 A 
HETATM   36  C21 UNK     1      32.456 -17.690  31.078  1.00  0.00     0.043 A 
HETATM   37  F1  UNK     1      32.067 -19.682  32.298  1.00  0.00    -0.206 F 
HETATM   38  C16 UNK     1      32.311 -16.308  30.960  1.00  0.00     0.010 A 
ENDBRANCH   3  32
TORSDOF 5
ENDMDL
MODEL 7
REMARK VINA RESULT:      -8.2      3.986      8.154
REMARK  5 active torsions:
REMARK  status: ('A' for Active; 'I' for Inactive)
REMARK    1  A    between atoms: C12_19  and  O3_4 
REMARK    2  A    between atoms: C24_31  and  O3_4 
REMARK    3  A    between atoms: C1_8  and  C9_16 
REMARK    4  A    between atoms: C11_18  and  C4_11 
REMARK    5  A    between atoms: C12_19  and  C8_15 
ROOT
HETATM    1  O1  UNK     1      28.623  -9.212  32.541  1.00  0.00    -0.293 OA
HETATM    2  N1  UNK     1      33.043  -9.298  34.243  1.00  0.00    -0.362 N 
HETATM    3  C1  UNK     1      30.828 -12.047  32.953  1.00  0.00     0.031 C 
HETATM    4  C2  UNK     1      32.159 -11.306  33.140  1.00  0.00     0.067 C 
HETATM    5  C3  UNK     1      30.800  -9.217  33.487  1.00  0.00     0.024 C 
HETATM    6  C4  UNK     1      30.636  -7.808  34.046  1.00  0.00     0.104 C 
HETATM    7  C5  UNK     1      31.959  -9.894  33.626  1.00  0.00     0.021 C 
HETATM    8  C6  UNK     1      29.871 -11.202  32.110  1.00  0.00     0.093 C 
HETATM    9  C7  UNK     1      29.670  -9.833  32.723  1.00  0.00     0.159 C 
HETATM   10  C8  UNK     1      31.949  -7.225  34.570  1.00  0.00     0.052 C 
HETATM   11  C10 UNK     1      33.067  -7.980  34.671  1.00  0.00     0.018 C 
HETATM   12  C13 UNK     1      34.389  -7.512  35.218  1.00  0.00     0.069 C 
HETATM   13  H7  UNK     1      33.897  -9.838  34.327  1.00  0.00     0.165 HD
ENDROOT
BRANCH   6  14
HETATM   14  C11 UNK     1      29.592  -7.793  35.131  1.00  0.00     0.029 A 
HETATM   15  C14 UNK     1      29.782  -8.672  36.311  1.00  0.00     0.194 A 
HETATM   16  O5  UNK     1      30.756  -9.405  36.427  1.00  0.00    -0.287 OA
HETATM   17  C18 UNK     1      28.730  -8.620  37.342  1.00  0.00     0.049 A 
HETATM   18  C19 UNK     1      27.641  -7.766  37.158  1.00  0.00     0.089 A 
HETATM   19  C23 UNK     1      28.816  -9.410  38.491  1.00  0.00     0.025 A 
HETATM   20  O2  UNK     1      27.505  -6.968  36.049  1.00  0.00    -0.321 OA
HETATM   21  C25 UNK     1      26.634  -7.699  38.120  1.00  0.00     0.039 A 
HETATM   22  C17 UNK     1      28.493  -7.029  35.097  1.00  0.00     0.154 A 
HETATM   23  C27 UNK     1      26.718  -8.488  39.268  1.00  0.00     0.009 A 
HETATM   24  C26 UNK     1      27.807  -9.341  39.453  1.00  0.00    -0.061 A 
HETATM   25  C30 UNK     1      27.892 -10.181  40.683  1.00  0.00     0.048 C 
ENDBRANCH   6  14
BRANCH  10  26
HETATM   26  C12 UNK     1      31.947  -5.790  34.906  1.00  0.00     0.292 C 
HETATM   27  O4  UNK     1      31.881  -4.909  34.070  1.00  0.00    -0.259 OA
BRANCH  26  28
HETATM   28  O3  UNK     1      32.028  -5.666  36.252  1.00  0.00    -0.313 OA
BRANCH  28  29
HETATM   29  C24 UNK     1      30.963  -4.926  36.858  1.00  0.00     0.124 C 
HETATM   30  C28 UNK     1      31.394  -3.477  37.027  1.00  0.00     0.040 C 
HETATM   31  C29 UNK     1      30.599  -5.569  38.188  1.00  0.00     0.040 C 
ENDBRANCH  28  29
ENDBRANCH  26  28
ENDBRANCH  10  26
BRANCH   3  32
HETATM   32  C9  UNK     1      31.027 -13.436  32.376  1.00  0.00    -0.053 A 
HETATM   33  C15 UNK     1      31.282 -14.510  33.224  1.00  0.00     0.010 A 
HETATM   34  C20 UNK     1      31.465 -15.788  32.693  1.00  0.00     0.043 A 
HETATM   35  C22 UNK     1      31.394 -15.986  31.314  1.00  0.00     0.116 A 
HETATM   36  C21 UNK     1      31.138 -14.907  30.466  1.00  0.00     0.043 A 
HETATM   37  F1  UNK     1      31.571 -17.211  30.804  1.00  0.00    -0.206 F 
HETATM   38  C16 UNK     1      30.955 -13.632  30.998  1.00  0.00     0.010 A 
ENDBRANCH   3  32
TORSDOF 5
ENDMDL
MODEL 8
REMARK VINA RESULT:      -8.1      5.855     10.948
REMARK  5 active torsions:
REMARK  status: ('A' for Active; 'I' for Inactive)
REMARK    1  A    between atoms: C12_19  and  O3_4 
REMARK    2  A    between atoms: C24_31  and  O3_4 
REMARK    3  A    between atoms: C1_8  and  C9_16 
REMARK    4  A    between atoms: C11_18  and  C4_11 
REMARK    5  A    between atoms: C12_19  and  C8_15 
ROOT
HETATM    1  O1  UNK     1      33.375  -9.989  34.496  1.00  0.00    -0.293 OA
HETATM    2  N1  UNK     1      32.884  -8.659  29.976  1.00  0.00    -0.362 N 
HETATM    3  C1  UNK     1      35.930  -9.605  31.967  1.00  0.00     0.031 C 
HETATM    4  C2  UNK     1      35.042  -9.571  30.715  1.00  0.00     0.067 C 
HETATM    5  C3  UNK     1      33.089  -9.229  32.266  1.00  0.00     0.024 C 
HETATM    6  C4  UNK     1      31.672  -8.737  32.541  1.00  0.00     0.104 C 
HETATM    7  C5  UNK     1      33.630  -9.149  31.032  1.00  0.00     0.021 C 
HETATM    8  C6  UNK     1      35.246 -10.411  33.073  1.00  0.00     0.093 C 
HETATM    9  C7  UNK     1      33.869  -9.861  33.376  1.00  0.00     0.159 C 
HETATM   10  C8  UNK     1      30.922  -8.357  31.264  1.00  0.00     0.052 C 
HETATM   11  C10 UNK     1      31.546  -8.309  30.065  1.00  0.00     0.018 C 
HETATM   12  C13 UNK     1      30.907  -7.900  28.766  1.00  0.00     0.069 C 
HETATM   13  H7  UNK     1      33.324  -8.616  29.065  1.00  0.00     0.165 HD
ENDROOT
BRANCH   6  14
HETATM   14  C11 UNK     1      31.698  -7.572  33.494  1.00  0.00     0.029 A 
HETATM   15  C14 UNK     1      30.811  -7.608  34.683  1.00  0.00     0.194 A 
HETATM   16  O5  UNK     1      30.064  -8.550  34.911  1.00  0.00    -0.287 OA
HETATM   17  C18 UNK     1      30.875  -6.440  35.582  1.00  0.00     0.049 A 
HETATM   18  C19 UNK     1      31.745  -5.393  35.274  1.00  0.00     0.089 A 
HETATM   19  C23 UNK     1      30.079  -6.378  36.729  1.00  0.00     0.025 A 
HETATM   20  O2  UNK     1      32.549  -5.401  34.161  1.00  0.00    -0.321 OA
HETATM   21  C25 UNK     1      31.823  -4.279  36.109  1.00  0.00     0.039 A 
HETATM   22  C17 UNK     1      32.478  -6.494  33.333  1.00  0.00     0.154 A 
HETATM   23  C27 UNK     1      31.029  -4.215  37.255  1.00  0.00     0.009 A 
HETATM   24  C26 UNK     1      30.160  -5.262  37.564  1.00  0.00    -0.061 A 
HETATM   25  C30 UNK     1      29.313  -5.189  38.791  1.00  0.00     0.048 C 
ENDBRANCH   6  14
BRANCH  10  26
HETATM   26  C12 UNK     1      29.477  -8.103  31.399  1.00  0.00     0.292 C 
HETATM   27  O4  UNK     1      28.680  -8.950  31.757  1.00  0.00    -0.259 OA
BRANCH  26  28
HETATM   28  O3  UNK     1      29.237  -6.813  31.063  1.00  0.00    -0.313 OA
BRANCH  28  29
HETATM   29  C24 UNK     1      29.179  -5.900  32.165  1.00  0.00     0.124 C 
HETATM   30  C28 UNK     1      27.756  -5.850  32.699  1.00  0.00     0.040 C 
HETATM   31  C29 UNK     1      29.663  -4.532  31.708  1.00  0.00     0.040 C 
ENDBRANCH  28  29
ENDBRANCH  26  28
ENDBRANCH  10  26
BRANCH   3  32
HETATM   32  C9  UNK     1      37.324 -10.118  31.660  1.00  0.00    -0.053 A 
HETATM   33  C15 UNK     1      37.650 -10.512  30.365  1.00  0.00     0.010 A 
HETATM   34  C20 UNK     1      38.933 -10.983  30.084  1.00  0.00     0.043 A 
HETATM   35  C22 UNK     1      39.886 -11.061  31.100  1.00  0.00     0.116 A 
HETATM   36  C21 UNK     1      39.556 -10.667  32.398  1.00  0.00     0.043 A 
HETATM   37  F1  UNK     1      41.116 -11.516  30.831  1.00  0.00    -0.206 F 
HETATM   38  C16 UNK     1      38.274 -10.195  32.678  1.00  0.00     0.010 A 
ENDBRANCH   3  32
TORSDOF 5
ENDMDL
MODEL 9
REMARK VINA RESULT:      -8.0     34.501     36.011
REMARK  5 active torsions:
REMARK  status: ('A' for Active; 'I' for Inactive)
REMARK    1  A    between atoms: C12_19  and  O3_4 
REMARK    2  A    between atoms: C24_31  and  O3_4 
REMARK    3  A    between atoms: C1_8  and  C9_16 
REMARK    4  A    between atoms: C11_18  and  C4_11 
REMARK    5  A    between atoms: C12_19  and  C8_15 
ROOT
HETATM    1  O1  UNK     1      18.359  12.545  11.583  1.00  0.00    -0.293 OA
HETATM    2  N1  UNK     1      17.780  12.784   6.888  1.00  0.00    -0.362 N 
HETATM    3  C1  UNK     1      16.770  10.158   9.381  1.00  0.00     0.031 C 
HETATM    4  C2  UNK     1      16.582  11.044   8.142  1.00  0.00     0.067 C 
HETATM    5  C3  UNK     1      18.176  12.667   9.220  1.00  0.00     0.024 C 
HETATM    6  C4  UNK     1      19.187  13.805   9.131  1.00  0.00     0.104 C 
HETATM    7  C5  UNK     1      17.550  12.200   8.119  1.00  0.00     0.021 C 
HETATM    8  C6  UNK     1      16.779  11.019  10.646  1.00  0.00     0.093 C 
HETATM    9  C7  UNK     1      17.836  12.099  10.562  1.00  0.00     0.159 C 
HETATM   10  C8  UNK     1      19.234  14.444   7.742  1.00  0.00     0.052 C 
HETATM   11  C10 UNK     1      18.567  13.908   6.694  1.00  0.00     0.018 C 
HETATM   12  C13 UNK     1      18.592  14.433   5.285  1.00  0.00     0.069 C 
HETATM   13  H7  UNK     1      17.290  12.406   6.085  1.00  0.00     0.165 HD
ENDROOT
BRANCH   6  14
HETATM   14  C11 UNK     1      20.556  13.323   9.527  1.00  0.00     0.029 A 
HETATM   15  C14 UNK     1      21.224  13.958  10.690  1.00  0.00     0.194 A 
HETATM   16  O5  UNK     1      20.698  14.858  11.331  1.00  0.00    -0.287 OA
HETATM   17  C18 UNK     1      22.565  13.449  11.033  1.00  0.00     0.049 A 
HETATM   18  C19 UNK     1      23.116  12.422  10.267  1.00  0.00     0.089 A 
HETATM   19  C23 UNK     1      23.276  13.982  12.111  1.00  0.00     0.025 A 
HETATM   20  O2  UNK     1      22.463  11.862   9.197  1.00  0.00    -0.321 OA
HETATM   21  C25 UNK     1      24.383  11.923  10.573  1.00  0.00     0.039 A 
HETATM   22  C17 UNK     1      21.216  12.347   8.890  1.00  0.00     0.154 A 
HETATM   23  C27 UNK     1      25.095  12.454  11.649  1.00  0.00     0.009 A 
HETATM   24  C26 UNK     1      24.543  13.480  12.416  1.00  0.00    -0.061 A 
HETATM   25  C30 UNK     1      25.309  14.044  13.566  1.00  0.00     0.048 C 
ENDBRANCH   6  14
BRANCH  10  26
HETATM   26  C12 UNK     1      19.996  15.699   7.619  1.00  0.00     0.292 C 
HETATM   27  O4  UNK     1      19.603  16.764   8.058  1.00  0.00    -0.259 OA
BRANCH  26  28
HETATM   28  O3  UNK     1      21.148  15.437   6.957  1.00  0.00    -0.313 OA
BRANCH  28  29
HETATM   29  C24 UNK     1      22.293  16.157   7.425  1.00  0.00     0.124 C 
HETATM   30  C28 UNK     1      22.741  17.137   6.351  1.00  0.00     0.040 C 
HETATM   31  C29 UNK     1      23.392  15.170   7.787  1.00  0.00     0.040 C 
ENDBRANCH  28  29
ENDBRANCH  26  28
ENDBRANCH  10  26
BRANCH   3  32
HETATM   32  C9  UNK     1      15.736   9.050   9.448  1.00  0.00    -0.053 A 
HETATM   33  C15 UNK     1      14.543   9.170   8.741  1.00  0.00     0.010 A 
HETATM   34  C20 UNK     1      13.592   8.150   8.803  1.00  0.00     0.043 A 
HETATM   35  C22 UNK     1      13.838   7.013   9.574  1.00  0.00     0.116 A 
HETATM   36  C21 UNK     1      15.036   6.895  10.281  1.00  0.00     0.043 A 
HETATM   37  F1  UNK     1      12.926   6.035   9.634  1.00  0.00    -0.206 F 
HETATM   38  C16 UNK     1      15.985   7.915  10.219  1.00  0.00     0.010 A 
ENDBRANCH   3  32
TORSDOF 5
ENDMDL
MODEL 10
REMARK VINA RESULT:      -7.9     34.650     36.651
REMARK  5 active torsions:
REMARK  status: ('A' for Active; 'I' for Inactive)
REMARK    1  A    between atoms: C12_19  and  O3_4 
REMARK    2  A    between atoms: C24_31  and  O3_4 
REMARK    3  A    between atoms: C1_8  and  C9_16 
REMARK    4  A    between atoms: C11_18  and  C4_11 
REMARK    5  A    between atoms: C12_19  and  C8_15 
ROOT
HETATM    1  O1  UNK     1      20.365  11.257   8.051  1.00  0.00    -0.293 OA
HETATM    2  N1  UNK     1      20.056  15.592   9.939  1.00  0.00    -0.362 N 
HETATM    3  C1  UNK     1      22.542  12.823  10.476  1.00  0.00     0.031 C 
HETATM    4  C2  UNK     1      22.104  14.284  10.302  1.00  0.00     0.067 C 
HETATM    5  C3  UNK     1      20.114  13.402   9.037  1.00  0.00     0.024 C 
HETATM    6  C4  UNK     1      18.686  13.549   8.523  1.00  0.00     0.104 C 
HETATM    7  C5  UNK     1      20.715  14.395   9.727  1.00  0.00     0.021 C 
HETATM    8  C6  UNK     1      22.317  12.050   9.175  1.00  0.00     0.093 C 
HETATM    9  C7  UNK     1      20.877  12.153   8.721  1.00  0.00     0.159 C 
HETATM   10  C8  UNK     1      18.137  14.965   8.703  1.00  0.00     0.052 C 
HETATM   11  C10 UNK     1      18.814  15.900   9.408  1.00  0.00     0.018 C 
HETATM   12  C13 UNK     1      18.335  17.301   9.681  1.00  0.00     0.069 C 
HETATM   13  H7  UNK     1      20.541  16.314  10.459  1.00  0.00     0.165 HD
ENDROOT
BRANCH   6  14
HETATM   14  C11 UNK     1      17.782  12.552   9.197  1.00  0.00     0.029 A 
HETATM   15  C14 UNK     1      16.885  11.724   8.354  1.00  0.00     0.194 A 
HETATM   16  O5  UNK     1      16.859  11.827   7.134  1.00  0.00    -0.287 OA
HETATM   17  C18 UNK     1      16.019  10.765   9.065  1.00  0.00     0.049 A 
HETATM   18  C19 UNK     1      16.089  10.691  10.457  1.00  0.00     0.089 A 
HETATM   19  C23 UNK     1      15.138   9.939   8.361  1.00  0.00     0.025 A 
HETATM   20  O2  UNK     1      16.935  11.477  11.199  1.00  0.00    -0.321 OA
HETATM   21  C25 UNK     1      15.280   9.791  11.151  1.00  0.00     0.039 A 
HETATM   22  C17 UNK     1      17.734  12.365  10.523  1.00  0.00     0.154 A 
HETATM   23  C27 UNK     1      14.401   8.966  10.450  1.00  0.00     0.009 A 
HETATM   24  C26 UNK     1      14.330   9.040   9.058  1.00  0.00    -0.061 A 
HETATM   25  C30 UNK     1      13.388   8.155   8.313  1.00  0.00     0.048 C 
ENDBRANCH   6  14
BRANCH  10  26
HETATM   26  C12 UNK     1      16.866  15.271   8.025  1.00  0.00     0.292 C 
HETATM   27  O4  UNK     1      16.774  15.441   6.823  1.00  0.00    -0.259 OA
BRANCH  26  28
HETATM   28  O3  UNK     1      15.885  15.320   8.958  1.00  0.00    -0.313 OA
BRANCH  28  29
HETATM   29  C24 UNK     1      14.647  14.717   8.568  1.00  0.00     0.124 C 
HETATM   30  C28 UNK     1      13.646  15.808   8.218  1.00  0.00     0.040 C 
HETATM   31  C29 UNK     1      14.146  13.828   9.695  1.00  0.00     0.040 C 
ENDBRANCH  28  29
ENDBRANCH  26  28
ENDBRANCH  10  26
BRANCH   3  32
HETATM   32  C9  UNK     1      23.973  12.714  10.968  1.00  0.00    -0.053 A 
HETATM   33  C15 UNK     1      24.437  13.585  11.950  1.00  0.00     0.010 A 
HETATM   34  C20 UNK     1      25.753  13.484  12.403  1.00  0.00     0.043 A 
HETATM   35  C22 UNK     1      26.602  12.513  11.870  1.00  0.00     0.116 A 
HETATM   36  C21 UNK     1      26.134  11.642  10.885  1.00  0.00     0.043 A 
HETATM   37  F1  UNK     1      27.865  12.418  12.303  1.00  0.00    -0.206 F 
HETATM   38  C16 UNK     1      24.819  11.743  10.434  1.00  0.00     0.010 A 
ENDBRANCH   3  32
TORSDOF 5
ENDMDL
