MODEL 1
REMARK VINA RESULT:      -9.3      0.000      0.000
REMARK  7 active torsions:
REMARK  status: ('A' for Active; 'I' for Inactive)
REMARK    1  A    between atoms: C15_23  and  O3_4 
REMARK    2  A    between atoms: C20_28  and  O3_4 
REMARK    3  A    between atoms: C5_13  and  N1_6 
REMARK    4  A    between atoms: C6_14  and  N2_7 
REMARK    5  A    between atoms: C17_25  and  N3_8 
REMARK       I    between atoms: C9_17  and  N3_8 
REMARK    6  A    between atoms: C5_13  and  C7_15 
REMARK    7  A    between atoms: C6_14  and  C9_17 
ROOT
HETATM    1  N1  UNK     1      19.260  -3.194  36.417  1.00  0.00     0.096 N 
HETATM    2  N2  UNK     1      18.404  -0.471  35.953  1.00  0.00     0.100 N 
HETATM    3  C1  UNK     1      18.748  -2.358  37.511  1.00  0.00     0.303 C 
HETATM    4  C2  UNK     1      19.894  -2.360  35.389  1.00  0.00     0.303 C 
HETATM    5  C3  UNK     1      17.769  -1.305  36.982  1.00  0.00     0.303 C 
HETATM    6  C4  UNK     1      18.914  -1.307  34.860  1.00  0.00     0.303 C 
ENDROOT
BRANCH   1   7
HETATM    7  C5  UNK     1      20.196  -4.195  36.923  1.00  0.00     0.312 C 
BRANCH   7   8
HETATM    8  C7  UNK     1      19.645  -5.577  36.829  1.00  0.00    -0.011 A 
HETATM    9  C10 UNK     1      18.559  -5.840  36.091  1.00  0.00     0.092 A 
HETATM   10  C13 UNK     1      17.979  -7.187  35.968  1.00  0.00     0.288 A 
HETATM   11  O1  UNK     1      18.614  -8.206  36.662  1.00  0.00    -0.275 OA
HETATM   12  O4  UNK     1      16.983  -7.391  35.282  1.00  0.00    -0.260 OA
HETATM   13  C11 UNK     1      19.757  -7.959  37.447  1.00  0.00     0.090 A 
HETATM   14  C8  UNK     1      20.296  -6.676  37.556  1.00  0.00     0.009 A 
HETATM   15  C14 UNK     1      20.313  -9.058  38.104  1.00  0.00     0.041 A 
HETATM   16  C12 UNK     1      21.434  -6.514  38.357  1.00  0.00     0.051 A 
HETATM   17  C15 UNK     1      22.003  -7.606  39.021  1.00  0.00     0.069 A 
HETATM   18  C16 UNK     1      21.443  -8.877  38.895  1.00  0.00     0.039 A 
BRANCH  17  19
HETATM   19  O3  UNK     1      23.108  -7.428  39.796  1.00  0.00    -0.351 OA
BRANCH  19  20
HETATM   20  C20 UNK     1      24.293  -6.981  39.140  1.00  0.00     0.171 C 
HETATM   21  C24 UNK     1      25.129  -8.183  38.759  1.00  0.00     0.034 C 
ENDBRANCH  19  20
ENDBRANCH  17  19
ENDBRANCH   7   8
ENDBRANCH   1   7
BRANCH   2  22
HETATM   22  C6  UNK     1      17.469   0.532  35.448  1.00  0.00     0.375 C 
BRANCH  22  23
HETATM   23  C9  UNK     1      18.245   1.660  34.790  1.00  0.00     0.250 C 
HETATM   24  O2  UNK     1      19.226   2.180  35.312  1.00  0.00    -0.271 OA
HETATM   25  N3  UNK     1      17.682   1.976  33.555  1.00  0.00    -0.326 N 
HETATM   26  H15 UNK     1      16.861   1.451  33.261  1.00  0.00     0.169 HD
BRANCH  25  27
HETATM   27  C17 UNK     1      18.110   2.966  32.639  1.00  0.00     0.034 A 
HETATM   28  C18 UNK     1      18.420   2.614  31.326  1.00  0.00     0.031 A 
HETATM   29  C21 UNK     1      18.842   3.589  30.422  1.00  0.00     0.026 A 
HETATM   30  C23 UNK     1      18.953   4.918  30.833  1.00  0.00     0.034 A 
HETATM   31  C22 UNK     1      18.643   5.271  32.146  1.00  0.00     0.026 A 
HETATM   32 Cl1  UNK     1      19.472   6.121  29.717  1.00  0.00    -0.084 Cl
HETATM   33  C19 UNK     1      18.221   4.295  33.049  1.00  0.00     0.031 A 
ENDBRANCH  25  27
ENDBRANCH  22  23
ENDBRANCH   2  22
TORSDOF 7
ENDMDL
MODEL 2
REMARK VINA RESULT:      -9.0      6.160      8.877
REMARK  7 active torsions:
REMARK  status: ('A' for Active; 'I' for Inactive)
REMARK    1  A    between atoms: C15_23  and  O3_4 
REMARK    2  A    between atoms: C20_28  and  O3_4 
REMARK    3  A    between atoms: C5_13  and  N1_6 
REMARK    4  A    between atoms: C6_14  and  N2_7 
REMARK    5  A    between atoms: C17_25  and  N3_8 
REMARK       I    between atoms: C9_17  and  N3_8 
REMARK    6  A    between atoms: C5_13  and  C7_15 
REMARK    7  A    between atoms: C6_14  and  C9_17 
ROOT
HETATM    1  N1  UNK     1      18.852   3.635  31.322  1.00  0.00     0.096 N 
HETATM    2  N2  UNK     1      19.200   6.315  32.350  1.00  0.00     0.100 N 
HETATM    3  C1  UNK     1      19.330   4.725  30.463  1.00  0.00     0.303 C 
HETATM    4  C2  UNK     1      17.989   4.161  32.385  1.00  0.00     0.303 C 
HETATM    5  C3  UNK     1      20.065   5.788  31.286  1.00  0.00     0.303 C 
HETATM    6  C4  UNK     1      18.724   5.224  33.209  1.00  0.00     0.303 C 
ENDROOT
BRANCH   1   7
HETATM    7  C5  UNK     1      18.150   2.623  30.535  1.00  0.00     0.312 C 
BRANCH   7   8
HETATM    8  C7  UNK     1      18.882   1.326  30.504  1.00  0.00    -0.011 A 
HETATM    9  C10 UNK     1      19.525   0.921  29.400  1.00  0.00     0.092 A 
HETATM   10  C13 UNK     1      20.261  -0.351  29.322  1.00  0.00     0.288 A 
HETATM   11  O1  UNK     1      20.268  -1.139  30.463  1.00  0.00    -0.275 OA
HETATM   12  O4  UNK     1      20.839  -0.690  28.294  1.00  0.00    -0.260 OA
HETATM   13  C11 UNK     1      19.601  -0.740  31.637  1.00  0.00     0.090 A 
HETATM   14  C8  UNK     1      18.906   0.469  31.697  1.00  0.00     0.009 A 
HETATM   15  C14 UNK     1      19.673  -1.612  32.725  1.00  0.00     0.041 A 
HETATM   16  C12 UNK     1      18.268   0.793  32.902  1.00  0.00     0.051 A 
HETATM   17  C15 UNK     1      18.331  -0.071  34.001  1.00  0.00     0.069 A 
HETATM   18  C16 UNK     1      19.033  -1.273  33.912  1.00  0.00     0.039 A 
BRANCH  17  19
HETATM   19  O3  UNK     1      17.704   0.262  35.162  1.00  0.00    -0.351 OA
BRANCH  19  20
HETATM   20  C20 UNK     1      18.350   1.223  35.995  1.00  0.00     0.171 C 
HETATM   21  C24 UNK     1      17.679   1.230  37.351  1.00  0.00     0.034 C 
ENDBRANCH  19  20
ENDBRANCH  17  19
ENDBRANCH   7   8
ENDBRANCH   1   7
BRANCH   2  22
HETATM   22  C6  UNK     1      19.902   7.327  33.136  1.00  0.00     0.375 C 
BRANCH  22  23
HETATM   23  C9  UNK     1      18.924   7.993  34.089  1.00  0.00     0.250 C 
HETATM   24  O2  UNK     1      19.031   7.913  35.309  1.00  0.00    -0.271 OA
HETATM   25  N3  UNK     1      17.944   8.678  33.373  1.00  0.00    -0.326 N 
HETATM   26  H15 UNK     1      17.992   8.647  32.358  1.00  0.00     0.169 HD
BRANCH  25  27
HETATM   27  C17 UNK     1      16.858   9.422  33.892  1.00  0.00     0.034 A 
HETATM   28  C18 UNK     1      17.020  10.773  34.196  1.00  0.00     0.031 A 
HETATM   29  C21 UNK     1      15.950  11.508  34.707  1.00  0.00     0.026 A 
HETATM   30  C23 UNK     1      14.716  10.890  34.913  1.00  0.00     0.034 A 
HETATM   31  C22 UNK     1      14.553   9.539  34.609  1.00  0.00     0.026 A 
HETATM   32 Cl1  UNK     1      13.396  11.796  35.541  1.00  0.00    -0.084 Cl
HETATM   33  C19 UNK     1      15.624   8.805  34.099  1.00  0.00     0.031 A 
ENDBRANCH  25  27
ENDBRANCH  22  23
ENDBRANCH   2  22
TORSDOF 7
ENDMDL
MODEL 3
REMARK VINA RESULT:      -8.6      3.932     11.677
REMARK  7 active torsions:
REMARK  status: ('A' for Active; 'I' for Inactive)
REMARK    1  A    between atoms: C15_23  and  O3_4 
REMARK    2  A    between atoms: C20_28  and  O3_4 
REMARK    3  A    between atoms: C5_13  and  N1_6 
REMARK    4  A    between atoms: C6_14  and  N2_7 
REMARK    5  A    between atoms: C17_25  and  N3_8 
REMARK       I    between atoms: C9_17  and  N3_8 
REMARK    6  A    between atoms: C5_13  and  C7_15 
REMARK    7  A    between atoms: C6_14  and  C9_17 
ROOT
HETATM    1  N1  UNK     1      17.915   1.468  35.144  1.00  0.00     0.096 N 
HETATM    2  N2  UNK     1      18.121  -1.048  36.553  1.00  0.00     0.100 N 
HETATM    3  C1  UNK     1      19.079   0.589  34.969  1.00  0.00     0.303 C 
HETATM    4  C2  UNK     1      17.338   1.294  36.481  1.00  0.00     0.303 C 
HETATM    5  C3  UNK     1      18.699  -0.875  35.214  1.00  0.00     0.303 C 
HETATM    6  C4  UNK     1      16.957  -0.171  36.726  1.00  0.00     0.303 C 
ENDROOT
BRANCH   1   7
HETATM    7  C5  UNK     1      18.280   2.864  34.913  1.00  0.00     0.312 C 
BRANCH   7   8
HETATM    8  C7  UNK     1      18.279   3.213  33.464  1.00  0.00    -0.011 A 
HETATM    9  C10 UNK     1      18.295   2.259  32.523  1.00  0.00     0.092 A 
HETATM   10  C13 UNK     1      18.294   2.555  31.080  1.00  0.00     0.288 A 
HETATM   11  O1  UNK     1      18.277   3.893  30.718  1.00  0.00    -0.275 OA
HETATM   12  O4  UNK     1      18.308   1.655  30.247  1.00  0.00    -0.260 OA
HETATM   13  C11 UNK     1      18.262   4.917  31.685  1.00  0.00     0.090 A 
HETATM   14  C8  UNK     1      18.263   4.622  33.049  1.00  0.00     0.009 A 
HETATM   15  C14 UNK     1      18.246   6.228  31.206  1.00  0.00     0.041 A 
HETATM   16  C12 UNK     1      18.248   5.698  33.947  1.00  0.00     0.051 A 
HETATM   17  C15 UNK     1      18.233   7.018  33.482  1.00  0.00     0.069 A 
HETATM   18  C16 UNK     1      18.232   7.283  32.114  1.00  0.00     0.039 A 
BRANCH  17  19
HETATM   19  O3  UNK     1      18.219   8.049  34.371  1.00  0.00    -0.351 OA
BRANCH  19  20
HETATM   20  C20 UNK     1      18.857   9.260  33.969  1.00  0.00     0.171 C 
HETATM   21  C24 UNK     1      20.267   9.279  34.519  1.00  0.00     0.034 C 
ENDBRANCH  19  20
ENDBRANCH  17  19
ENDBRANCH   7   8
ENDBRANCH   1   7
BRANCH   2  22
HETATM   22  C6  UNK     1      17.757  -2.445  36.785  1.00  0.00     0.375 C 
BRANCH  22  23
HETATM   23  C9  UNK     1      19.018  -3.288  36.864  1.00  0.00     0.250 C 
HETATM   24  O2  UNK     1      20.113  -2.816  37.155  1.00  0.00    -0.271 OA
HETATM   25  N3  UNK     1      18.727  -4.619  36.570  1.00  0.00    -0.326 N 
HETATM   26  H15 UNK     1      17.763  -4.853  36.344  1.00  0.00     0.169 HD
BRANCH  25  27
HETATM   27  C17 UNK     1      19.624  -5.712  36.537  1.00  0.00     0.034 A 
HETATM   28  C18 UNK     1      20.321  -6.079  37.688  1.00  0.00     0.031 A 
HETATM   29  C21 UNK     1      21.205  -7.157  37.656  1.00  0.00     0.026 A 
HETATM   30  C23 UNK     1      21.392  -7.869  36.470  1.00  0.00     0.034 A 
HETATM   31  C22 UNK     1      20.696  -7.504  35.319  1.00  0.00     0.026 A 
HETATM   32 Cl1  UNK     1      22.482  -9.200  36.431  1.00  0.00    -0.084 Cl
HETATM   33  C19 UNK     1      19.812  -6.425  35.352  1.00  0.00     0.031 A 
ENDBRANCH  25  27
ENDBRANCH  22  23
ENDBRANCH   2  22
TORSDOF 7
ENDMDL
MODEL 4
REMARK VINA RESULT:      -8.5      6.181     10.905
REMARK  7 active torsions:
REMARK  status: ('A' for Active; 'I' for Inactive)
REMARK    1  A    between atoms: C15_23  and  O3_4 
REMARK    2  A    between atoms: C20_28  and  O3_4 
REMARK    3  A    between atoms: C5_13  and  N1_6 
REMARK    4  A    between atoms: C6_14  and  N2_7 
REMARK    5  A    between atoms: C17_25  and  N3_8 
REMARK       I    between atoms: C9_17  and  N3_8 
REMARK    6  A    between atoms: C5_13  and  C7_15 
REMARK    7  A    between atoms: C6_14  and  C9_17 
ROOT
HETATM    1  N1  UNK     1      23.782  -9.346  37.199  1.00  0.00     0.096 N 
HETATM    2  N2  UNK     1      26.210  -8.310  38.380  1.00  0.00     0.100 N 
HETATM    3  C1  UNK     1      25.095  -9.601  36.591  1.00  0.00     0.303 C 
HETATM    4  C2  UNK     1      23.793  -8.072  37.926  1.00  0.00     0.303 C 
HETATM    5  C3  UNK     1      26.200  -9.586  37.653  1.00  0.00     0.303 C 
HETATM    6  C4  UNK     1      24.898  -8.058  38.988  1.00  0.00     0.303 C 
ENDROOT
BRANCH   1   7
HETATM    7  C5  UNK     1      22.730  -9.358  36.184  1.00  0.00     0.312 C 
BRANCH   7   8
HETATM    8  C7  UNK     1      21.371  -9.456  36.786  1.00  0.00    -0.011 A 
HETATM    9  C10 UNK     1      20.960 -10.581  37.387  1.00  0.00     0.092 A 
HETATM   10  C13 UNK     1      19.626 -10.725  37.995  1.00  0.00     0.288 A 
HETATM   11  O1  UNK     1      18.786  -9.625  37.923  1.00  0.00    -0.275 OA
HETATM   12  O4  UNK     1      19.284 -11.771  38.537  1.00  0.00    -0.260 OA
HETATM   13  C11 UNK     1      19.191  -8.429  37.298  1.00  0.00     0.090 A 
HETATM   14  C8  UNK     1      20.457  -8.306  36.724  1.00  0.00     0.009 A 
HETATM   15  C14 UNK     1      18.262  -7.386  37.283  1.00  0.00     0.041 A 
HETATM   16  C12 UNK     1      20.783  -7.084  36.120  1.00  0.00     0.051 A 
HETATM   17  C15 UNK     1      19.863  -6.030  36.098  1.00  0.00     0.069 A 
HETATM   18  C16 UNK     1      18.604  -6.181  36.678  1.00  0.00     0.039 A 
BRANCH  17  19
HETATM   19  O3  UNK     1      20.198  -4.851  35.505  1.00  0.00    -0.351 OA
BRANCH  19  20
HETATM   20  C20 UNK     1      20.061  -3.669  36.292  1.00  0.00     0.171 C 
HETATM   21  C24 UNK     1      20.118  -2.462  35.381  1.00  0.00     0.034 C 
ENDBRANCH  19  20
ENDBRANCH  17  19
ENDBRANCH   7   8
ENDBRANCH   1   7
BRANCH   2  22
HETATM   22  C6  UNK     1      27.263  -8.298  39.393  1.00  0.00     0.375 C 
BRANCH  22  23
HETATM   23  C9  UNK     1      28.226  -7.159  39.106  1.00  0.00     0.250 C 
HETATM   24  O2  UNK     1      28.154  -6.073  39.673  1.00  0.00    -0.271 OA
HETATM   25  N3  UNK     1      29.157  -7.547  38.144  1.00  0.00    -0.326 N 
HETATM   26  H15 UNK     1      29.081  -8.488  37.765  1.00  0.00     0.169 HD
BRANCH  25  27
HETATM   27  C17 UNK     1      30.215  -6.776  37.607  1.00  0.00     0.034 A 
HETATM   28  C18 UNK     1      31.375  -6.568  38.353  1.00  0.00     0.031 A 
HETATM   29  C21 UNK     1      32.419  -5.809  37.824  1.00  0.00     0.026 A 
HETATM   30  C23 UNK     1      32.302  -5.257  36.547  1.00  0.00     0.034 A 
HETATM   31  C22 UNK     1      31.142  -5.465  35.801  1.00  0.00     0.026 A 
HETATM   32 Cl1  UNK     1      33.590  -4.322  35.894  1.00  0.00    -0.084 Cl
HETATM   33  C19 UNK     1      30.099  -6.224  36.331  1.00  0.00     0.031 A 
ENDBRANCH  25  27
ENDBRANCH  22  23
ENDBRANCH   2  22
TORSDOF 7
ENDMDL
MODEL 5
REMARK VINA RESULT:      -8.4      8.383     12.388
REMARK  7 active torsions:
REMARK  status: ('A' for Active; 'I' for Inactive)
REMARK    1  A    between atoms: C15_23  and  O3_4 
REMARK    2  A    between atoms: C20_28  and  O3_4 
REMARK    3  A    between atoms: C5_13  and  N1_6 
REMARK    4  A    between atoms: C6_14  and  N2_7 
REMARK    5  A    between atoms: C17_25  and  N3_8 
REMARK       I    between atoms: C9_17  and  N3_8 
REMARK    6  A    between atoms: C5_13  and  C7_15 
REMARK    7  A    between atoms: C6_14  and  C9_17 
ROOT
HETATM    1  N1  UNK     1      26.863  -9.459  37.553  1.00  0.00     0.096 N 
HETATM    2  N2  UNK     1      29.701  -9.133  37.998  1.00  0.00     0.100 N 
HETATM    3  C1  UNK     1      27.703  -8.713  36.607  1.00  0.00     0.303 C 
HETATM    4  C2  UNK     1      27.417  -9.371  38.909  1.00  0.00     0.303 C 
HETATM    5  C3  UNK     1      29.148  -9.221  36.641  1.00  0.00     0.303 C 
HETATM    6  C4  UNK     1      28.863  -9.880  38.942  1.00  0.00     0.303 C 
ENDROOT
BRANCH   1   7
HETATM    7  C5  UNK     1      25.486  -8.971  37.522  1.00  0.00     0.312 C 
BRANCH   7   8
HETATM    8  C7  UNK     1      24.582  -9.887  36.771  1.00  0.00    -0.011 A 
HETATM    9  C10 UNK     1      25.024 -11.060  36.298  1.00  0.00     0.092 A 
HETATM   10  C13 UNK     1      24.168 -11.998  35.551  1.00  0.00     0.288 A 
HETATM   11  O1  UNK     1      22.851 -11.615  35.350  1.00  0.00    -0.275 OA
HETATM   12  O4  UNK     1      24.607 -13.064  35.133  1.00  0.00    -0.260 OA
HETATM   13  C11 UNK     1      22.359 -10.388  35.835  1.00  0.00     0.090 A 
HETATM   14  C8  UNK     1      23.181  -9.508  36.540  1.00  0.00     0.009 A 
HETATM   15  C14 UNK     1      21.017 -10.104  35.572  1.00  0.00     0.041 A 
HETATM   16  C12 UNK     1      22.616  -8.306  36.989  1.00  0.00     0.051 A 
HETATM   17  C15 UNK     1      21.273  -8.009  36.733  1.00  0.00     0.069 A 
HETATM   18  C16 UNK     1      20.474  -8.907  36.025  1.00  0.00     0.039 A 
BRANCH  17  19
HETATM   19  O3  UNK     1      20.742  -6.836  37.177  1.00  0.00    -0.351 OA
BRANCH  19  20
HETATM   20  C20 UNK     1      19.593  -6.922  38.017  1.00  0.00     0.171 C 
HETATM   21  C24 UNK     1      20.044  -7.074  39.454  1.00  0.00     0.034 C 
ENDBRANCH  19  20
ENDBRANCH  17  19
ENDBRANCH   7   8
ENDBRANCH   1   7
BRANCH   2  22
HETATM   22  C6  UNK     1      31.079  -9.620  38.029  1.00  0.00     0.375 C 
BRANCH  22  23
HETATM   23  C9  UNK     1      31.900  -8.880  36.986  1.00  0.00     0.250 C 
HETATM   24  O2  UNK     1      32.410  -9.444  36.024  1.00  0.00    -0.271 OA
HETATM   25  N3  UNK     1      31.960  -7.522  37.296  1.00  0.00    -0.326 N 
HETATM   26  H15 UNK     1      31.482  -7.207  38.137  1.00  0.00     0.169 HD
BRANCH  25  27
HETATM   27  C17 UNK     1      32.625  -6.502  36.576  1.00  0.00     0.034 A 
HETATM   28  C18 UNK     1      33.989  -6.284  36.773  1.00  0.00     0.031 A 
HETATM   29  C21 UNK     1      34.645  -5.278  36.063  1.00  0.00     0.026 A 
HETATM   30  C23 UNK     1      33.936  -4.490  35.155  1.00  0.00     0.034 A 
HETATM   31  C22 UNK     1      32.573  -4.708  34.957  1.00  0.00     0.026 A 
HETATM   32 Cl1  UNK     1      34.746  -3.251  34.279  1.00  0.00    -0.084 Cl
HETATM   33  C19 UNK     1      31.918  -5.713  35.668  1.00  0.00     0.031 A 
ENDBRANCH  25  27
ENDBRANCH  22  23
ENDBRANCH   2  22
TORSDOF 7
ENDMDL
MODEL 6
REMARK VINA RESULT:      -8.4      5.608     13.442
REMARK  7 active torsions:
REMARK  status: ('A' for Active; 'I' for Inactive)
REMARK    1  A    between atoms: C15_23  and  O3_4 
REMARK    2  A    between atoms: C20_28  and  O3_4 
REMARK    3  A    between atoms: C5_13  and  N1_6 
REMARK    4  A    between atoms: C6_14  and  N2_7 
REMARK    5  A    between atoms: C17_25  and  N3_8 
REMARK       I    between atoms: C9_17  and  N3_8 
REMARK    6  A    between atoms: C5_13  and  C7_15 
REMARK    7  A    between atoms: C6_14  and  C9_17 
ROOT
HETATM    1  N1  UNK     1      17.975   5.599  31.534  1.00  0.00     0.096 N 
HETATM    2  N2  UNK     1      18.994   2.969  30.897  1.00  0.00     0.100 N 
HETATM    3  C1  UNK     1      19.017   5.410  30.516  1.00  0.00     0.303 C 
HETATM    4  C2  UNK     1      18.058   4.546  32.553  1.00  0.00     0.303 C 
HETATM    5  C3  UNK     1      18.912   4.022  29.877  1.00  0.00     0.303 C 
HETATM    6  C4  UNK     1      17.951   3.157  31.913  1.00  0.00     0.303 C 
ENDROOT
BRANCH   1   7
HETATM    7  C5  UNK     1      18.079   6.922  32.144  1.00  0.00     0.312 C 
BRANCH   7   8
HETATM    8  C7  UNK     1      16.743   7.507  32.450  1.00  0.00    -0.011 A 
HETATM    9  C10 UNK     1      15.615   6.859  32.129  1.00  0.00     0.092 A 
HETATM   10  C13 UNK     1      14.273   7.397  32.410  1.00  0.00     0.288 A 
HETATM   11  O1  UNK     1      14.215   8.632  33.036  1.00  0.00    -0.275 OA
HETATM   12  O4  UNK     1      13.262   6.775  32.103  1.00  0.00    -0.260 OA
HETATM   13  C11 UNK     1      15.384   9.337  33.384  1.00  0.00     0.090 A 
HETATM   14  C8  UNK     1      16.650   8.816  33.111  1.00  0.00     0.009 A 
HETATM   15  C14 UNK     1      15.207  10.572  34.010  1.00  0.00     0.041 A 
HETATM   16  C12 UNK     1      17.763   9.579  33.488  1.00  0.00     0.051 A 
HETATM   17  C15 UNK     1      17.601  10.819  34.116  1.00  0.00     0.069 A 
HETATM   18  C16 UNK     1      16.324  11.315  34.376  1.00  0.00     0.039 A 
BRANCH  17  19
HETATM   19  O3  UNK     1      18.695  11.546  34.474  1.00  0.00    -0.351 OA
BRANCH  19  20
HETATM   20  C20 UNK     1      18.531  12.960  34.568  1.00  0.00     0.171 C 
HETATM   21  C24 UNK     1      18.608  13.558  33.179  1.00  0.00     0.034 C 
ENDBRANCH  19  20
ENDBRANCH  17  19
ENDBRANCH   7   8
ENDBRANCH   1   7
BRANCH   2  22
HETATM   22  C6  UNK     1      18.891   1.645  30.287  1.00  0.00     0.375 C 
BRANCH  22  23
HETATM   23  C9  UNK     1      19.632   0.634  31.145  1.00  0.00     0.250 C 
HETATM   24  O2  UNK     1      20.785   0.285  30.910  1.00  0.00    -0.271 OA
HETATM   25  N3  UNK     1      18.819   0.204  32.192  1.00  0.00    -0.326 N 
HETATM   26  H15 UNK     1      17.879   0.589  32.250  1.00  0.00     0.169 HD
BRANCH  25  27
HETATM   27  C17 UNK     1      19.139  -0.730  33.206  1.00  0.00     0.034 A 
HETATM   28  C18 UNK     1      19.972  -1.811  32.921  1.00  0.00     0.031 A 
HETATM   29  C21 UNK     1      20.288  -2.732  33.919  1.00  0.00     0.026 A 
HETATM   30  C23 UNK     1      19.770  -2.571  35.205  1.00  0.00     0.034 A 
HETATM   31  C22 UNK     1      18.937  -1.490  35.491  1.00  0.00     0.026 A 
HETATM   32 Cl1  UNK     1      20.162  -3.706  36.438  1.00  0.00    -0.084 Cl
HETATM   33  C19 UNK     1      18.622  -0.569  34.492  1.00  0.00     0.031 A 
ENDBRANCH  25  27
ENDBRANCH  22  23
ENDBRANCH   2  22
TORSDOF 7
ENDMDL
MODEL 7
REMARK VINA RESULT:      -8.2     12.415     16.740
REMARK  7 active torsions:
REMARK  status: ('A' for Active; 'I' for Inactive)
REMARK    1  A    between atoms: C15_23  and  O3_4 
REMARK    2  A    between atoms: C20_28  and  O3_4 
REMARK    3  A    between atoms: C5_13  and  N1_6 
REMARK    4  A    between atoms: C6_14  and  N2_7 
REMARK    5  A    between atoms: C17_25  and  N3_8 
REMARK       I    between atoms: C9_17  and  N3_8 
REMARK    6  A    between atoms: C5_13  and  C7_15 
REMARK    7  A    between atoms: C6_14  and  C9_17 
ROOT
HETATM    1  N1  UNK     1      32.421  -5.739  35.882  1.00  0.00     0.096 N 
HETATM    2  N2  UNK     1      35.064  -6.333  34.872  1.00  0.00     0.100 N 
HETATM    3  C1  UNK     1      32.631  -6.764  34.851  1.00  0.00     0.303 C 
HETATM    4  C2  UNK     1      33.452  -4.700  35.789  1.00  0.00     0.303 C 
HETATM    5  C3  UNK     1      34.032  -7.374  34.965  1.00  0.00     0.303 C 
HETATM    6  C4  UNK     1      34.854  -5.311  35.904  1.00  0.00     0.303 C 
ENDROOT
BRANCH   1   7
HETATM    7  C5  UNK     1      31.085  -5.157  35.770  1.00  0.00     0.312 C 
BRANCH   7   8
HETATM    8  C7  UNK     1      30.302  -5.298  37.030  1.00  0.00    -0.011 A 
HETATM    9  C10 UNK     1      30.317  -4.337  37.964  1.00  0.00     0.092 A 
HETATM   10  C13 UNK     1      29.561  -4.431  39.224  1.00  0.00     0.288 A 
HETATM   11  O1  UNK     1      28.811  -5.581  39.417  1.00  0.00    -0.275 OA
HETATM   12  O4  UNK     1      29.597  -3.531  40.056  1.00  0.00    -0.260 OA
HETATM   13  C11 UNK     1      28.778  -6.608  38.453  1.00  0.00     0.090 A 
HETATM   14  C8  UNK     1      29.500  -6.506  37.263  1.00  0.00     0.009 A 
HETATM   15  C14 UNK     1      27.990  -7.721  38.753  1.00  0.00     0.041 A 
HETATM   16  C12 UNK     1      29.414  -7.571  36.357  1.00  0.00     0.051 A 
HETATM   17  C15 UNK     1      28.629  -8.694  36.644  1.00  0.00     0.069 A 
HETATM   18  C16 UNK     1      27.918  -8.768  37.841  1.00  0.00     0.039 A 
BRANCH  17  19
HETATM   19  O3  UNK     1      28.560  -9.718  35.750  1.00  0.00    -0.351 OA
BRANCH  19  20
HETATM   20  C20 UNK     1      29.615  -9.818  34.795  1.00  0.00     0.171 C 
HETATM   21  C24 UNK     1      29.038 -10.260  33.468  1.00  0.00     0.034 C 
ENDBRANCH  19  20
ENDBRANCH  17  19
ENDBRANCH   7   8
ENDBRANCH   1   7
BRANCH   2  22
HETATM   22  C6  UNK     1      36.400  -6.916  34.983  1.00  0.00     0.375 C 
BRANCH  22  23
HETATM   23  C9  UNK     1      36.678  -7.775  33.761  1.00  0.00     0.250 C 
HETATM   24  O2  UNK     1      36.610  -7.339  32.616  1.00  0.00    -0.271 OA
HETATM   25  N3  UNK     1      37.012  -9.071  34.150  1.00  0.00    -0.326 N 
HETATM   26  H15 UNK     1      37.022  -9.278  35.146  1.00  0.00     0.169 HD
BRANCH  25  27
HETATM   27  C17 UNK     1      37.339 -10.166  33.315  1.00  0.00     0.034 A 
HETATM   28  C18 UNK     1      36.430 -11.209  33.144  1.00  0.00     0.031 A 
HETATM   29  C21 UNK     1      36.751 -12.288  32.321  1.00  0.00     0.026 A 
HETATM   30  C23 UNK     1      37.983 -12.322  31.666  1.00  0.00     0.034 A 
HETATM   31  C22 UNK     1      38.893 -11.279  31.836  1.00  0.00     0.026 A 
HETATM   32 Cl1  UNK     1      38.379 -13.653  30.649  1.00  0.00    -0.084 Cl
HETATM   33  C19 UNK     1      38.571 -10.201  32.660  1.00  0.00     0.031 A 
ENDBRANCH  25  27
ENDBRANCH  22  23
ENDBRANCH   2  22
TORSDOF 7
ENDMDL
MODEL 8
REMARK VINA RESULT:      -8.2      4.107     11.542
REMARK  7 active torsions:
REMARK  status: ('A' for Active; 'I' for Inactive)
REMARK    1  A    between atoms: C15_23  and  O3_4 
REMARK    2  A    between atoms: C20_28  and  O3_4 
REMARK    3  A    between atoms: C5_13  and  N1_6 
REMARK    4  A    between atoms: C6_14  and  N2_7 
REMARK    5  A    between atoms: C17_25  and  N3_8 
REMARK       I    between atoms: C9_17  and  N3_8 
REMARK    6  A    between atoms: C5_13  and  C7_15 
REMARK    7  A    between atoms: C6_14  and  C9_17 
ROOT
HETATM    1  N1  UNK     1      18.545   2.101  34.508  1.00  0.00     0.096 N 
HETATM    2  N2  UNK     1      18.918  -0.703  35.109  1.00  0.00     0.100 N 
HETATM    3  C1  UNK     1      19.121   1.665  35.787  1.00  0.00     0.303 C 
HETATM    4  C2  UNK     1      17.630   1.080  33.985  1.00  0.00     0.303 C 
HETATM    5  C3  UNK     1      19.835   0.317  35.633  1.00  0.00     0.303 C 
HETATM    6  C4  UNK     1      18.344  -0.267  33.830  1.00  0.00     0.303 C 
ENDROOT
BRANCH   1   7
HETATM    7  C5  UNK     1      17.862   3.384  34.658  1.00  0.00     0.312 C 
BRANCH   7   8
HETATM    8  C7  UNK     1      18.437   4.433  33.770  1.00  0.00    -0.011 A 
HETATM    9  C10 UNK     1      18.915   5.580  34.274  1.00  0.00     0.092 A 
HETATM   10  C13 UNK     1      19.492   6.645  33.437  1.00  0.00     0.288 A 
HETATM   11  O1  UNK     1      19.526   6.415  32.070  1.00  0.00    -0.275 OA
HETATM   12  O4  UNK     1      19.920   7.682  33.934  1.00  0.00    -0.260 OA
HETATM   13  C11 UNK     1      19.031   5.220  31.513  1.00  0.00     0.090 A 
HETATM   14  C8  UNK     1      18.485   4.219  32.317  1.00  0.00     0.009 A 
HETATM   15  C14 UNK     1      19.114   5.097  30.124  1.00  0.00     0.041 A 
HETATM   16  C12 UNK     1      18.013   3.061  31.685  1.00  0.00     0.051 A 
HETATM   17  C15 UNK     1      18.090   2.923  30.295  1.00  0.00     0.069 A 
HETATM   18  C16 UNK     1      18.640   3.940  29.515  1.00  0.00     0.039 A 
BRANCH  17  19
HETATM   19  O3  UNK     1      17.626   1.790  29.699  1.00  0.00    -0.351 OA
BRANCH  19  20
HETATM   20  C20 UNK     1      18.337   1.321  28.555  1.00  0.00     0.171 C 
HETATM   21  C24 UNK     1      19.438   0.387  29.008  1.00  0.00     0.034 C 
ENDBRANCH  19  20
ENDBRANCH  17  19
ENDBRANCH   7   8
ENDBRANCH   1   7
BRANCH   2  22
HETATM   22  C6  UNK     1      19.601  -1.987  34.961  1.00  0.00     0.375 C 
BRANCH  22  23
HETATM   23  C9  UNK     1      19.364  -2.830  36.202  1.00  0.00     0.250 C 
HETATM   24  O2  UNK     1      18.827  -2.385  37.212  1.00  0.00    -0.271 OA
HETATM   25  N3  UNK     1      19.832  -4.127  36.000  1.00  0.00    -0.326 N 
HETATM   26  H15 UNK     1      20.258  -4.341  35.101  1.00  0.00     0.169 HD
BRANCH  25  27
HETATM   27  C17 UNK     1      19.798  -5.209  36.911  1.00  0.00     0.034 A 
HETATM   28  C18 UNK     1      20.758  -5.305  37.918  1.00  0.00     0.031 A 
HETATM   29  C21 UNK     1      20.725  -6.371  38.817  1.00  0.00     0.026 A 
HETATM   30  C23 UNK     1      19.729  -7.342  38.708  1.00  0.00     0.034 A 
HETATM   31  C22 UNK     1      18.768  -7.248  37.701  1.00  0.00     0.026 A 
HETATM   32 Cl1  UNK     1      19.686  -8.657  39.817  1.00  0.00    -0.084 Cl
HETATM   33  C19 UNK     1      18.803  -6.181  36.803  1.00  0.00     0.031 A 
ENDBRANCH  25  27
ENDBRANCH  22  23
ENDBRANCH   2  22
TORSDOF 7
ENDMDL
MODEL 9
REMARK VINA RESULT:      -8.1      8.602     12.146
REMARK  7 active torsions:
REMARK  status: ('A' for Active; 'I' for Inactive)
REMARK    1  A    between atoms: C15_23  and  O3_4 
REMARK    2  A    between atoms: C20_28  and  O3_4 
REMARK    3  A    between atoms: C5_13  and  N1_6 
REMARK    4  A    between atoms: C6_14  and  N2_7 
REMARK    5  A    between atoms: C17_25  and  N3_8 
REMARK       I    between atoms: C9_17  and  N3_8 
REMARK    6  A    between atoms: C5_13  and  C7_15 
REMARK    7  A    between atoms: C6_14  and  C9_17 
ROOT
HETATM    1  N1  UNK     1      26.066  -7.368  38.129  1.00  0.00     0.096 N 
HETATM    2  N2  UNK     1      28.766  -6.424  37.704  1.00  0.00     0.100 N 
HETATM    3  C1  UNK     1      26.829  -6.728  39.208  1.00  0.00     0.303 C 
HETATM    4  C2  UNK     1      26.971  -8.044  37.193  1.00  0.00     0.303 C 
HETATM    5  C3  UNK     1      27.861  -5.747  38.641  1.00  0.00     0.303 C 
HETATM    6  C4  UNK     1      28.002  -7.062  36.625  1.00  0.00     0.303 C 
ENDROOT
BRANCH   1   7
HETATM    7  C5  UNK     1      25.085  -8.305  38.672  1.00  0.00     0.312 C 
BRANCH   7   8
HETATM    8  C7  UNK     1      23.710  -8.036  38.165  1.00  0.00    -0.011 A 
HETATM    9  C10 UNK     1      23.007  -6.981  38.599  1.00  0.00     0.092 A 
HETATM   10  C13 UNK     1      21.646  -6.674  38.127  1.00  0.00     0.288 A 
HETATM   11  O1  UNK     1      21.101  -7.540  37.192  1.00  0.00    -0.275 OA
HETATM   12  O4  UNK     1      21.033  -5.699  38.546  1.00  0.00    -0.260 OA
HETATM   13  C11 UNK     1      21.815  -8.658  36.719  1.00  0.00     0.090 A 
HETATM   14  C8  UNK     1      23.104  -8.937  37.175  1.00  0.00     0.009 A 
HETATM   15  C14 UNK     1      21.168  -9.462  35.779  1.00  0.00     0.041 A 
HETATM   16  C12 UNK     1      23.748 -10.069  36.655  1.00  0.00     0.051 A 
HETATM   17  C15 UNK     1      23.111 -10.884  35.713  1.00  0.00     0.069 A 
HETATM   18  C16 UNK     1      21.823 -10.581  35.276  1.00  0.00     0.039 A 
BRANCH  17  19
HETATM   19  O3  UNK     1      23.753 -11.979  35.221  1.00  0.00    -0.351 OA
BRANCH  19  20
HETATM   20  C20 UNK     1      24.907 -12.428  35.931  1.00  0.00     0.171 C 
HETATM   21  C24 UNK     1      24.685 -13.856  36.379  1.00  0.00     0.034 C 
ENDBRANCH  19  20
ENDBRANCH  17  19
ENDBRANCH   7   8
ENDBRANCH   1   7
BRANCH   2  22
HETATM   22  C6  UNK     1      29.748  -5.488  37.162  1.00  0.00     0.375 C 
BRANCH  22  23
HETATM   23  C9  UNK     1      31.121  -6.138  37.165  1.00  0.00     0.250 C 
HETATM   24  O2  UNK     1      31.493  -6.894  38.056  1.00  0.00    -0.271 OA
HETATM   25  N3  UNK     1      31.839  -5.750  36.035  1.00  0.00    -0.326 N 
HETATM   26  H15 UNK     1      31.389  -5.110  35.385  1.00  0.00     0.169 HD
BRANCH  25  27
HETATM   27  C17 UNK     1      33.151  -6.137  35.672  1.00  0.00     0.034 A 
HETATM   28  C18 UNK     1      34.250  -5.555  36.304  1.00  0.00     0.031 A 
HETATM   29  C21 UNK     1      35.543  -5.935  35.947  1.00  0.00     0.026 A 
HETATM   30  C23 UNK     1      35.738  -6.899  34.957  1.00  0.00     0.034 A 
HETATM   31  C22 UNK     1      34.640  -7.482  34.325  1.00  0.00     0.026 A 
HETATM   32 Cl1  UNK     1      37.334  -7.370  34.518  1.00  0.00    -0.084 Cl
HETATM   33  C19 UNK     1      33.347  -7.100  34.682  1.00  0.00     0.031 A 
ENDBRANCH  25  27
ENDBRANCH  22  23
ENDBRANCH   2  22
TORSDOF 7
ENDMDL
MODEL 10
REMARK VINA RESULT:      -8.0     27.675     29.970
REMARK  7 active torsions:
REMARK  status: ('A' for Active; 'I' for Inactive)
REMARK    1  A    between atoms: C15_23  and  O3_4 
REMARK    2  A    between atoms: C20_28  and  O3_4 
REMARK    3  A    between atoms: C5_13  and  N1_6 
REMARK    4  A    between atoms: C6_14  and  N2_7 
REMARK    5  A    between atoms: C17_25  and  N3_8 
REMARK       I    between atoms: C9_17  and  N3_8 
REMARK    6  A    between atoms: C5_13  and  C7_15 
REMARK    7  A    between atoms: C6_14  and  C9_17 
ROOT
HETATM    1  N1  UNK     1      11.890   7.182   7.330  1.00  0.00     0.096 N 
HETATM    2  N2  UNK     1       9.503   5.786   8.178  1.00  0.00     0.100 N 
HETATM    3  C1  UNK     1      11.264   6.158   6.483  1.00  0.00     0.303 C 
HETATM    4  C2  UNK     1      11.634   6.901   8.747  1.00  0.00     0.303 C 
HETATM    5  C3  UNK     1       9.759   6.067   6.759  1.00  0.00     0.303 C 
HETATM    6  C4  UNK     1      10.128   6.811   9.022  1.00  0.00     0.303 C 
ENDROOT
BRANCH   1   7
HETATM    7  C5  UNK     1      13.325   7.265   7.068  1.00  0.00     0.312 C 
BRANCH   7   8
HETATM    8  C7  UNK     1      14.137   6.877   8.256  1.00  0.00    -0.011 A 
HETATM    9  C10 UNK     1      14.431   5.593   8.503  1.00  0.00     0.092 A 
HETATM   10  C13 UNK     1      15.229   5.162   9.663  1.00  0.00     0.288 A 
HETATM   11  O1  UNK     1      15.679   6.158  10.515  1.00  0.00    -0.275 OA
HETATM   12  O4  UNK     1      15.479   3.977   9.858  1.00  0.00    -0.260 OA
HETATM   13  C11 UNK     1      15.385   7.516  10.281  1.00  0.00     0.090 A 
HETATM   14  C8  UNK     1      14.627   7.911   9.178  1.00  0.00     0.009 A 
HETATM   15  C14 UNK     1      15.889   8.433  11.205  1.00  0.00     0.041 A 
HETATM   16  C12 UNK     1      14.378   9.280   9.016  1.00  0.00     0.051 A 
HETATM   17  C15 UNK     1      14.876  10.211   9.934  1.00  0.00     0.069 A 
HETATM   18  C16 UNK     1      15.630   9.788  11.027  1.00  0.00     0.039 A 
BRANCH  17  19
HETATM   19  O3  UNK     1      14.622  11.538   9.759  1.00  0.00    -0.351 OA
BRANCH  19  20
HETATM   20  C20 UNK     1      15.719  12.434   9.925  1.00  0.00     0.171 C 
HETATM   21  C24 UNK     1      16.334  12.716   8.571  1.00  0.00     0.034 C 
ENDBRANCH  19  20
ENDBRANCH  17  19
ENDBRANCH   7   8
ENDBRANCH   1   7
BRANCH   2  22
HETATM   22  C6  UNK     1       8.068   5.702   8.440  1.00  0.00     0.375 C 
BRANCH  22  23
HETATM   23  C9  UNK     1       7.819   4.715   9.568  1.00  0.00     0.250 C 
HETATM   24  O2  UNK     1       8.610   3.821   9.852  1.00  0.00    -0.271 OA
HETATM   25  N3  UNK     1       6.603   4.993  10.191  1.00  0.00    -0.326 N 
HETATM   26  H15 UNK     1       6.056   5.773   9.833  1.00  0.00     0.169 HD
BRANCH  25  27
HETATM   27  C17 UNK     1       6.014   4.307  11.279  1.00  0.00     0.034 A 
HETATM   28  C18 UNK     1       5.988   4.895  12.543  1.00  0.00     0.031 A 
HETATM   29  C21 UNK     1       5.407   4.220  13.616  1.00  0.00     0.026 A 
HETATM   30  C23 UNK     1       4.851   2.954  13.424  1.00  0.00     0.034 A 
HETATM   31  C22 UNK     1       4.877   2.365  12.160  1.00  0.00     0.026 A 
HETATM   32 Cl1  UNK     1       4.133   2.122  14.747  1.00  0.00    -0.084 Cl
HETATM   33  C19 UNK     1       5.459   3.042  11.088  1.00  0.00     0.031 A 
ENDBRANCH  25  27
ENDBRANCH  22  23
ENDBRANCH   2  22
TORSDOF 7
ENDMDL
