MODEL 1
REMARK VINA RESULT:      -9.1      0.000      0.000
REMARK  5 active torsions:
REMARK  status: ('A' for Active; 'I' for Inactive)
REMARK    1  A    between atoms: C17_23  and  O2_2 
REMARK    2  A    between atoms: C18_24  and  O2_2 
REMARK    3  A    between atoms: C5_11  and  N1_6 
REMARK       I    between atoms: C6_12  and  N1_6 
REMARK    4  A    between atoms: C2_8  and  C6_12 
REMARK    5  A    between atoms: C10_16  and  C17_23 
ROOT
HETATM    1  O3  UNK     1      17.584   3.167  32.854  1.00  0.00    -0.267 OA
HETATM    2  N1  UNK     1      18.727   4.668  31.445  1.00  0.00    -0.323 N 
HETATM    3  C6  UNK     1      18.278   3.426  31.872  1.00  0.00     0.262 C 
HETATM    4  H3  UNK     1      19.279   4.716  30.591  1.00  0.00     0.169 HD
ENDROOT
BRANCH   2   5
HETATM    5  C5  UNK     1      18.487   5.927  32.047  1.00  0.00     0.035 A 
HETATM    6  C11 UNK     1      17.276   6.561  31.830  1.00  0.00     0.030 A 
HETATM    7  C13 UNK     1      17.039   7.801  32.425  1.00  0.00     0.020 A 
HETATM    8  C10 UNK     1      18.017   8.387  33.228  1.00  0.00     0.039 A 
HETATM    9  C14 UNK     1      19.232   7.734  33.437  1.00  0.00     0.020 A 
HETATM   10  C12 UNK     1      19.469   6.495  32.842  1.00  0.00     0.030 A 
BRANCH   8  11
HETATM   11  C17 UNK     1      17.769   9.678  33.849  1.00  0.00     0.293 C 
HETATM   12  O5  UNK     1      18.331  10.732  33.551  1.00  0.00    -0.259 OA
BRANCH  11  13
HETATM   13  O2  UNK     1      16.814   9.583  34.829  1.00  0.00    -0.318 OA
BRANCH  13  14
HETATM   14  C18 UNK     1      15.702  10.479  34.720  1.00  0.00     0.174 C 
HETATM   15  C19 UNK     1      14.446   9.676  34.453  1.00  0.00     0.034 C 
ENDBRANCH  13  14
ENDBRANCH  11  13
ENDBRANCH   8  11
ENDBRANCH   2   5
BRANCH   3  16
HETATM   16  C2  UNK     1      18.727   2.342  30.990  1.00  0.00     0.108 A 
HETATM   17  C4  UNK     1      19.145   1.223  31.594  1.00  0.00     0.037 A 
HETATM   18  C1  UNK     1      19.608   0.093  30.805  1.00  0.00    -0.001 A 
HETATM   19  C3  UNK     1      19.610   0.196  29.418  1.00  0.00     0.089 A 
HETATM   20  C7  UNK     1      20.054  -1.094  31.393  1.00  0.00     0.014 A 
HETATM   21  O1  UNK     1      19.168   1.376  28.787  1.00  0.00    -0.274 OA
HETATM   22  C9  UNK     1      20.042  -0.849  28.604  1.00  0.00     0.038 A 
HETATM   23  C8  UNK     1      18.718   2.474  29.516  1.00  0.00     0.304 A 
HETATM   24  O4  UNK     1      18.336   3.497  28.959  1.00  0.00    -0.259 OA
HETATM   25  C16 UNK     1      20.484  -2.028  29.198  1.00  0.00     0.003 A 
HETATM   26  C15 UNK     1      20.491  -2.151  30.589  1.00  0.00     0.001 A 
ENDBRANCH   3  16
TORSDOF 5
ENDMDL
MODEL 2
REMARK VINA RESULT:      -9.1      8.592     13.711
REMARK  5 active torsions:
REMARK  status: ('A' for Active; 'I' for Inactive)
REMARK    1  A    between atoms: C17_23  and  O2_2 
REMARK    2  A    between atoms: C18_24  and  O2_2 
REMARK    3  A    between atoms: C5_11  and  N1_6 
REMARK       I    between atoms: C6_12  and  N1_6 
REMARK    4  A    between atoms: C2_8  and  C6_12 
REMARK    5  A    between atoms: C10_16  and  C17_23 
ROOT
HETATM    1  O3  UNK     1      21.296  -4.223  36.830  1.00  0.00    -0.267 OA
HETATM    2  N1  UNK     1      19.059  -4.956  36.754  1.00  0.00    -0.323 N 
HETATM    3  C6  UNK     1      20.093  -4.035  36.655  1.00  0.00     0.262 C 
HETATM    4  H3  UNK     1      18.112  -4.643  36.554  1.00  0.00     0.169 HD
ENDROOT
BRANCH   2   5
HETATM    5  C5  UNK     1      19.155  -6.330  37.083  1.00  0.00     0.035 A 
HETATM    6  C11 UNK     1      18.690  -7.274  36.183  1.00  0.00     0.030 A 
HETATM    7  C13 UNK     1      18.785  -8.628  36.506  1.00  0.00     0.020 A 
HETATM    8  C10 UNK     1      19.344  -9.017  37.723  1.00  0.00     0.039 A 
HETATM    9  C14 UNK     1      19.809  -8.052  38.618  1.00  0.00     0.020 A 
HETATM   10  C12 UNK     1      19.713  -6.699  38.295  1.00  0.00     0.030 A 
BRANCH   8  11
HETATM   11  C17 UNK     1      19.445 -10.428  38.060  1.00  0.00     0.293 C 
HETATM   12  O5  UNK     1      19.092 -10.934  39.125  1.00  0.00    -0.259 OA
BRANCH  11  13
HETATM   13  O2  UNK     1      19.991 -11.146  37.027  1.00  0.00    -0.318 OA
BRANCH  13  14
HETATM   14  C18 UNK     1      21.398 -10.986  36.816  1.00  0.00     0.174 C 
HETATM   15  C19 UNK     1      21.657 -10.792  35.337  1.00  0.00     0.034 C 
ENDBRANCH  13  14
ENDBRANCH  11  13
ENDBRANCH   8  11
ENDBRANCH   2   5
BRANCH   3  16
HETATM   16  C2  UNK     1      19.611  -2.697  36.291  1.00  0.00     0.108 A 
HETATM   17  C4  UNK     1      18.917  -2.043  37.230  1.00  0.00     0.037 A 
HETATM   18  C1  UNK     1      18.397  -0.712  36.963  1.00  0.00    -0.001 A 
HETATM   19  C3  UNK     1      18.633  -0.133  35.720  1.00  0.00     0.089 A 
HETATM   20  C7  UNK     1      17.668   0.009  37.913  1.00  0.00     0.014 A 
HETATM   21  O1  UNK     1      19.364  -0.827  34.735  1.00  0.00    -0.274 OA
HETATM   22  C9  UNK     1      18.163   1.138  35.400  1.00  0.00     0.038 A 
HETATM   23  C8  UNK     1      19.874  -2.103  34.961  1.00  0.00     0.304 A 
HETATM   24  O4  UNK     1      20.509  -2.699  34.099  1.00  0.00    -0.259 OA
HETATM   25  C16 UNK     1      17.436   1.849  36.353  1.00  0.00     0.003 A 
HETATM   26  C15 UNK     1      17.189   1.286  37.606  1.00  0.00     0.001 A 
ENDBRANCH   3  16
TORSDOF 5
ENDMDL
MODEL 3
REMARK VINA RESULT:      -8.7      1.242      2.009
REMARK  5 active torsions:
REMARK  status: ('A' for Active; 'I' for Inactive)
REMARK    1  A    between atoms: C17_23  and  O2_2 
REMARK    2  A    between atoms: C18_24  and  O2_2 
REMARK    3  A    between atoms: C5_11  and  N1_6 
REMARK       I    between atoms: C6_12  and  N1_6 
REMARK    4  A    between atoms: C2_8  and  C6_12 
REMARK    5  A    between atoms: C10_16  and  C17_23 
ROOT
HETATM    1  O3  UNK     1      18.257   4.559  30.455  1.00  0.00    -0.267 OA
HETATM    2  N1  UNK     1      18.212   4.541  32.809  1.00  0.00    -0.323 N 
HETATM    3  C6  UNK     1      18.354   3.992  31.542  1.00  0.00     0.262 C 
HETATM    4  H3  UNK     1      18.346   3.936  33.616  1.00  0.00     0.169 HD
ENDROOT
BRANCH   2   5
HETATM    5  C5  UNK     1      17.917   5.886  33.140  1.00  0.00     0.035 A 
HETATM    6  C11 UNK     1      16.665   6.397  32.841  1.00  0.00     0.030 A 
HETATM    7  C13 UNK     1      16.374   7.722  33.168  1.00  0.00     0.020 A 
HETATM    8  C10 UNK     1      17.339   8.515  33.788  1.00  0.00     0.039 A 
HETATM    9  C14 UNK     1      18.595   7.984  34.083  1.00  0.00     0.020 A 
HETATM   10  C12 UNK     1      18.886   6.660  33.756  1.00  0.00     0.030 A 
BRANCH   8  11
HETATM   11  C17 UNK     1      17.035   9.896  34.130  1.00  0.00     0.293 C 
HETATM   12  O5  UNK     1      17.572  10.887  33.636  1.00  0.00    -0.259 OA
BRANCH  11  13
HETATM   13  O2  UNK     1      16.057   9.965  35.089  1.00  0.00    -0.318 OA
BRANCH  13  14
HETATM   14  C18 UNK     1      15.071  10.991  34.917  1.00  0.00     0.174 C 
HETATM   15  C19 UNK     1      13.947  10.456  34.055  1.00  0.00     0.034 C 
ENDBRANCH  13  14
ENDBRANCH  11  13
ENDBRANCH   8  11
ENDBRANCH   2   5
BRANCH   3  16
HETATM   16  C2  UNK     1      18.661   2.557  31.592  1.00  0.00     0.108 A 
HETATM   17  C4  UNK     1      19.231   2.037  30.498  1.00  0.00     0.037 A 
HETATM   18  C1  UNK     1      19.571   0.624  30.452  1.00  0.00    -0.001 A 
HETATM   19  C3  UNK     1      19.295  -0.173  31.558  1.00  0.00     0.089 A 
HETATM   20  C7  UNK     1      20.168   0.038  29.332  1.00  0.00     0.014 A 
HETATM   21  O1  UNK     1      18.694   0.382  32.707  1.00  0.00    -0.274 OA
HETATM   22  C9  UNK     1      19.595  -1.533  31.578  1.00  0.00     0.038 A 
HETATM   23  C8  UNK     1      18.357   1.730  32.781  1.00  0.00     0.304 A 
HETATM   24  O4  UNK     1      17.835   2.204  33.784  1.00  0.00    -0.259 OA
HETATM   25  C16 UNK     1      20.189  -2.109  30.458  1.00  0.00     0.003 A 
HETATM   26  C15 UNK     1      20.475  -1.326  29.337  1.00  0.00     0.001 A 
ENDBRANCH   3  16
TORSDOF 5
ENDMDL
MODEL 4
REMARK VINA RESULT:      -8.4     13.887     16.610
REMARK  5 active torsions:
REMARK  status: ('A' for Active; 'I' for Inactive)
REMARK    1  A    between atoms: C17_23  and  O2_2 
REMARK    2  A    between atoms: C18_24  and  O2_2 
REMARK    3  A    between atoms: C5_11  and  N1_6 
REMARK       I    between atoms: C6_12  and  N1_6 
REMARK    4  A    between atoms: C2_8  and  C6_12 
REMARK    5  A    between atoms: C10_16  and  C17_23 
ROOT
HETATM    1  O3  UNK     1      26.117  -9.139  39.463  1.00  0.00    -0.267 OA
HETATM    2  N1  UNK     1      24.736  -7.566  38.385  1.00  0.00    -0.323 N 
HETATM    3  C6  UNK     1      25.918  -8.049  38.929  1.00  0.00     0.262 C 
HETATM    4  H3  UNK     1      24.743  -6.644  37.956  1.00  0.00     0.169 HD
ENDROOT
BRANCH   2   5
HETATM    5  C5  UNK     1      23.482  -8.222  38.323  1.00  0.00     0.035 A 
HETATM    6  C11 UNK     1      22.634  -8.162  39.416  1.00  0.00     0.030 A 
HETATM    7  C13 UNK     1      21.398  -8.807  39.355  1.00  0.00     0.020 A 
HETATM    8  C10 UNK     1      21.029  -9.499  38.202  1.00  0.00     0.039 A 
HETATM    9  C14 UNK     1      21.896  -9.549  37.110  1.00  0.00     0.020 A 
HETATM   10  C12 UNK     1      23.131  -8.905  37.171  1.00  0.00     0.030 A 
BRANCH   8  11
HETATM   11  C17 UNK     1      19.740 -10.170  38.138  1.00  0.00     0.293 C 
HETATM   12  O5  UNK     1      19.571 -11.389  38.113  1.00  0.00    -0.259 OA
BRANCH  11  13
HETATM   13  O2  UNK     1      18.711  -9.264  38.110  1.00  0.00    -0.318 OA
BRANCH  13  14
HETATM   14  C18 UNK     1      18.634  -8.427  36.950  1.00  0.00     0.174 C 
HETATM   15  C19 UNK     1      18.446  -6.990  37.391  1.00  0.00     0.034 C 
ENDBRANCH  13  14
ENDBRANCH  11  13
ENDBRANCH   8  11
ENDBRANCH   2   5
BRANCH   3  16
HETATM   16  C2  UNK     1      27.017  -7.084  38.811  1.00  0.00     0.108 A 
HETATM   17  C4  UNK     1      28.246  -7.600  38.685  1.00  0.00     0.037 A 
HETATM   18  C1  UNK     1      29.400  -6.723  38.562  1.00  0.00    -0.001 A 
HETATM   19  C3  UNK     1      29.204  -5.346  38.577  1.00  0.00     0.089 A 
HETATM   20  C7  UNK     1      30.700  -7.218  38.429  1.00  0.00     0.014 A 
HETATM   21  O1  UNK     1      27.908  -4.809  38.709  1.00  0.00    -0.274 OA
HETATM   22  C9  UNK     1      30.266  -4.452  38.464  1.00  0.00     0.038 A 
HETATM   23  C8  UNK     1      26.784  -5.623  38.829  1.00  0.00     0.304 A 
HETATM   24  O4  UNK     1      25.661  -5.147  38.944  1.00  0.00    -0.259 OA
HETATM   25  C16 UNK     1      31.559  -4.953  38.332  1.00  0.00     0.003 A 
HETATM   26  C15 UNK     1      31.776  -6.332  38.315  1.00  0.00     0.001 A 
ENDBRANCH   3  16
TORSDOF 5
ENDMDL
MODEL 5
REMARK VINA RESULT:      -8.3      7.896     10.239
REMARK  5 active torsions:
REMARK  status: ('A' for Active; 'I' for Inactive)
REMARK    1  A    between atoms: C17_23  and  O2_2 
REMARK    2  A    between atoms: C18_24  and  O2_2 
REMARK    3  A    between atoms: C5_11  and  N1_6 
REMARK       I    between atoms: C6_12  and  N1_6 
REMARK    4  A    between atoms: C2_8  and  C6_12 
REMARK    5  A    between atoms: C10_16  and  C17_23 
ROOT
HETATM    1  O3  UNK     1      21.395  -4.146  37.180  1.00  0.00    -0.267 OA
HETATM    2  N1  UNK     1      19.126  -4.048  36.559  1.00  0.00    -0.323 N 
HETATM    3  C6  UNK     1      20.326  -4.671  36.873  1.00  0.00     0.262 C 
HETATM    4  H3  UNK     1      18.319  -4.631  36.346  1.00  0.00     0.169 HD
ENDROOT
BRANCH   2   5
HETATM    5  C5  UNK     1      18.859  -2.657  36.517  1.00  0.00     0.035 A 
HETATM    6  C11 UNK     1      18.149  -2.075  37.553  1.00  0.00     0.030 A 
HETATM    7  C13 UNK     1      17.887  -0.705  37.514  1.00  0.00     0.020 A 
HETATM    8  C10 UNK     1      18.340   0.061  36.440  1.00  0.00     0.039 A 
HETATM    9  C14 UNK     1      19.055  -0.543  35.405  1.00  0.00     0.020 A 
HETATM   10  C12 UNK     1      19.316  -1.912  35.444  1.00  0.00     0.030 A 
BRANCH   8  11
HETATM   11  C17 UNK     1      18.068   1.489  36.400  1.00  0.00     0.293 C 
HETATM   12  O5  UNK     1      17.209   2.071  37.063  1.00  0.00    -0.259 OA
BRANCH  11  13
HETATM   13  O2  UNK     1      18.901   2.127  35.517  1.00  0.00    -0.318 OA
BRANCH  13  14
HETATM   14  C18 UNK     1      18.270   2.969  34.544  1.00  0.00     0.174 C 
HETATM   15  C19 UNK     1      18.200   2.231  33.224  1.00  0.00     0.034 C 
ENDBRANCH  13  14
ENDBRANCH  11  13
ENDBRANCH   8  11
ENDBRANCH   2   5
BRANCH   3  16
HETATM   16  C2  UNK     1      20.223  -6.134  36.812  1.00  0.00     0.108 A 
HETATM   17  C4  UNK     1      20.003  -6.760  37.974  1.00  0.00     0.037 A 
HETATM   18  C1  UNK     1      19.886  -8.209  38.015  1.00  0.00    -0.001 A 
HETATM   19  C3  UNK     1      20.008  -8.928  36.831  1.00  0.00     0.089 A 
HETATM   20  C7  UNK     1      19.656  -8.905  39.205  1.00  0.00     0.014 A 
HETATM   21  O1  UNK     1      20.240  -8.263  35.610  1.00  0.00    -0.274 OA
HETATM   22  C9  UNK     1      19.907 -10.317  36.801  1.00  0.00     0.038 A 
HETATM   23  C8  UNK     1      20.356  -6.877  35.539  1.00  0.00     0.304 A 
HETATM   24  O4  UNK     1      20.559  -6.307  34.473  1.00  0.00    -0.259 OA
HETATM   25  C16 UNK     1      19.678 -11.003  37.992  1.00  0.00     0.003 A 
HETATM   26  C15 UNK     1      19.553 -10.299  39.191  1.00  0.00     0.001 A 
ENDBRANCH   3  16
TORSDOF 5
ENDMDL
MODEL 6
REMARK VINA RESULT:      -8.2      7.029     11.677
REMARK  5 active torsions:
REMARK  status: ('A' for Active; 'I' for Inactive)
REMARK    1  A    between atoms: C17_23  and  O2_2 
REMARK    2  A    between atoms: C18_24  and  O2_2 
REMARK    3  A    between atoms: C5_11  and  N1_6 
REMARK       I    between atoms: C6_12  and  N1_6 
REMARK    4  A    between atoms: C2_8  and  C6_12 
REMARK    5  A    between atoms: C10_16  and  C17_23 
ROOT
HETATM    1  O3  UNK     1      18.909  -1.742  36.499  1.00  0.00    -0.267 OA
HETATM    2  N1  UNK     1      19.833  -3.531  35.278  1.00  0.00    -0.323 N 
HETATM    3  C6  UNK     1      19.312  -2.257  35.457  1.00  0.00     0.262 C 
HETATM    4  H3  UNK     1      20.145  -3.800  34.347  1.00  0.00     0.169 HD
ENDROOT
BRANCH   2   5
HETATM    5  C5  UNK     1      20.018  -4.535  36.259  1.00  0.00     0.035 A 
HETATM    6  C11 UNK     1      19.187  -5.643  36.258  1.00  0.00     0.030 A 
HETATM    7  C13 UNK     1      19.369  -6.633  37.223  1.00  0.00     0.020 A 
HETATM    8  C10 UNK     1      20.380  -6.501  38.175  1.00  0.00     0.039 A 
HETATM    9  C14 UNK     1      21.209  -5.378  38.162  1.00  0.00     0.020 A 
HETATM   10  C12 UNK     1      21.026  -4.389  37.197  1.00  0.00     0.030 A 
BRANCH   8  11
HETATM   11  C17 UNK     1      20.571  -7.534  39.181  1.00  0.00     0.293 C 
HETATM   12  O5  UNK     1      21.558  -7.646  39.909  1.00  0.00    -0.259 OA
BRANCH  11  13
HETATM   13  O2  UNK     1      19.499  -8.387  39.226  1.00  0.00    -0.318 OA
BRANCH  13  14
HETATM   14  C18 UNK     1      19.800  -9.787  39.220  1.00  0.00     0.174 C 
HETATM   15  C19 UNK     1      19.509 -10.348  37.844  1.00  0.00     0.034 C 
ENDBRANCH  13  14
ENDBRANCH  11  13
ENDBRANCH   8  11
ENDBRANCH   2   5
BRANCH   3  16
HETATM   16  C2  UNK     1      19.273  -1.493  34.205  1.00  0.00     0.108 A 
HETATM   17  C4  UNK     1      19.861  -2.063  33.146  1.00  0.00     0.037 A 
HETATM   18  C1  UNK     1      19.875  -1.382  31.861  1.00  0.00    -0.001 A 
HETATM   19  C3  UNK     1      19.269  -0.135  31.753  1.00  0.00     0.089 A 
HETATM   20  C7  UNK     1      20.477  -1.939  30.729  1.00  0.00     0.014 A 
HETATM   21  O1  UNK     1      18.651   0.460  32.871  1.00  0.00    -0.274 OA
HETATM   22  C9  UNK     1      19.247   0.569  30.551  1.00  0.00     0.038 A 
HETATM   23  C8  UNK     1      18.622  -0.167  34.114  1.00  0.00     0.304 A 
HETATM   24  O4  UNK     1      18.082   0.358  35.081  1.00  0.00    -0.259 OA
HETATM   25  C16 UNK     1      19.850   0.007  29.428  1.00  0.00     0.003 A 
HETATM   26  C15 UNK     1      20.463  -1.244  29.517  1.00  0.00     0.001 A 
ENDBRANCH   3  16
TORSDOF 5
ENDMDL
MODEL 7
REMARK VINA RESULT:      -8.2     14.686     20.330
REMARK  5 active torsions:
REMARK  status: ('A' for Active; 'I' for Inactive)
REMARK    1  A    between atoms: C17_23  and  O2_2 
REMARK    2  A    between atoms: C18_24  and  O2_2 
REMARK    3  A    between atoms: C5_11  and  N1_6 
REMARK       I    between atoms: C6_12  and  N1_6 
REMARK    4  A    between atoms: C2_8  and  C6_12 
REMARK    5  A    between atoms: C10_16  and  C17_23 
ROOT
HETATM    1  O3  UNK     1      17.846  -3.122  15.791  1.00  0.00    -0.267 OA
HETATM    2  N1  UNK     1      20.090  -2.992  15.087  1.00  0.00    -0.323 N 
HETATM    3  C6  UNK     1      18.904  -2.515  15.628  1.00  0.00     0.262 C 
HETATM    4  H3  UNK     1      20.888  -2.363  15.042  1.00  0.00     0.169 HD
ENDROOT
BRANCH   2   5
HETATM    5  C5  UNK     1      20.352  -4.294  14.594  1.00  0.00     0.035 A 
HETATM    6  C11 UNK     1      20.078  -4.582  13.268  1.00  0.00     0.030 A 
HETATM    7  C13 UNK     1      20.338  -5.864  12.782  1.00  0.00     0.020 A 
HETATM    8  C10 UNK     1      20.869  -6.836  13.628  1.00  0.00     0.039 A 
HETATM    9  C14 UNK     1      21.140  -6.528  14.962  1.00  0.00     0.020 A 
HETATM   10  C12 UNK     1      20.880  -5.248  15.448  1.00  0.00     0.030 A 
BRANCH   8  11
HETATM   11  C17 UNK     1      21.141  -8.172  13.121  1.00  0.00     0.293 C 
HETATM   12  O5  UNK     1      20.372  -8.844  12.434  1.00  0.00    -0.259 OA
BRANCH  11  13
HETATM   13  O2  UNK     1      22.384  -8.605  13.505  1.00  0.00    -0.318 OA
BRANCH  13  14
HETATM   14  C18 UNK     1      23.015  -9.566  12.651  1.00  0.00     0.174 C 
HETATM   15  C19 UNK     1      23.630  -8.846  11.468  1.00  0.00     0.034 C 
ENDBRANCH  13  14
ENDBRANCH  11  13
ENDBRANCH   8  11
ENDBRANCH   2   5
BRANCH   3  16
HETATM   16  C2  UNK     1      19.006  -1.108  16.033  1.00  0.00     0.108 A 
HETATM   17  C4  UNK     1      18.849  -0.855  17.338  1.00  0.00     0.037 A 
HETATM   18  C1  UNK     1      18.933   0.508  17.836  1.00  0.00    -0.001 A 
HETATM   19  C3  UNK     1      19.178   1.540  16.936  1.00  0.00     0.089 A 
HETATM   20  C7  UNK     1      18.776   0.819  19.189  1.00  0.00     0.014 A 
HETATM   21  O1  UNK     1      19.344   1.268  15.563  1.00  0.00    -0.274 OA
HETATM   22  C9  UNK     1      19.270   2.868  17.347  1.00  0.00     0.038 A 
HETATM   23  C8  UNK     1      19.269  -0.027  15.057  1.00  0.00     0.304 A 
HETATM   24  O4  UNK     1      19.413  -0.254  13.861  1.00  0.00    -0.259 OA
HETATM   25  C16 UNK     1      19.111   3.168  18.698  1.00  0.00     0.003 A 
HETATM   26  C15 UNK     1      18.865   2.147  19.617  1.00  0.00     0.001 A 
ENDBRANCH   3  16
TORSDOF 5
ENDMDL
MODEL 8
REMARK VINA RESULT:      -8.1      1.946      9.265
REMARK  5 active torsions:
REMARK  status: ('A' for Active; 'I' for Inactive)
REMARK    1  A    between atoms: C17_23  and  O2_2 
REMARK    2  A    between atoms: C18_24  and  O2_2 
REMARK    3  A    between atoms: C5_11  and  N1_6 
REMARK       I    between atoms: C6_12  and  N1_6 
REMARK    4  A    between atoms: C2_8  and  C6_12 
REMARK    5  A    between atoms: C10_16  and  C17_23 
ROOT
HETATM    1  O3  UNK     1      18.968   5.986  33.492  1.00  0.00    -0.267 OA
HETATM    2  N1  UNK     1      17.395   4.889  32.125  1.00  0.00    -0.323 N 
HETATM    3  C6  UNK     1      17.915   5.949  32.856  1.00  0.00     0.262 C 
HETATM    4  H3  UNK     1      16.515   5.028  31.633  1.00  0.00     0.169 HD
ENDROOT
BRANCH   2   5
HETATM    5  C5  UNK     1      17.959   3.603  31.947  1.00  0.00     0.035 A 
HETATM    6  C11 UNK     1      18.017   2.735  33.025  1.00  0.00     0.030 A 
HETATM    7  C13 UNK     1      18.572   1.467  32.850  1.00  0.00     0.020 A 
HETATM    8  C10 UNK     1      19.058   1.085  31.600  1.00  0.00     0.039 A 
HETATM    9  C14 UNK     1      18.991   1.971  30.525  1.00  0.00     0.020 A 
HETATM   10  C12 UNK     1      18.437   3.239  30.700  1.00  0.00     0.030 A 
BRANCH   8  11
HETATM   11  C17 UNK     1      19.635  -0.237  31.417  1.00  0.00     0.293 C 
HETATM   12  O5  UNK     1      19.186  -1.282  31.890  1.00  0.00    -0.259 OA
BRANCH  11  13
HETATM   13  O2  UNK     1      20.762  -0.184  30.638  1.00  0.00    -0.318 OA
BRANCH  13  14
HETATM   14  C18 UNK     1      20.838  -1.131  29.566  1.00  0.00     0.174 C 
HETATM   15  C19 UNK     1      19.870  -0.722  28.476  1.00  0.00     0.034 C 
ENDBRANCH  13  14
ENDBRANCH  11  13
ENDBRANCH   8  11
ENDBRANCH   2   5
BRANCH   3  16
HETATM   16  C2  UNK     1      17.048   7.131  32.812  1.00  0.00     0.108 A 
HETATM   17  C4  UNK     1      16.627   7.600  33.993  1.00  0.00     0.037 A 
HETATM   18  C1  UNK     1      15.763   8.768  34.052  1.00  0.00    -0.001 A 
HETATM   19  C3  UNK     1      15.384   9.386  32.865  1.00  0.00     0.089 A 
HETATM   20  C7  UNK     1      15.300   9.292  35.262  1.00  0.00     0.014 A 
HETATM   21  O1  UNK     1      15.830   8.888  31.624  1.00  0.00    -0.274 OA
HETATM   22  C9  UNK     1      14.558  10.508  32.852  1.00  0.00     0.038 A 
HETATM   23  C8  UNK     1      16.657   7.772  31.536  1.00  0.00     0.304 A 
HETATM   24  O4  UNK     1      17.041   7.345  30.452  1.00  0.00    -0.259 OA
HETATM   25  C16 UNK     1      14.101  11.023  34.062  1.00  0.00     0.003 A 
HETATM   26  C15 UNK     1      14.470  10.418  35.265  1.00  0.00     0.001 A 
ENDBRANCH   3  16
TORSDOF 5
ENDMDL
MODEL 9
REMARK VINA RESULT:      -8.0      6.828      9.981
REMARK  5 active torsions:
REMARK  status: ('A' for Active; 'I' for Inactive)
REMARK    1  A    between atoms: C17_23  and  O2_2 
REMARK    2  A    between atoms: C18_24  and  O2_2 
REMARK    3  A    between atoms: C5_11  and  N1_6 
REMARK       I    between atoms: C6_12  and  N1_6 
REMARK    4  A    between atoms: C2_8  and  C6_12 
REMARK    5  A    between atoms: C10_16  and  C17_23 
ROOT
HETATM    1  O3  UNK     1      20.575  -2.228  36.782  1.00  0.00    -0.267 OA
HETATM    2  N1  UNK     1      20.045  -3.496  34.870  1.00  0.00    -0.323 N 
HETATM    3  C6  UNK     1      20.349  -3.293  36.209  1.00  0.00     0.262 C 
HETATM    4  H3  UNK     1      19.861  -4.446  34.555  1.00  0.00     0.169 HD
ENDROOT
BRANCH   2   5
HETATM    5  C5  UNK     1      19.927  -2.518  33.852  1.00  0.00     0.035 A 
HETATM    6  C11 UNK     1      20.786  -2.565  32.768  1.00  0.00     0.030 A 
HETATM    7  C13 UNK     1      20.670  -1.603  31.764  1.00  0.00     0.020 A 
HETATM    8  C10 UNK     1      19.697  -0.609  31.860  1.00  0.00     0.039 A 
HETATM    9  C14 UNK     1      18.839  -0.577  32.960  1.00  0.00     0.020 A 
HETATM   10  C12 UNK     1      18.955  -1.538  33.963  1.00  0.00     0.030 A 
BRANCH   8  11
HETATM   11  C17 UNK     1      19.575   0.393  30.813  1.00  0.00     0.293 C 
HETATM   12  O5  UNK     1      20.353   0.538  29.871  1.00  0.00    -0.259 OA
BRANCH  11  13
HETATM   13  O2  UNK     1      18.465   1.176  31.003  1.00  0.00    -0.318 OA
BRANCH  13  14
HETATM   14  C18 UNK     1      18.434   2.418  30.290  1.00  0.00     0.174 C 
HETATM   15  C19 UNK     1      18.375   3.557  31.286  1.00  0.00     0.034 C 
ENDBRANCH  13  14
ENDBRANCH  11  13
ENDBRANCH   8  11
ENDBRANCH   2   5
BRANCH   3  16
HETATM   16  C2  UNK     1      20.383  -4.549  36.966  1.00  0.00     0.108 A 
HETATM   17  C4  UNK     1      21.517  -4.810  37.628  1.00  0.00     0.037 A 
HETATM   18  C1  UNK     1      21.646  -6.031  38.406  1.00  0.00    -0.001 A 
HETATM   19  C3  UNK     1      20.576  -6.918  38.451  1.00  0.00     0.089 A 
HETATM   20  C7  UNK     1      22.811  -6.345  39.113  1.00  0.00     0.014 A 
HETATM   21  O1  UNK     1      19.384  -6.638  37.753  1.00  0.00    -0.274 OA
HETATM   22  C9  UNK     1      20.635  -8.105  39.178  1.00  0.00     0.038 A 
HETATM   23  C8  UNK     1      19.230  -5.477  36.999  1.00  0.00     0.304 A 
HETATM   24  O4  UNK     1      18.190  -5.241  36.395  1.00  0.00    -0.259 OA
HETATM   25  C16 UNK     1      21.799  -8.410  39.878  1.00  0.00     0.003 A 
HETATM   26  C15 UNK     1      22.885  -7.533  39.846  1.00  0.00     0.001 A 
ENDBRANCH   3  16
TORSDOF 5
ENDMDL
MODEL 10
REMARK VINA RESULT:      -7.9      1.788      9.633
REMARK  5 active torsions:
REMARK  status: ('A' for Active; 'I' for Inactive)
REMARK    1  A    between atoms: C17_23  and  O2_2 
REMARK    2  A    between atoms: C18_24  and  O2_2 
REMARK    3  A    between atoms: C5_11  and  N1_6 
REMARK       I    between atoms: C6_12  and  N1_6 
REMARK    4  A    between atoms: C2_8  and  C6_12 
REMARK    5  A    between atoms: C10_16  and  C17_23 
ROOT
HETATM    1  O3  UNK     1      19.333   6.616  34.109  1.00  0.00    -0.267 OA
HETATM    2  N1  UNK     1      17.717   6.376  32.413  1.00  0.00    -0.323 N 
HETATM    3  C6  UNK     1      18.340   6.994  33.488  1.00  0.00     0.262 C 
HETATM    4  H3  UNK     1      16.911   6.833  31.993  1.00  0.00     0.169 HD
ENDROOT
BRANCH   2   5
HETATM    5  C5  UNK     1      18.083   5.160  31.784  1.00  0.00     0.035 A 
HETATM    6  C11 UNK     1      18.632   5.195  30.514  1.00  0.00     0.030 A 
HETATM    7  C13 UNK     1      18.994   3.999  29.894  1.00  0.00     0.020 A 
HETATM    8  C10 UNK     1      18.802   2.786  30.555  1.00  0.00     0.039 A 
HETATM    9  C14 UNK     1      18.248   2.769  31.836  1.00  0.00     0.020 A 
HETATM   10  C12 UNK     1      17.886   3.965  32.454  1.00  0.00     0.030 A 
BRANCH   8  11
HETATM   11  C17 UNK     1      19.180   1.538  29.911  1.00  0.00     0.293 C 
HETATM   12  O5  UNK     1      19.034   1.280  28.716  1.00  0.00    -0.259 OA
BRANCH  11  13
HETATM   13  O2  UNK     1      19.732   0.663  30.810  1.00  0.00    -0.318 OA
BRANCH  13  14
HETATM   14  C18 UNK     1      20.642  -0.306  30.277  1.00  0.00     0.174 C 
HETATM   15  C19 UNK     1      20.177  -1.691  30.674  1.00  0.00     0.034 C 
ENDBRANCH  13  14
ENDBRANCH  11  13
ENDBRANCH   8  11
ENDBRANCH   2   5
BRANCH   3  16
HETATM   16  C2  UNK     1      17.677   8.247  33.868  1.00  0.00     0.108 A 
HETATM   17  C4  UNK     1      18.409   9.362  33.754  1.00  0.00     0.037 A 
HETATM   18  C1  UNK     1      17.838  10.652  34.107  1.00  0.00    -0.001 A 
HETATM   19  C3  UNK     1      16.525  10.706  34.563  1.00  0.00     0.089 A 
HETATM   20  C7  UNK     1      18.565  11.841  34.005  1.00  0.00     0.014 A 
HETATM   21  O1  UNK     1      15.759   9.528  34.679  1.00  0.00    -0.274 OA
HETATM   22  C9  UNK     1      15.919  11.909  34.917  1.00  0.00     0.038 A 
HETATM   23  C8  UNK     1      16.277   8.279  34.349  1.00  0.00     0.304 A 
HETATM   24  O4  UNK     1      15.604   7.260  34.455  1.00  0.00    -0.259 OA
HETATM   25  C16 UNK     1      16.651  13.090  34.812  1.00  0.00     0.003 A 
HETATM   26  C15 UNK     1      17.970  13.056  34.358  1.00  0.00     0.001 A 
ENDBRANCH   3  16
TORSDOF 5
ENDMDL
