MODEL 1
REMARK VINA RESULT:      -8.1      0.000      0.000
REMARK  3 active torsions:
REMARK  status: ('A' for Active; 'I' for Inactive)
REMARK    1  A    between atoms: C4_8  and  O2_2 
REMARK    2  A    between atoms: C9_13  and  O3_3 
REMARK    3  A    between atoms: C3_7  and  C6_10 
ROOT
HETATM    1  O1  UNK     1      18.555   0.163  33.014  1.00  0.00    -0.306 OA
HETATM    2  O4  UNK     1      20.738  -3.269  33.262  1.00  0.00    -0.284 OA
HETATM    3  C1  UNK     1      19.929  -1.509  31.916  1.00  0.00     0.051 A 
HETATM    4  C2  UNK     1      19.168  -0.342  31.897  1.00  0.00     0.093 A 
HETATM    5  C3  UNK     1      18.708  -0.511  34.216  1.00  0.00     0.123 A 
HETATM    6  C4  UNK     1      19.408  -1.650  34.367  1.00  0.00     0.154 A 
HETATM    7  C5  UNK     1      20.086  -2.236  33.185  1.00  0.00     0.221 A 
HETATM    8  C7  UNK     1      19.003   0.364  30.705  1.00  0.00     0.075 A 
HETATM    9  C8  UNK     1      20.532  -1.977  30.745  1.00  0.00     0.021 A 
HETATM   10  C9  UNK     1      19.603  -0.100  29.535  1.00  0.00     0.070 A 
HETATM   11  C10 UNK     1      20.365  -1.269  29.555  1.00  0.00     0.038 A 
ENDROOT
BRANCH   5  12
HETATM   12  C6  UNK     1      17.999   0.137  35.333  1.00  0.00     0.001 A 
HETATM   13  C11 UNK     1      18.675   1.029  36.166  1.00  0.00     0.014 A 
HETATM   14  C13 UNK     1      18.003   1.642  37.223  1.00  0.00     0.001 A 
HETATM   15  C15 UNK     1      16.655   1.363  37.448  1.00  0.00     0.000 A 
HETATM   16  C14 UNK     1      15.979   0.471  36.617  1.00  0.00     0.001 A 
HETATM   17  C12 UNK     1      16.651  -0.142  35.559  1.00  0.00     0.014 A 
ENDBRANCH   5  12
BRANCH   6  18
HETATM   18  O2  UNK     1      19.515  -2.313  35.570  1.00  0.00    -0.350 OA
HETATM   19  C16 UNK     1      20.801  -2.133  36.132  1.00  0.00     0.210 C 
ENDBRANCH   6  18
BRANCH  10  20
HETATM   20  O3  UNK     1      19.444   0.588  28.371  1.00  0.00    -0.356 OA
HETATM   21  C17 UNK     1      18.306   1.443  28.272  1.00  0.00     0.210 C 
ENDBRANCH  10  20
TORSDOF 3
ENDMDL
MODEL 2
REMARK VINA RESULT:      -7.8      1.987      3.856
REMARK  3 active torsions:
REMARK  status: ('A' for Active; 'I' for Inactive)
REMARK    1  A    between atoms: C4_8  and  O2_2 
REMARK    2  A    between atoms: C9_13  and  O3_3 
REMARK    3  A    between atoms: C3_7  and  C6_10 
ROOT
HETATM    1  O1  UNK     1      18.902  -0.052  32.938  1.00  0.00    -0.306 OA
HETATM    2  O4  UNK     1      18.629   3.005  30.259  1.00  0.00    -0.284 OA
HETATM    3  C1  UNK     1      19.326   0.797  30.705  1.00  0.00     0.051 A 
HETATM    4  C2  UNK     1      19.390  -0.209  31.668  1.00  0.00     0.093 A 
HETATM    5  C3  UNK     1      18.309   1.154  33.276  1.00  0.00     0.123 A 
HETATM    6  C4  UNK     1      18.191   2.205  32.445  1.00  0.00     0.154 A 
HETATM    7  C5  UNK     1      18.709   2.084  31.060  1.00  0.00     0.221 A 
HETATM    8  C7  UNK     1      19.972  -1.438  31.355  1.00  0.00     0.075 A 
HETATM    9  C8  UNK     1      19.840   0.580  29.424  1.00  0.00     0.021 A 
HETATM   10  C9  UNK     1      20.487  -1.657  30.077  1.00  0.00     0.070 A 
HETATM   11  C10 UNK     1      20.422  -0.650  29.114  1.00  0.00     0.038 A 
ENDROOT
BRANCH   5  12
HETATM   12  C6  UNK     1      17.828   1.189  34.669  1.00  0.00     0.001 A 
HETATM   13  C11 UNK     1      16.590   0.634  34.995  1.00  0.00     0.014 A 
HETATM   14  C13 UNK     1      16.136   0.667  36.313  1.00  0.00     0.001 A 
HETATM   15  C15 UNK     1      16.920   1.254  37.306  1.00  0.00     0.000 A 
HETATM   16  C14 UNK     1      18.158   1.809  36.982  1.00  0.00     0.001 A 
HETATM   17  C12 UNK     1      18.612   1.776  35.663  1.00  0.00     0.014 A 
ENDBRANCH   5  12
BRANCH   6  18
HETATM   18  O2  UNK     1      17.624   3.403  32.822  1.00  0.00    -0.350 OA
HETATM   19  C16 UNK     1      18.622   4.353  33.144  1.00  0.00     0.210 C 
ENDBRANCH   6  18
BRANCH  10  20
HETATM   20  O3  UNK     1      21.055  -2.855  29.770  1.00  0.00    -0.356 OA
HETATM   21  C17 UNK     1      21.342  -3.736  30.856  1.00  0.00     0.210 C 
ENDBRANCH  10  20
TORSDOF 3
ENDMDL
MODEL 3
REMARK VINA RESULT:      -7.5     24.921     27.110
REMARK  3 active torsions:
REMARK  status: ('A' for Active; 'I' for Inactive)
REMARK    1  A    between atoms: C4_8  and  O2_2 
REMARK    2  A    between atoms: C9_13  and  O3_3 
REMARK    3  A    between atoms: C3_7  and  C6_10 
ROOT
HETATM    1  O1  UNK     1      13.038   8.431   8.097  1.00  0.00    -0.306 OA
HETATM    2  O4  UNK     1      14.840   5.843  10.677  1.00  0.00    -0.284 OA
HETATM    3  C1  UNK     1      14.914   7.910   9.545  1.00  0.00     0.051 A 
HETATM    4  C2  UNK     1      14.248   8.750   8.655  1.00  0.00     0.093 A 
HETATM    5  C3  UNK     1      12.447   7.225   8.442  1.00  0.00     0.123 A 
HETATM    6  C4  UNK     1      12.988   6.324   9.281  1.00  0.00     0.154 A 
HETATM    7  C5  UNK     1      14.299   6.624   9.906  1.00  0.00     0.221 A 
HETATM    8  C7  UNK     1      14.812   9.974   8.295  1.00  0.00     0.075 A 
HETATM    9  C8  UNK     1      16.147   8.288  10.083  1.00  0.00     0.021 A 
HETATM   10  C9  UNK     1      16.043  10.355   8.830  1.00  0.00     0.070 A 
HETATM   11  C10 UNK     1      16.710   9.513   9.722  1.00  0.00     0.038 A 
ENDROOT
BRANCH   5  12
HETATM   12  C6  UNK     1      11.152   7.007   7.773  1.00  0.00     0.001 A 
HETATM   13  C11 UNK     1      11.113   6.690   6.415  1.00  0.00     0.014 A 
HETATM   14  C13 UNK     1       9.887   6.483   5.782  1.00  0.00     0.001 A 
HETATM   15  C15 UNK     1       8.701   6.592   6.507  1.00  0.00     0.000 A 
HETATM   16  C14 UNK     1       8.739   6.908   7.865  1.00  0.00     0.001 A 
HETATM   17  C12 UNK     1       9.964   7.116   8.498  1.00  0.00     0.014 A 
ENDBRANCH   5  12
BRANCH   6  18
HETATM   18  O2  UNK     1      12.389   5.119   9.579  1.00  0.00    -0.350 OA
HETATM   19  C16 UNK     1      12.574   4.191   8.526  1.00  0.00     0.210 C 
ENDBRANCH   6  18
BRANCH  10  20
HETATM   20  O3  UNK     1      16.595  11.549   8.482  1.00  0.00    -0.356 OA
HETATM   21  C17 UNK     1      15.942  12.292   7.453  1.00  0.00     0.210 C 
ENDBRANCH  10  20
TORSDOF 3
ENDMDL
MODEL 4
REMARK VINA RESULT:      -7.5     24.923     27.114
REMARK  3 active torsions:
REMARK  status: ('A' for Active; 'I' for Inactive)
REMARK    1  A    between atoms: C4_8  and  O2_2 
REMARK    2  A    between atoms: C9_13  and  O3_3 
REMARK    3  A    between atoms: C3_7  and  C6_10 
ROOT
HETATM    1  O1  UNK     1      13.040   8.429   8.092  1.00  0.00    -0.306 OA
HETATM    2  O4  UNK     1      14.844   5.848  10.677  1.00  0.00    -0.284 OA
HETATM    3  C1  UNK     1      14.917   7.912   9.540  1.00  0.00     0.051 A 
HETATM    4  C2  UNK     1      14.251   8.750   8.648  1.00  0.00     0.093 A 
HETATM    5  C3  UNK     1      12.449   7.225   8.440  1.00  0.00     0.123 A 
HETATM    6  C4  UNK     1      12.992   6.325   9.281  1.00  0.00     0.154 A 
HETATM    7  C5  UNK     1      14.303   6.627   9.904  1.00  0.00     0.221 A 
HETATM    8  C7  UNK     1      14.814   9.974   8.285  1.00  0.00     0.075 A 
HETATM    9  C8  UNK     1      16.151   8.292  10.076  1.00  0.00     0.021 A 
HETATM   10  C9  UNK     1      16.045  10.356   8.819  1.00  0.00     0.070 A 
HETATM   11  C10 UNK     1      16.712   9.517   9.712  1.00  0.00     0.038 A 
ENDROOT
BRANCH   5  12
HETATM   12  C6  UNK     1      11.155   7.004   7.772  1.00  0.00     0.001 A 
HETATM   13  C11 UNK     1       9.967   7.125   8.494  1.00  0.00     0.014 A 
HETATM   14  C13 UNK     1       8.741   6.916   7.861  1.00  0.00     0.001 A 
HETATM   15  C15 UNK     1       8.704   6.587   6.506  1.00  0.00     0.000 A 
HETATM   16  C14 UNK     1       9.890   6.467   5.783  1.00  0.00     0.001 A 
HETATM   17  C12 UNK     1      11.116   6.675   6.416  1.00  0.00     0.014 A 
ENDBRANCH   5  12
BRANCH   6  18
HETATM   18  O2  UNK     1      12.393   5.121   9.581  1.00  0.00    -0.350 OA
HETATM   19  C16 UNK     1      12.579   4.190   8.532  1.00  0.00     0.210 C 
ENDBRANCH   6  18
BRANCH  10  20
HETATM   20  O3  UNK     1      16.597  11.549   8.467  1.00  0.00    -0.356 OA
HETATM   21  C17 UNK     1      15.914  12.314   7.475  1.00  0.00     0.210 C 
ENDBRANCH  10  20
TORSDOF 3
ENDMDL
MODEL 5
REMARK VINA RESULT:      -7.3     26.151     27.777
REMARK  3 active torsions:
REMARK  status: ('A' for Active; 'I' for Inactive)
REMARK    1  A    between atoms: C4_8  and  O2_2 
REMARK    2  A    between atoms: C9_13  and  O3_3 
REMARK    3  A    between atoms: C3_7  and  C6_10 
ROOT
HETATM    1  O1  UNK     1       7.715   4.158   8.698  1.00  0.00    -0.306 OA
HETATM    2  O4  UNK     1       6.585   6.360  11.935  1.00  0.00    -0.284 OA
HETATM    3  C1  UNK     1       6.348   4.369  10.692  1.00  0.00     0.051 A 
HETATM    4  C2  UNK     1       6.775   3.668   9.566  1.00  0.00     0.093 A 
HETATM    5  C3  UNK     1       8.271   5.401   8.957  1.00  0.00     0.123 A 
HETATM    6  C4  UNK     1       7.940   6.182  10.001  1.00  0.00     0.154 A 
HETATM    7  C5  UNK     1       6.925   5.694  10.966  1.00  0.00     0.221 A 
HETATM    8  C7  UNK     1       6.242   2.410   9.284  1.00  0.00     0.075 A 
HETATM    9  C8  UNK     1       5.386   3.819  11.544  1.00  0.00     0.021 A 
HETATM   10  C9  UNK     1       5.281   1.857  10.132  1.00  0.00     0.070 A 
HETATM   11  C10 UNK     1       4.854   2.561  11.259  1.00  0.00     0.038 A 
ENDROOT
BRANCH   5  12
HETATM   12  C6  UNK     1       9.265   5.808   7.947  1.00  0.00     0.001 A 
HETATM   13  C11 UNK     1      10.624   5.794   8.260  1.00  0.00     0.014 A 
HETATM   14  C13 UNK     1      11.564   6.179   7.304  1.00  0.00     0.001 A 
HETATM   15  C15 UNK     1      11.145   6.578   6.035  1.00  0.00     0.000 A 
HETATM   16  C14 UNK     1       9.786   6.592   5.721  1.00  0.00     0.001 A 
HETATM   17  C12 UNK     1       8.846   6.207   6.677  1.00  0.00     0.014 A 
ENDBRANCH   5  12
BRANCH   6  18
HETATM   18  O2  UNK     1       8.489   7.428  10.212  1.00  0.00    -0.350 OA
HETATM   19  C16 UNK     1       7.684   8.438   9.634  1.00  0.00     0.210 C 
ENDBRANCH   6  18
BRANCH  10  20
HETATM   20  O3  UNK     1       4.760   0.630   9.860  1.00  0.00    -0.356 OA
HETATM   21  C17 UNK     1       5.060   0.065   8.584  1.00  0.00     0.210 C 
ENDBRANCH  10  20
TORSDOF 3
ENDMDL
MODEL 6
REMARK VINA RESULT:      -7.1      1.894      6.567
REMARK  3 active torsions:
REMARK  status: ('A' for Active; 'I' for Inactive)
REMARK    1  A    between atoms: C4_8  and  O2_2 
REMARK    2  A    between atoms: C9_13  and  O3_3 
REMARK    3  A    between atoms: C3_7  and  C6_10 
ROOT
HETATM    1  O1  UNK     1      19.569  -1.438  33.662  1.00  0.00    -0.306 OA
HETATM    2  O4  UNK     1      17.247   1.299  35.590  1.00  0.00    -0.284 OA
HETATM    3  C1  UNK     1      18.518  -0.683  35.715  1.00  0.00     0.051 A 
HETATM    4  C2  UNK     1      19.303  -1.585  34.998  1.00  0.00     0.093 A 
HETATM    5  C3  UNK     1      19.044  -0.340  32.999  1.00  0.00     0.123 A 
HETATM    6  C4  UNK     1      18.267   0.596  33.572  1.00  0.00     0.154 A 
HETATM    7  C5  UNK     1      17.948   0.477  35.015  1.00  0.00     0.221 A 
HETATM    8  C7  UNK     1      19.853  -2.694  35.640  1.00  0.00     0.075 A 
HETATM    9  C8  UNK     1      18.280  -0.883  37.078  1.00  0.00     0.021 A 
HETATM   10  C9  UNK     1      19.618  -2.898  37.000  1.00  0.00     0.070 A 
HETATM   11  C10 UNK     1      18.832  -1.994  37.717  1.00  0.00     0.038 A 
ENDROOT
BRANCH   5  12
HETATM   12  C6  UNK     1      19.406  -0.304  31.571  1.00  0.00     0.001 A 
HETATM   13  C11 UNK     1      19.110   0.823  30.804  1.00  0.00     0.014 A 
HETATM   14  C13 UNK     1      19.452   0.857  29.452  1.00  0.00     0.001 A 
HETATM   15  C15 UNK     1      20.091  -0.236  28.867  1.00  0.00     0.000 A 
HETATM   16  C14 UNK     1      20.388  -1.363  29.633  1.00  0.00     0.001 A 
HETATM   17  C12 UNK     1      20.045  -1.397  30.984  1.00  0.00     0.014 A 
ENDBRANCH   5  12
BRANCH   6  18
HETATM   18  O2  UNK     1      17.734   1.660  32.876  1.00  0.00    -0.350 OA
HETATM   19  C16 UNK     1      18.274   2.884  33.335  1.00  0.00     0.210 C 
ENDBRANCH   6  18
BRANCH  10  20
HETATM   20  O3  UNK     1      20.155  -3.979  37.628  1.00  0.00    -0.356 OA
HETATM   21  C17 UNK     1      20.125  -5.220  36.925  1.00  0.00     0.210 C 
ENDBRANCH  10  20
TORSDOF 3
ENDMDL
MODEL 7
REMARK VINA RESULT:      -6.9      9.832     12.003
REMARK  3 active torsions:
REMARK  status: ('A' for Active; 'I' for Inactive)
REMARK    1  A    between atoms: C4_8  and  O2_2 
REMARK    2  A    between atoms: C9_13  and  O3_3 
REMARK    3  A    between atoms: C3_7  and  C6_10 
ROOT
HETATM    1  O1  UNK     1      18.198  10.309  33.528  1.00  0.00    -0.306 OA
HETATM    2  O4  UNK     1      14.619  10.066  35.461  1.00  0.00    -0.284 OA
HETATM    3  C1  UNK     1      16.400  11.423  34.718  1.00  0.00     0.051 A 
HETATM    4  C2  UNK     1      17.622  11.438  34.048  1.00  0.00     0.093 A 
HETATM    5  C3  UNK     1      17.531   9.102  33.665  1.00  0.00     0.123 A 
HETATM    6  C4  UNK     1      16.352   8.950  34.295  1.00  0.00     0.154 A 
HETATM    7  C5  UNK     1      15.692  10.143  34.878  1.00  0.00     0.221 A 
HETATM    8  C7  UNK     1      18.312  12.640  33.885  1.00  0.00     0.075 A 
HETATM    9  C8  UNK     1      15.859  12.606  35.228  1.00  0.00     0.021 A 
HETATM   10  C9  UNK     1      17.776  13.823  34.393  1.00  0.00     0.070 A 
HETATM   11  C10 UNK     1      16.552  13.806  35.064  1.00  0.00     0.038 A 
ENDROOT
BRANCH   5  12
HETATM   12  C6  UNK     1      18.259   7.971  33.063  1.00  0.00     0.001 A 
HETATM   13  C11 UNK     1      19.418   7.485  33.668  1.00  0.00     0.014 A 
HETATM   14  C13 UNK     1      20.106   6.414  33.098  1.00  0.00     0.001 A 
HETATM   15  C15 UNK     1      19.636   5.829  31.923  1.00  0.00     0.000 A 
HETATM   16  C14 UNK     1      18.478   6.314  31.317  1.00  0.00     0.001 A 
HETATM   17  C12 UNK     1      17.789   7.385  31.886  1.00  0.00     0.014 A 
ENDBRANCH   5  12
BRANCH   6  18
HETATM   18  O2  UNK     1      15.731   7.729  34.442  1.00  0.00    -0.350 OA
HETATM   19  C16 UNK     1      14.631   7.614  33.559  1.00  0.00     0.210 C 
ENDBRANCH   6  18
BRANCH  10  20
HETATM   20  O3  UNK     1      18.448  14.996  34.235  1.00  0.00    -0.356 OA
HETATM   21  C17 UNK     1      19.236  15.140  33.053  1.00  0.00     0.210 C 
ENDBRANCH  10  20
TORSDOF 3
ENDMDL
MODEL 8
REMARK VINA RESULT:      -6.8     11.157     13.523
REMARK  3 active torsions:
REMARK  status: ('A' for Active; 'I' for Inactive)
REMARK    1  A    between atoms: C4_8  and  O2_2 
REMARK    2  A    between atoms: C9_13  and  O3_3 
REMARK    3  A    between atoms: C3_7  and  C6_10 
ROOT
HETATM    1  O1  UNK     1      27.854  -7.710  35.064  1.00  0.00    -0.306 OA
HETATM    2  O4  UNK     1      30.924  -5.246  36.114  1.00  0.00    -0.284 OA
HETATM    3  C1  UNK     1      29.176  -6.667  36.811  1.00  0.00     0.051 A 
HETATM    4  C2  UNK     1      28.139  -7.496  36.387  1.00  0.00     0.093 A 
HETATM    5  C3  UNK     1      28.638  -7.084  34.107  1.00  0.00     0.123 A 
HETATM    6  C4  UNK     1      29.660  -6.255  34.384  1.00  0.00     0.154 A 
HETATM    7  C5  UNK     1      30.004  -5.990  35.802  1.00  0.00     0.221 A 
HETATM    8  C7  UNK     1      27.339  -8.148  37.325  1.00  0.00     0.075 A 
HETATM    9  C8  UNK     1      29.422  -6.486  38.175  1.00  0.00     0.021 A 
HETATM   10  C9  UNK     1      27.581  -7.970  38.688  1.00  0.00     0.070 A 
HETATM   11  C10 UNK     1      28.619  -7.140  39.111  1.00  0.00     0.038 A 
ENDROOT
BRANCH   5  12
HETATM   12  C6  UNK     1      28.224  -7.399  32.728  1.00  0.00     0.001 A 
HETATM   13  C11 UNK     1      28.652  -8.581  32.124  1.00  0.00     0.014 A 
HETATM   14  C13 UNK     1      28.259  -8.879  30.819  1.00  0.00     0.001 A 
HETATM   15  C15 UNK     1      27.440  -7.994  30.118  1.00  0.00     0.000 A 
HETATM   16  C14 UNK     1      27.012  -6.812  30.722  1.00  0.00     0.001 A 
HETATM   17  C12 UNK     1      27.404  -6.515  32.027  1.00  0.00     0.014 A 
ENDBRANCH   5  12
BRANCH   6  18
HETATM   18  O2  UNK     1      30.400  -5.622  33.408  1.00  0.00    -0.350 OA
HETATM   19  C16 UNK     1      31.547  -6.381  33.074  1.00  0.00     0.210 C 
ENDBRANCH   6  18
BRANCH  10  20
HETATM   20  O3  UNK     1      26.802  -8.606  39.605  1.00  0.00    -0.356 OA
HETATM   21  C17 UNK     1      27.089  -9.980  39.859  1.00  0.00     0.210 C 
ENDBRANCH  10  20
TORSDOF 3
ENDMDL
MODEL 9
REMARK VINA RESULT:      -6.7     25.136     27.617
REMARK  3 active torsions:
REMARK  status: ('A' for Active; 'I' for Inactive)
REMARK    1  A    between atoms: C4_8  and  O2_2 
REMARK    2  A    between atoms: C9_13  and  O3_3 
REMARK    3  A    between atoms: C3_7  and  C6_10 
ROOT
HETATM    1  O1  UNK     1       7.634   5.489   9.522  1.00  0.00    -0.306 OA
HETATM    2  O4  UNK     1       6.851   9.051  11.338  1.00  0.00    -0.284 OA
HETATM    3  C1  UNK     1       6.380   6.746  11.176  1.00  0.00     0.051 A 
HETATM    4  C2  UNK     1       6.692   5.560  10.515  1.00  0.00     0.093 A 
HETATM    5  C3  UNK     1       8.312   6.645   9.168  1.00  0.00     0.123 A 
HETATM    6  C4  UNK     1       8.099   7.852   9.721  1.00  0.00     0.154 A 
HETATM    7  C5  UNK     1       7.087   7.979  10.797  1.00  0.00     0.221 A 
HETATM    8  C7  UNK     1       6.034   4.377  10.855  1.00  0.00     0.075 A 
HETATM    9  C8  UNK     1       5.411   6.759  12.182  1.00  0.00     0.021 A 
HETATM   10  C9  UNK     1       5.065   4.386  11.859  1.00  0.00     0.070 A 
HETATM   11  C10 UNK     1       4.754   5.575  12.520  1.00  0.00     0.038 A 
ENDROOT
BRANCH   5  12
HETATM   12  C6  UNK     1       9.293   6.429   8.090  1.00  0.00     0.001 A 
HETATM   13  C11 UNK     1      10.622   6.143   8.402  1.00  0.00     0.014 A 
HETATM   14  C13 UNK     1      11.550   5.938   7.381  1.00  0.00     0.001 A 
HETATM   15  C15 UNK     1      11.150   6.020   6.048  1.00  0.00     0.000 A 
HETATM   16  C14 UNK     1       9.821   6.306   5.734  1.00  0.00     0.001 A 
HETATM   17  C12 UNK     1       8.893   6.510   6.755  1.00  0.00     0.014 A 
ENDBRANCH   5  12
BRANCH   6  18
HETATM   18  O2  UNK     1       8.768   8.989   9.323  1.00  0.00    -0.350 OA
HETATM   19  C16 UNK     1       9.833   9.283  10.209  1.00  0.00     0.210 C 
ENDBRANCH   6  18
BRANCH  10  20
HETATM   20  O3  UNK     1       4.423   3.234  12.193  1.00  0.00    -0.356 OA
HETATM   21  C17 UNK     1       5.090   2.358  13.101  1.00  0.00     0.210 C 
ENDBRANCH  10  20
TORSDOF 3
ENDMDL
MODEL 10
REMARK VINA RESULT:      -6.7     11.423     13.755
REMARK  3 active torsions:
REMARK  status: ('A' for Active; 'I' for Inactive)
REMARK    1  A    between atoms: C4_8  and  O2_2 
REMARK    2  A    between atoms: C9_13  and  O3_3 
REMARK    3  A    between atoms: C3_7  and  C6_10 
ROOT
HETATM    1  O1  UNK     1      30.144  -7.090  36.695  1.00  0.00    -0.306 OA
HETATM    2  O4  UNK     1      29.697  -3.611  38.768  1.00  0.00    -0.284 OA
HETATM    3  C1  UNK     1      30.889  -4.822  37.133  1.00  0.00     0.051 A 
HETATM    4  C2  UNK     1      30.990  -6.038  36.460  1.00  0.00     0.093 A 
HETATM    5  C3  UNK     1      29.138  -6.933  37.635  1.00  0.00     0.123 A 
HETATM    6  C4  UNK     1      28.938  -5.817  38.358  1.00  0.00     0.154 A 
HETATM    7  C5  UNK     1      29.831  -4.653  38.141  1.00  0.00     0.221 A 
HETATM    8  C7  UNK     1      31.986  -6.224  35.500  1.00  0.00     0.075 A 
HETATM    9  C8  UNK     1      31.780  -3.783  36.851  1.00  0.00     0.021 A 
HETATM   10  C9  UNK     1      32.878  -5.189  35.217  1.00  0.00     0.070 A 
HETATM   11  C10 UNK     1      32.775  -3.972  35.891  1.00  0.00     0.038 A 
ENDROOT
BRANCH   5  12
HETATM   12  C6  UNK     1      28.303  -8.138  37.791  1.00  0.00     0.001 A 
HETATM   13  C11 UNK     1      28.416  -8.922  38.939  1.00  0.00     0.014 A 
HETATM   14  C13 UNK     1      27.625 -10.062  39.086  1.00  0.00     0.001 A 
HETATM   15  C15 UNK     1      26.721 -10.417  38.085  1.00  0.00     0.000 A 
HETATM   16  C14 UNK     1      26.607  -9.633  36.937  1.00  0.00     0.001 A 
HETATM   17  C12 UNK     1      27.398  -8.493  36.790  1.00  0.00     0.014 A 
ENDBRANCH   5  12
BRANCH   6  18
HETATM   18  O2  UNK     1      27.947  -5.704  39.309  1.00  0.00    -0.350 OA
HETATM   19  C16 UNK     1      26.724  -5.306  38.718  1.00  0.00     0.210 C 
ENDBRANCH   6  18
BRANCH  10  20
HETATM   20  O3  UNK     1      33.850  -5.367  34.281  1.00  0.00    -0.356 OA
HETATM   21  C17 UNK     1      35.131  -5.791  34.746  1.00  0.00     0.210 C 
ENDBRANCH  10  20
TORSDOF 3
ENDMDL
