MODEL 1
REMARK VINA RESULT:      -8.2      0.000      0.000
REMARK  3 active torsions:
REMARK  status: ('A' for Active; 'I' for Inactive)
REMARK    1  A    between atoms: C11_16  and  O3_3 
REMARK    2  A    between atoms: C1_6  and  N1_5 
REMARK       I    between atoms: C5_10  and  N1_5 
REMARK    3  A    between atoms: C5_10  and  C6_11 
ROOT
HETATM    1  O1  UNK     1      19.681  -0.994  34.924  1.00  0.00    -0.271 OA
HETATM    2  O4  UNK     1      20.701  -2.873  34.120  1.00  0.00    -0.259 OA
HETATM    3  C6  UNK     1      19.603  -3.073  36.210  1.00  0.00     0.108 A 
HETATM    4  C7  UNK     1      18.524  -1.078  37.061  1.00  0.00     0.002 A 
HETATM    5  C8  UNK     1      18.888  -2.482  37.174  1.00  0.00     0.037 A 
HETATM    6  C9  UNK     1      18.929  -0.366  35.936  1.00  0.00     0.123 A 
HETATM    7  C10 UNK     1      20.046  -2.336  35.006  1.00  0.00     0.304 A 
HETATM    8  C11 UNK     1      18.613   0.980  35.767  1.00  0.00     0.102 A 
HETATM    9  C12 UNK     1      17.780  -0.419  38.043  1.00  0.00     0.014 A 
HETATM   10  C13 UNK     1      17.871   1.629  36.751  1.00  0.00     0.040 A 
HETATM   11  C14 UNK     1      17.455   0.931  37.887  1.00  0.00     0.004 A 
ENDROOT
BRANCH   3  12
HETATM   12  C5  UNK     1      19.921  -4.491  36.416  1.00  0.00     0.258 C 
HETATM   13  O2  UNK     1      21.012  -4.784  36.899  1.00  0.00    -0.267 OA
HETATM   14  N1  UNK     1      18.912  -5.353  36.024  1.00  0.00    -0.349 N 
HETATM   15  H1  UNK     1      18.069  -4.971  35.607  1.00  0.00     0.163 HD
BRANCH  14  16
HETATM   16  C1  UNK     1      19.001  -6.791  36.134  1.00  0.00     0.022 C 
HETATM   17  C2  UNK     1      20.252  -7.279  35.394  1.00  0.00     0.037 C 
HETATM   18  C3  UNK     1      19.095  -7.182  37.613  1.00  0.00     0.037 C 
HETATM   19  C4  UNK     1      17.751  -7.419  35.510  1.00  0.00     0.037 C 
ENDBRANCH  14  16
ENDBRANCH   3  12
BRANCH   8  20
HETATM   20  O3  UNK     1      19.015   1.663  34.662  1.00  0.00    -0.353 OA
HETATM   21  C15 UNK     1      18.025   1.931  33.667  1.00  0.00     0.210 C 
ENDBRANCH   8  20
TORSDOF 3
ENDMDL
MODEL 2
REMARK VINA RESULT:      -8.0      3.907      6.572
REMARK  3 active torsions:
REMARK  status: ('A' for Active; 'I' for Inactive)
REMARK    1  A    between atoms: C11_16  and  O3_3 
REMARK    2  A    between atoms: C1_6  and  N1_5 
REMARK       I    between atoms: C5_10  and  N1_5 
REMARK    3  A    between atoms: C5_10  and  C6_11 
ROOT
HETATM    1  O1  UNK     1      18.651   1.358  31.381  1.00  0.00    -0.271 OA
HETATM    2  O4  UNK     1      17.828   2.310  33.287  1.00  0.00    -0.259 OA
HETATM    3  C6  UNK     1      18.724   0.127  33.492  1.00  0.00     0.108 A 
HETATM    4  C7  UNK     1      19.594  -0.881  31.468  1.00  0.00     0.002 A 
HETATM    5  C8  UNK     1      19.304  -0.920  32.893  1.00  0.00     0.037 A 
HETATM    6  C9  UNK     1      19.260   0.260  30.744  1.00  0.00     0.123 A 
HETATM    7  C10 UNK     1      18.360   1.350  32.743  1.00  0.00     0.304 A 
HETATM    8  C11 UNK     1      19.511   0.360  29.378  1.00  0.00     0.102 A 
HETATM    9  C12 UNK     1      20.197  -1.951  30.801  1.00  0.00     0.014 A 
HETATM   10  C13 UNK     1      20.113  -0.710  28.720  1.00  0.00     0.040 A 
HETATM   11  C14 UNK     1      20.455  -1.863  29.430  1.00  0.00     0.004 A 
ENDROOT
BRANCH   3  12
HETATM   12  C5  UNK     1      18.472  -0.008  34.932  1.00  0.00     0.258 C 
HETATM   13  O2  UNK     1      19.347  -0.510  35.636  1.00  0.00    -0.267 OA
HETATM   14  N1  UNK     1      17.235   0.463  35.331  1.00  0.00    -0.349 N 
HETATM   15  H1  UNK     1      16.594   0.824  34.631  1.00  0.00     0.163 HD
BRANCH  14  16
HETATM   16  C1  UNK     1      16.770   0.433  36.698  1.00  0.00     0.022 C 
HETATM   17  C2  UNK     1      15.260   0.701  36.727  1.00  0.00     0.037 C 
HETATM   18  C3  UNK     1      17.057  -0.947  37.302  1.00  0.00     0.037 C 
HETATM   19  C4  UNK     1      17.504   1.513  37.500  1.00  0.00     0.037 C 
ENDBRANCH  14  16
ENDBRANCH   3  12
BRANCH   8  20
HETATM   20  O3  UNK     1      19.181   1.482  28.683  1.00  0.00    -0.353 OA
HETATM   21  C15 UNK     1      17.791   1.717  28.450  1.00  0.00     0.210 C 
ENDBRANCH   8  20
TORSDOF 3
ENDMDL
MODEL 3
REMARK VINA RESULT:      -7.9      4.974      9.325
REMARK  3 active torsions:
REMARK  status: ('A' for Active; 'I' for Inactive)
REMARK    1  A    between atoms: C11_16  and  O3_3 
REMARK    2  A    between atoms: C1_6  and  N1_5 
REMARK       I    between atoms: C5_10  and  N1_5 
REMARK    3  A    between atoms: C5_10  and  C6_11 
ROOT
HETATM    1  O1  UNK     1      18.868   0.555  32.758  1.00  0.00    -0.271 OA
HETATM    2  O4  UNK     1      18.059   2.192  34.131  1.00  0.00    -0.259 OA
HETATM    3  C6  UNK     1      18.418   2.787  31.866  1.00  0.00     0.108 A 
HETATM    4  C7  UNK     1      19.277   1.049  30.413  1.00  0.00     0.002 A 
HETATM    5  C8  UNK     1      18.818   2.410  30.646  1.00  0.00     0.037 A 
HETATM    6  C9  UNK     1      19.291   0.152  31.477  1.00  0.00     0.123 A 
HETATM    7  C10 UNK     1      18.424   1.851  33.012  1.00  0.00     0.304 A 
HETATM    8  C11 UNK     1      19.719  -1.164  31.320  1.00  0.00     0.102 A 
HETATM    9  C12 UNK     1      19.705   0.612  29.157  1.00  0.00     0.014 A 
HETATM   10  C13 UNK     1      20.143  -1.592  30.064  1.00  0.00     0.040 A 
HETATM   11  C14 UNK     1      20.136  -0.707  28.984  1.00  0.00     0.004 A 
ENDROOT
BRANCH   3  12
HETATM   12  C5  UNK     1      17.973   4.179  32.000  1.00  0.00     0.258 C 
HETATM   13  O2  UNK     1      16.909   4.508  31.480  1.00  0.00    -0.267 OA
HETATM   14  N1  UNK     1      18.841   4.977  32.723  1.00  0.00    -0.349 N 
HETATM   15  H1  UNK     1      19.707   4.578  33.071  1.00  0.00     0.163 HD
BRANCH  14  16
HETATM   16  C1  UNK     1      18.609   6.379  32.984  1.00  0.00     0.022 C 
HETATM   17  C2  UNK     1      17.524   6.523  34.058  1.00  0.00     0.037 C 
HETATM   18  C3  UNK     1      19.909   7.024  33.478  1.00  0.00     0.037 C 
HETATM   19  C4  UNK     1      18.152   7.061  31.690  1.00  0.00     0.037 C 
ENDBRANCH  14  16
ENDBRANCH   3  12
BRANCH   8  20
HETATM   20  O3  UNK     1      19.725  -2.031  32.368  1.00  0.00    -0.353 OA
HETATM   21  C15 UNK     1      20.989  -2.573  32.755  1.00  0.00     0.210 C 
ENDBRANCH   8  20
TORSDOF 3
ENDMDL
MODEL 4
REMARK VINA RESULT:      -7.7     17.722     19.532
REMARK  3 active torsions:
REMARK  status: ('A' for Active; 'I' for Inactive)
REMARK    1  A    between atoms: C11_16  and  O3_3 
REMARK    2  A    between atoms: C1_6  and  N1_5 
REMARK       I    between atoms: C5_10  and  N1_5 
REMARK    3  A    between atoms: C5_10  and  C6_11 
ROOT
HETATM    1  O1  UNK     1      19.367   1.206  16.279  1.00  0.00    -0.271 OA
HETATM    2  O4  UNK     1      19.510   0.106  14.282  1.00  0.00    -0.259 OA
HETATM    3  C6  UNK     1      18.916  -1.195  16.170  1.00  0.00     0.108 A 
HETATM    4  C7  UNK     1      18.767  -0.027  18.287  1.00  0.00     0.002 A 
HETATM    5  C8  UNK     1      18.672  -1.237  17.486  1.00  0.00     0.037 A 
HETATM    6  C9  UNK     1      19.112   1.168  17.664  1.00  0.00     0.123 A 
HETATM    7  C10 UNK     1      19.286   0.064  15.486  1.00  0.00     0.304 A 
HETATM    8  C11 UNK     1      19.219   2.362  18.375  1.00  0.00     0.102 A 
HETATM    9  C12 UNK     1      18.522  -0.024  19.663  1.00  0.00     0.014 A 
HETATM   10  C13 UNK     1      18.973   2.356  19.746  1.00  0.00     0.040 A 
HETATM   11  C14 UNK     1      18.625   1.167  20.389  1.00  0.00     0.004 A 
ENDROOT
BRANCH   3  12
HETATM   12  C5  UNK     1      18.795  -2.468  15.448  1.00  0.00     0.258 C 
HETATM   13  O2  UNK     1      17.812  -2.645  14.732  1.00  0.00    -0.267 OA
HETATM   14  N1  UNK     1      19.844  -3.341  15.674  1.00  0.00    -0.349 N 
HETATM   15  H1  UNK     1      20.579  -3.074  16.321  1.00  0.00     0.163 HD
BRANCH  14  16
HETATM   16  C1  UNK     1      19.939  -4.650  15.071  1.00  0.00     0.022 C 
HETATM   17  C2  UNK     1      18.720  -5.487  15.480  1.00  0.00     0.037 C 
HETATM   18  C3  UNK     1      19.972  -4.504  13.545  1.00  0.00     0.037 C 
HETATM   19  C4  UNK     1      21.222  -5.333  15.554  1.00  0.00     0.037 C 
ENDBRANCH  14  16
ENDBRANCH   3  12
BRANCH   8  20
HETATM   20  O3  UNK     1      19.556   3.523  17.753  1.00  0.00    -0.353 OA
HETATM   21  C15 UNK     1      20.586   4.308  18.355  1.00  0.00     0.210 C 
ENDBRANCH   8  20
TORSDOF 3
ENDMDL
MODEL 5
REMARK VINA RESULT:      -7.6      3.337      7.746
REMARK  3 active torsions:
REMARK  status: ('A' for Active; 'I' for Inactive)
REMARK    1  A    between atoms: C11_16  and  O3_3 
REMARK    2  A    between atoms: C1_6  and  N1_5 
REMARK       I    between atoms: C5_10  and  N1_5 
REMARK    3  A    between atoms: C5_10  and  C6_11 
ROOT
HETATM    1  O1  UNK     1      18.743  -0.337  34.248  1.00  0.00    -0.271 OA
HETATM    2  O4  UNK     1      18.986   0.378  32.093  1.00  0.00    -0.259 OA
HETATM    3  C6  UNK     1      18.188   1.969  33.656  1.00  0.00     0.108 A 
HETATM    4  C7  UNK     1      17.930   1.208  35.941  1.00  0.00     0.002 A 
HETATM    5  C8  UNK     1      17.842   2.240  34.920  1.00  0.00     0.037 A 
HETATM    6  C9  UNK     1      18.380  -0.059  35.580  1.00  0.00     0.123 A 
HETATM    7  C10 UNK     1      18.668   0.630  33.249  1.00  0.00     0.304 A 
HETATM    8  C11 UNK     1      18.487  -1.091  36.510  1.00  0.00     0.102 A 
HETATM    9  C12 UNK     1      17.578   1.444  37.273  1.00  0.00     0.014 A 
HETATM   10  C13 UNK     1      18.135  -0.846  37.836  1.00  0.00     0.040 A 
HETATM   11  C14 UNK     1      17.681   0.418  38.217  1.00  0.00     0.004 A 
ENDROOT
BRANCH   3  12
HETATM   12  C5  UNK     1      18.064   3.076  32.699  1.00  0.00     0.258 C 
HETATM   13  O2  UNK     1      17.514   2.862  31.621  1.00  0.00    -0.267 OA
HETATM   14  N1  UNK     1      18.604   4.267  33.149  1.00  0.00    -0.349 N 
HETATM   15  H1  UNK     1      19.061   4.292  34.056  1.00  0.00     0.163 HD
BRANCH  14  16
HETATM   16  C1  UNK     1      18.598   5.490  32.380  1.00  0.00     0.022 C 
HETATM   17  C2  UNK     1      19.468   6.538  33.084  1.00  0.00     0.037 C 
HETATM   18  C3  UNK     1      19.161   5.212  30.981  1.00  0.00     0.037 C 
HETATM   19  C4  UNK     1      17.158   6.003  32.266  1.00  0.00     0.037 C 
ENDBRANCH  14  16
ENDBRANCH   3  12
BRANCH   8  20
HETATM   20  O3  UNK     1      18.930  -2.324  36.144  1.00  0.00    -0.353 OA
HETATM   21  C15 UNK     1      19.997  -2.885  36.910  1.00  0.00     0.210 C 
ENDBRANCH   8  20
TORSDOF 3
ENDMDL
MODEL 6
REMARK VINA RESULT:      -7.5      3.397      5.507
REMARK  3 active torsions:
REMARK  status: ('A' for Active; 'I' for Inactive)
REMARK    1  A    between atoms: C11_16  and  O3_3 
REMARK    2  A    between atoms: C1_6  and  N1_5 
REMARK       I    between atoms: C5_10  and  N1_5 
REMARK    3  A    between atoms: C5_10  and  C6_11 
ROOT
HETATM    1  O1  UNK     1      18.475   1.097  31.937  1.00  0.00    -0.271 OA
HETATM    2  O4  UNK     1      17.467   1.469  33.952  1.00  0.00    -0.259 OA
HETATM    3  C6  UNK     1      18.494  -0.645  33.653  1.00  0.00     0.108 A 
HETATM    4  C7  UNK     1      19.561  -1.038  31.514  1.00  0.00     0.002 A 
HETATM    5  C8  UNK     1      19.182  -1.467  32.851  1.00  0.00     0.037 A 
HETATM    6  C9  UNK     1      19.199   0.237  31.087  1.00  0.00     0.123 A 
HETATM    7  C10 UNK     1      18.097   0.713  33.221  1.00  0.00     0.304 A 
HETATM    8  C11 UNK     1      19.531   0.708  29.819  1.00  0.00     0.102 A 
HETATM    9  C12 UNK     1      20.278  -1.861  30.642  1.00  0.00     0.014 A 
HETATM   10  C13 UNK     1      20.246  -0.120  28.956  1.00  0.00     0.040 A 
HETATM   11  C14 UNK     1      20.619  -1.402  29.366  1.00  0.00     0.004 A 
ENDROOT
BRANCH   3  12
HETATM   12  C5  UNK     1      18.158  -1.169  34.983  1.00  0.00     0.258 C 
HETATM   13  O2  UNK     1      17.073  -0.869  35.475  1.00  0.00    -0.267 OA
HETATM   14  N1  UNK     1      19.145  -1.965  35.536  1.00  0.00    -0.349 N 
HETATM   15  H1  UNK     1      20.013  -2.103  35.027  1.00  0.00     0.163 HD
BRANCH  14  16
HETATM   16  C1  UNK     1      19.035  -2.589  36.834  1.00  0.00     0.022 C 
HETATM   17  C2  UNK     1      20.419  -3.077  37.281  1.00  0.00     0.037 C 
HETATM   18  C3  UNK     1      18.501  -1.567  37.844  1.00  0.00     0.037 C 
HETATM   19  C4  UNK     1      18.072  -3.776  36.739  1.00  0.00     0.037 C 
ENDBRANCH  14  16
ENDBRANCH   3  12
BRANCH   8  20
HETATM   20  O3  UNK     1      19.172   1.956  29.416  1.00  0.00    -0.353 OA
HETATM   21  C15 UNK     1      17.975   2.070  28.643  1.00  0.00     0.210 C 
ENDBRANCH   8  20
TORSDOF 3
ENDMDL
MODEL 7
REMARK VINA RESULT:      -7.5      4.726      9.216
REMARK  3 active torsions:
REMARK  status: ('A' for Active; 'I' for Inactive)
REMARK    1  A    between atoms: C11_16  and  O3_3 
REMARK    2  A    between atoms: C1_6  and  N1_5 
REMARK       I    between atoms: C5_10  and  N1_5 
REMARK    3  A    between atoms: C5_10  and  C6_11 
ROOT
HETATM    1  O1  UNK     1      18.183   1.668  32.157  1.00  0.00    -0.271 OA
HETATM    2  O4  UNK     1      18.062   3.313  30.578  1.00  0.00    -0.259 OA
HETATM    3  C6  UNK     1      18.224   4.017  32.834  1.00  0.00     0.108 A 
HETATM    4  C7  UNK     1      18.350   2.270  34.507  1.00  0.00     0.002 A 
HETATM    5  C8  UNK     1      18.318   3.673  34.124  1.00  0.00     0.037 A 
HETATM    6  C9  UNK     1      18.282   1.299  33.513  1.00  0.00     0.123 A 
HETATM    7  C10 UNK     1      18.149   3.002  31.760  1.00  0.00     0.304 A 
HETATM    8  C11 UNK     1      18.307  -0.061  33.814  1.00  0.00     0.102 A 
HETATM    9  C12 UNK     1      18.447   1.864  35.841  1.00  0.00     0.014 A 
HETATM   10  C13 UNK     1      18.405  -0.458  35.146  1.00  0.00     0.040 A 
HETATM   11  C14 UNK     1      18.474   0.502  36.157  1.00  0.00     0.004 A 
ENDROOT
BRANCH   3  12
HETATM   12  C5  UNK     1      18.199   5.457  32.548  1.00  0.00     0.258 C 
HETATM   13  O2  UNK     1      19.143   5.950  31.933  1.00  0.00    -0.267 OA
HETATM   14  N1  UNK     1      17.074   6.104  33.027  1.00  0.00    -0.349 N 
HETATM   15  H1  UNK     1      16.384   5.573  33.551  1.00  0.00     0.163 HD
BRANCH  14  16
HETATM   16  C1  UNK     1      16.834   7.519  32.863  1.00  0.00     0.022 C 
HETATM   17  C2  UNK     1      18.054   8.301  33.364  1.00  0.00     0.037 C 
HETATM   18  C3  UNK     1      16.602   7.825  31.380  1.00  0.00     0.037 C 
HETATM   19  C4  UNK     1      15.596   7.914  33.674  1.00  0.00     0.037 C 
ENDBRANCH  14  16
ENDBRANCH   3  12
BRANCH   8  20
HETATM   20  O3  UNK     1      18.242  -1.000  32.832  1.00  0.00    -0.353 OA
HETATM   21  C15 UNK     1      19.470  -1.612  32.434  1.00  0.00     0.210 C 
ENDBRANCH   8  20
TORSDOF 3
ENDMDL
MODEL 8
REMARK VINA RESULT:      -7.2      2.458      7.368
REMARK  3 active torsions:
REMARK  status: ('A' for Active; 'I' for Inactive)
REMARK    1  A    between atoms: C11_16  and  O3_3 
REMARK    2  A    between atoms: C1_6  and  N1_5 
REMARK       I    between atoms: C5_10  and  N1_5 
REMARK    3  A    between atoms: C5_10  and  C6_11 
ROOT
HETATM    1  O1  UNK     1      20.353  -7.225  35.825  1.00  0.00    -0.271 OA
HETATM    2  O4  UNK     1      20.275  -5.233  34.710  1.00  0.00    -0.259 OA
HETATM    3  C6  UNK     1      19.984  -5.147  37.060  1.00  0.00     0.108 A 
HETATM    4  C7  UNK     1      20.066  -7.261  38.239  1.00  0.00     0.002 A 
HETATM    5  C8  UNK     1      19.916  -5.815  38.218  1.00  0.00     0.037 A 
HETATM    6  C9  UNK     1      20.282  -7.934  37.040  1.00  0.00     0.123 A 
HETATM    7  C10 UNK     1      20.212  -5.840  35.773  1.00  0.00     0.304 A 
HETATM    8  C11 UNK     1      20.433  -9.318  36.992  1.00  0.00     0.102 A 
HETATM    9  C12 UNK     1      20.001  -8.000  39.424  1.00  0.00     0.014 A 
HETATM   10  C13 UNK     1      20.367 -10.046  38.178  1.00  0.00     0.040 A 
HETATM   11  C14 UNK     1      20.151  -9.390  39.391  1.00  0.00     0.004 A 
ENDROOT
BRANCH   3  12
HETATM   12  C5  UNK     1      19.821  -3.690  37.142  1.00  0.00     0.258 C 
HETATM   13  O2  UNK     1      20.683  -3.035  37.724  1.00  0.00    -0.267 OA
HETATM   14  N1  UNK     1      18.673  -3.220  36.530  1.00  0.00    -0.349 N 
HETATM   15  H1  UNK     1      18.028  -3.884  36.112  1.00  0.00     0.163 HD
BRANCH  14  16
HETATM   16  C1  UNK     1      18.305  -1.824  36.485  1.00  0.00     0.022 C 
HETATM   17  C2  UNK     1      17.001  -1.669  35.694  1.00  0.00     0.037 C 
HETATM   18  C3  UNK     1      18.103  -1.306  37.914  1.00  0.00     0.037 C 
HETATM   19  C4  UNK     1      19.425  -1.033  35.801  1.00  0.00     0.037 C 
ENDBRANCH  14  16
ENDBRANCH   3  12
BRANCH   8  20
HETATM   20  O3  UNK     1      20.644  -9.962  35.813  1.00  0.00    -0.353 OA
HETATM   21  C15 UNK     1      21.938 -10.531  35.606  1.00  0.00     0.210 C 
ENDBRANCH   8  20
TORSDOF 3
ENDMDL
MODEL 9
REMARK VINA RESULT:      -7.2      5.974      9.705
REMARK  3 active torsions:
REMARK  status: ('A' for Active; 'I' for Inactive)
REMARK    1  A    between atoms: C11_16  and  O3_3 
REMARK    2  A    between atoms: C1_6  and  N1_5 
REMARK       I    between atoms: C5_10  and  N1_5 
REMARK    3  A    between atoms: C5_10  and  C6_11 
ROOT
HETATM    1  O1  UNK     1      19.113   2.847  30.417  1.00  0.00    -0.271 OA
HETATM    2  O4  UNK     1      18.798   5.094  30.152  1.00  0.00    -0.259 OA
HETATM    3  C6  UNK     1      18.186   4.176  32.248  1.00  0.00     0.108 A 
HETATM    4  C7  UNK     1      18.519   1.792  32.525  1.00  0.00     0.002 A 
HETATM    5  C8  UNK     1      18.095   3.090  33.026  1.00  0.00     0.037 A 
HETATM    6  C9  UNK     1      19.020   1.701  31.230  1.00  0.00     0.123 A 
HETATM    7  C10 UNK     1      18.714   4.103  30.868  1.00  0.00     0.304 A 
HETATM    8  C11 UNK     1      19.443   0.488  30.691  1.00  0.00     0.102 A 
HETATM    9  C12 UNK     1      18.442   0.632  33.301  1.00  0.00     0.014 A 
HETATM   10  C13 UNK     1      19.363  -0.663  31.471  1.00  0.00     0.040 A 
HETATM   11  C14 UNK     1      18.863  -0.592  32.774  1.00  0.00     0.004 A 
ENDROOT
BRANCH   3  12
HETATM   12  C5  UNK     1      17.733   5.439  32.843  1.00  0.00     0.258 C 
HETATM   13  O2  UNK     1      18.418   5.951  33.726  1.00  0.00    -0.267 OA
HETATM   14  N1  UNK     1      16.545   5.912  32.316  1.00  0.00    -0.349 N 
HETATM   15  H1  UNK     1      16.066   5.365  31.607  1.00  0.00     0.163 HD
BRANCH  14  16
HETATM   16  C1  UNK     1      15.909   7.136  32.747  1.00  0.00     0.022 C 
HETATM   17  C2  UNK     1      15.837   7.157  34.279  1.00  0.00     0.037 C 
HETATM   18  C3  UNK     1      16.730   8.333  32.255  1.00  0.00     0.037 C 
HETATM   19  C4  UNK     1      14.496   7.200  32.160  1.00  0.00     0.037 C 
ENDBRANCH  14  16
ENDBRANCH   3  12
BRANCH   8  20
HETATM   20  O3  UNK     1      19.931   0.414  29.424  1.00  0.00    -0.353 OA
HETATM   21  C15 UNK     1      20.363  -0.870  28.968  1.00  0.00     0.210 C 
ENDBRANCH   8  20
TORSDOF 3
ENDMDL
MODEL 10
REMARK VINA RESULT:      -7.2     27.216     30.077
REMARK  3 active torsions:
REMARK  status: ('A' for Active; 'I' for Inactive)
REMARK    1  A    between atoms: C11_16  and  O3_3 
REMARK    2  A    between atoms: C1_6  and  N1_5 
REMARK       I    between atoms: C5_10  and  N1_5 
REMARK    3  A    between atoms: C5_10  and  C6_11 
ROOT
HETATM    1  O1  UNK     1      11.067   7.200   9.413  1.00  0.00    -0.271 OA
HETATM    2  O4  UNK     1      12.737   7.501  10.942  1.00  0.00    -0.259 OA
HETATM    3  C6  UNK     1      13.382   6.692   8.811  1.00  0.00     0.108 A 
HETATM    4  C7  UNK     1      11.609   6.374   7.191  1.00  0.00     0.002 A 
HETATM    5  C8  UNK     1      13.010   6.323   7.579  1.00  0.00     0.037 A 
HETATM    6  C9  UNK     1      10.669   6.813   8.119  1.00  0.00     0.123 A 
HETATM    7  C10 UNK     1      12.400   7.161   9.813  1.00  0.00     0.304 A 
HETATM    8  C11 UNK     1       9.312   6.884   7.810  1.00  0.00     0.102 A 
HETATM    9  C12 UNK     1      11.173   5.996   5.918  1.00  0.00     0.014 A 
HETATM   10  C13 UNK     1       8.887   6.507   6.538  1.00  0.00     0.040 A 
HETATM   11  C14 UNK     1       9.815   6.064   5.594  1.00  0.00     0.004 A 
ENDROOT
BRANCH   3  12
HETATM   12  C5  UNK     1      14.818   6.606   9.106  1.00  0.00     0.258 C 
HETATM   13  O2  UNK     1      15.410   5.562   8.840  1.00  0.00    -0.267 OA
HETATM   14  N1  UNK     1      15.343   7.754   9.670  1.00  0.00    -0.349 N 
HETATM   15  H1  UNK     1      14.725   8.536   9.866  1.00  0.00     0.163 HD
BRANCH  14  16
HETATM   16  C1  UNK     1      16.731   7.899  10.043  1.00  0.00     0.022 C 
HETATM   17  C2  UNK     1      17.563   6.829   9.327  1.00  0.00     0.037 C 
HETATM   18  C3  UNK     1      17.223   9.292   9.633  1.00  0.00     0.037 C 
HETATM   19  C4  UNK     1      16.862   7.730  11.560  1.00  0.00     0.037 C 
ENDBRANCH  14  16
ENDBRANCH   3  12
BRANCH   8  20
HETATM   20  O3  UNK     1       8.404   7.317   8.726  1.00  0.00    -0.353 OA
HETATM   21  C15 UNK     1       7.632   6.319   9.398  1.00  0.00     0.210 C 
ENDBRANCH   8  20
TORSDOF 3
ENDMDL
