MODEL 1
REMARK VINA RESULT:      -8.5      0.000      0.000
REMARK  1 active torsions:
REMARK  status: ('A' for Active; 'I' for Inactive)
REMARK    1  A    between atoms: C12_17  and  C5_10 
ROOT
HETATM    1  O1  UNK     1      17.642   3.958  30.851  1.00  0.00    -0.332 OA
HETATM    2  O2  UNK     1      19.789  -0.235  32.072  1.00  0.00    -0.274 OA
HETATM    3  O3  UNK     1      18.281   4.123  34.400  1.00  0.00    -0.289 OA
HETATM    4  O4  UNK     1      20.871  -2.189  32.579  1.00  0.00    -0.260 OA
HETATM    5  C1  UNK     1      18.121   4.604  32.031  1.00  0.00     0.125 C 
HETATM    6  C2  UNK     1      18.629   1.841  31.549  1.00  0.00     0.048 A 
HETATM    7  C3  UNK     1      18.259   3.686  33.252  1.00  0.00     0.196 C 
HETATM    8  C4  UNK     1      18.203   2.741  30.562  1.00  0.00     0.084 A 
HETATM    9  C5  UNK     1      18.406   2.230  32.950  1.00  0.00     0.043 C 
HETATM   10  C6  UNK     1      17.083   5.687  32.352  1.00  0.00     0.055 C 
HETATM   11  C7  UNK     1      19.472   5.269  31.743  1.00  0.00     0.055 C 
HETATM   12  C8  UNK     1      19.246   0.656  31.113  1.00  0.00     0.103 A 
HETATM   13  C9  UNK     1      19.373   0.337  29.757  1.00  0.00    -0.001 A 
HETATM   14  C10 UNK     1      18.300   2.426  29.203  1.00  0.00     0.039 A 
HETATM   15  C11 UNK     1      18.881   1.225  28.800  1.00  0.00     0.017 A 
HETATM   16  C13 UNK     1      20.015  -0.909  29.371  1.00  0.00     0.020 A 
HETATM   17  C14 UNK     1      20.503  -1.738  30.296  1.00  0.00     0.083 A 
HETATM   18  C15 UNK     1      20.415  -1.429  31.733  1.00  0.00     0.288 A 
ENDROOT
BRANCH   9  19
HETATM   19  C12 UNK     1      18.202   1.380  33.968  1.00  0.00     0.096 C 
HETATM   20  N1  UNK     1      19.032   1.112  35.001  1.00  0.00    -0.407 N 
HETATM   21  H12 UNK     1      19.932   1.568  35.083  1.00  0.00     0.155 HD
HETATM   22  H13 UNK     1      18.751   0.439  35.703  1.00  0.00     0.155 HD
ENDBRANCH   9  19
TORSDOF 1
ENDMDL
MODEL 2
REMARK VINA RESULT:      -7.9      2.266      4.570
REMARK  1 active torsions:
REMARK  status: ('A' for Active; 'I' for Inactive)
REMARK    1  A    between atoms: C12_17  and  C5_10 
ROOT
HETATM    1  O1  UNK     1      19.029  -1.298  35.136  1.00  0.00    -0.332 OA
HETATM    2  O2  UNK     1      18.901   0.729  30.713  1.00  0.00    -0.274 OA
HETATM    3  O3  UNK     1      16.736   1.483  35.343  1.00  0.00    -0.289 OA
HETATM    4  O4  UNK     1      18.814   1.595  28.594  1.00  0.00    -0.260 OA
HETATM    5  C1  UNK     1      17.788  -0.693  35.502  1.00  0.00     0.125 C 
HETATM    6  C2  UNK     1      18.994  -0.173  32.972  1.00  0.00     0.048 A 
HETATM    7  C3  UNK     1      17.530   0.676  34.863  1.00  0.00     0.196 C 
HETATM    8  C4  UNK     1      19.354  -1.242  33.805  1.00  0.00     0.084 A 
HETATM    9  C5  UNK     1      18.277   0.949  33.598  1.00  0.00     0.043 C 
HETATM   10  C6  UNK     1      17.857  -0.516  37.024  1.00  0.00     0.055 C 
HETATM   11  C7  UNK     1      16.632  -1.639  35.156  1.00  0.00     0.055 C 
HETATM   12  C8  UNK     1      19.337  -0.275  31.613  1.00  0.00     0.103 A 
HETATM   13  C9  UNK     1      20.068  -1.355  31.108  1.00  0.00    -0.001 A 
HETATM   14  C10 UNK     1      20.107  -2.317  33.320  1.00  0.00     0.039 A 
HETATM   15  C11 UNK     1      20.466  -2.372  31.975  1.00  0.00     0.017 A 
HETATM   16  C13 UNK     1      20.396  -1.397  29.692  1.00  0.00     0.020 A 
HETATM   17  C14 UNK     1      19.988  -0.428  28.869  1.00  0.00     0.083 A 
HETATM   18  C15 UNK     1      19.193   0.712  29.354  1.00  0.00     0.288 A 
ENDROOT
BRANCH   9  19
HETATM   19  C12 UNK     1      18.333   2.227  33.195  1.00  0.00     0.096 C 
HETATM   20  N1  UNK     1      17.683   2.796  32.154  1.00  0.00    -0.407 N 
HETATM   21  H12 UNK     1      17.064   2.256  31.564  1.00  0.00     0.155 HD
HETATM   22  H13 UNK     1      17.823   3.779  31.959  1.00  0.00     0.155 HD
ENDBRANCH   9  19
TORSDOF 1
ENDMDL
MODEL 3
REMARK VINA RESULT:      -7.7      9.765     12.300
REMARK  1 active torsions:
REMARK  status: ('A' for Active; 'I' for Inactive)
REMARK    1  A    between atoms: C12_17  and  C5_10 
ROOT
HETATM    1  O1  UNK     1      19.955  -8.922  36.007  1.00  0.00    -0.332 OA
HETATM    2  O2  UNK     1      24.564  -8.508  37.514  1.00  0.00    -0.274 OA
HETATM    3  O3  UNK     1      20.285  -5.616  37.420  1.00  0.00    -0.289 OA
HETATM    4  O4  UNK     1      26.764  -8.335  38.130  1.00  0.00    -0.260 OA
HETATM    5  C1  UNK     1      19.783  -7.504  35.988  1.00  0.00     0.125 C 
HETATM    6  C2  UNK     1      22.222  -8.684  36.875  1.00  0.00     0.048 A 
HETATM    7  C3  UNK     1      20.591  -6.747  37.048  1.00  0.00     0.196 C 
HETATM    8  C4  UNK     1      21.245  -9.368  36.137  1.00  0.00     0.084 A 
HETATM    9  C5  UNK     1      21.798  -7.457  37.569  1.00  0.00     0.043 C 
HETATM   10  C6  UNK     1      18.290  -7.273  36.255  1.00  0.00     0.055 C 
HETATM   11  C7  UNK     1      20.137  -6.960  34.598  1.00  0.00     0.055 C 
HETATM   12  C8  UNK     1      23.521  -9.220  36.873  1.00  0.00     0.103 A 
HETATM   13  C9  UNK     1      23.829 -10.422  36.228  1.00  0.00    -0.001 A 
HETATM   14  C10 UNK     1      21.532 -10.585  35.509  1.00  0.00     0.039 A 
HETATM   15  C11 UNK     1      22.820 -11.113  35.556  1.00  0.00     0.017 A 
HETATM   16  C13 UNK     1      25.191 -10.928  36.269  1.00  0.00     0.020 A 
HETATM   17  C14 UNK     1      26.152 -10.245  36.895  1.00  0.00     0.083 A 
HETATM   18  C15 UNK     1      25.877  -8.962  37.563  1.00  0.00     0.288 A 
ENDROOT
BRANCH   9  19
HETATM   19  C12 UNK     1      22.331  -6.985  38.706  1.00  0.00     0.096 C 
HETATM   20  N1  UNK     1      23.165  -5.931  38.853  1.00  0.00    -0.407 N 
HETATM   21  H12 UNK     1      23.466  -5.384  38.056  1.00  0.00     0.155 HD
HETATM   22  H13 UNK     1      23.497  -5.687  39.777  1.00  0.00     0.155 HD
ENDBRANCH   9  19
TORSDOF 1
ENDMDL
MODEL 4
REMARK VINA RESULT:      -7.4     22.808     25.066
REMARK  1 active torsions:
REMARK  status: ('A' for Active; 'I' for Inactive)
REMARK    1  A    between atoms: C12_17  and  C5_10 
ROOT
HETATM    1  O1  UNK     1      14.322   7.504   8.333  1.00  0.00    -0.332 OA
HETATM    2  O2  UNK     1       9.496   7.681   8.935  1.00  0.00    -0.274 OA
HETATM    3  O3  UNK     1      13.745   8.811  11.648  1.00  0.00    -0.289 OA
HETATM    4  O4  UNK     1       7.220   7.667   9.199  1.00  0.00    -0.260 OA
HETATM    5  C1  UNK     1      14.548   7.551   9.742  1.00  0.00     0.125 C 
HETATM    6  C2  UNK     1      11.915   7.713   8.664  1.00  0.00     0.048 A 
HETATM    7  C3  UNK     1      13.509   8.355  10.531  1.00  0.00     0.196 C 
HETATM    8  C4  UNK     1      13.030   7.266   7.940  1.00  0.00     0.084 A 
HETATM    9  C5  UNK     1      12.178   8.513   9.871  1.00  0.00     0.043 C 
HETATM   10  C6  UNK     1      15.916   8.224   9.912  1.00  0.00     0.055 C 
HETATM   11  C7  UNK     1      14.615   6.124  10.301  1.00  0.00     0.055 C 
HETATM   12  C8  UNK     1      10.647   7.345   8.181  1.00  0.00     0.103 A 
HETATM   13  C9  UNK     1      10.483   6.626   6.993  1.00  0.00    -0.001 A 
HETATM   14  C10 UNK     1      12.881   6.568   6.737  1.00  0.00     0.039 A 
HETATM   15  C11 UNK     1      11.610   6.251   6.262  1.00  0.00     0.017 A 
HETATM   16  C13 UNK     1       9.143   6.282   6.545  1.00  0.00     0.020 A 
HETATM   17  C14 UNK     1       8.074   6.626   7.266  1.00  0.00     0.083 A 
HETATM   18  C15 UNK     1       8.204   7.359   8.536  1.00  0.00     0.288 A 
ENDROOT
BRANCH   9  19
HETATM   19  C12 UNK     1      11.370   9.463  10.363  1.00  0.00     0.096 C 
HETATM   20  N1  UNK     1      10.817  10.504   9.701  1.00  0.00    -0.407 N 
HETATM   21  H12 UNK     1      10.986  10.647   8.714  1.00  0.00     0.155 HD
HETATM   22  H13 UNK     1      10.225  11.154  10.203  1.00  0.00     0.155 HD
ENDBRANCH   9  19
TORSDOF 1
ENDMDL
MODEL 5
REMARK VINA RESULT:      -7.4      4.935      7.822
REMARK  1 active torsions:
REMARK  status: ('A' for Active; 'I' for Inactive)
REMARK    1  A    between atoms: C12_17  and  C5_10 
ROOT
HETATM    1  O1  UNK     1      16.954  11.147  33.896  1.00  0.00    -0.332 OA
HETATM    2  O2  UNK     1      17.296   6.423  32.776  1.00  0.00    -0.274 OA
HETATM    3  O3  UNK     1      13.659  10.091  32.865  1.00  0.00    -0.289 OA
HETATM    4  O4  UNK     1      17.491   4.183  32.341  1.00  0.00    -0.260 OA
HETATM    5  C1  UNK     1      15.537  11.058  34.051  1.00  0.00     0.125 C 
HETATM    6  C2  UNK     1      17.076   8.807  33.223  1.00  0.00     0.048 A 
HETATM    7  C3  UNK     1      14.856  10.032  33.137  1.00  0.00     0.196 C 
HETATM    8  C4  UNK     1      17.625   9.954  33.812  1.00  0.00     0.084 A 
HETATM    9  C5  UNK     1      15.735   8.934  32.633  1.00  0.00     0.043 C 
HETATM   10  C6  UNK     1      15.001  12.452  33.702  1.00  0.00     0.055 C 
HETATM   11  C7  UNK     1      15.198  10.738  35.512  1.00  0.00     0.055 C 
HETATM   12  C8  UNK     1      17.849   7.633  33.262  1.00  0.00     0.103 A 
HETATM   13  C9  UNK     1      19.141   7.610  33.797  1.00  0.00    -0.001 A 
HETATM   14  C10 UNK     1      18.925   9.953  34.328  1.00  0.00     0.039 A 
HETATM   15  C11 UNK     1      19.684   8.785  34.319  1.00  0.00     0.017 A 
HETATM   16  C13 UNK     1      19.892   6.365  33.802  1.00  0.00     0.020 A 
HETATM   17  C14 UNK     1      19.353   5.243  33.321  1.00  0.00     0.083 A 
HETATM   18  C15 UNK     1      17.986   5.217  32.774  1.00  0.00     0.288 A 
ENDROOT
BRANCH   9  19
HETATM   19  C12 UNK     1      15.273   8.223  31.593  1.00  0.00     0.096 C 
HETATM   20  N1  UNK     1      14.295   7.289  31.599  1.00  0.00    -0.407 N 
HETATM   21  H12 UNK     1      13.807   7.045  32.451  1.00  0.00     0.155 HD
HETATM   22  H13 UNK     1      14.049   6.822  30.735  1.00  0.00     0.155 HD
ENDBRANCH   9  19
TORSDOF 1
ENDMDL
MODEL 6
REMARK VINA RESULT:      -7.3      2.160      4.695
REMARK  1 active torsions:
REMARK  status: ('A' for Active; 'I' for Inactive)
REMARK    1  A    between atoms: C12_17  and  C5_10 
ROOT
HETATM    1  O1  UNK     1      18.439  -1.138  34.913  1.00  0.00    -0.332 OA
HETATM    2  O2  UNK     1      18.519   2.682  31.899  1.00  0.00    -0.274 OA
HETATM    3  O3  UNK     1      17.083   1.656  36.755  1.00  0.00    -0.289 OA
HETATM    4  O4  UNK     1      18.502   4.428  30.416  1.00  0.00    -0.260 OA
HETATM    5  C1  UNK     1      17.465  -0.517  35.753  1.00  0.00     0.125 C 
HETATM    6  C2  UNK     1      18.543   0.839  33.490  1.00  0.00     0.048 A 
HETATM    7  C3  UNK     1      17.562   1.012  35.824  1.00  0.00     0.196 C 
HETATM    8  C4  UNK     1      18.648  -0.544  33.695  1.00  0.00     0.084 A 
HETATM    9  C5  UNK     1      18.242   1.669  34.667  1.00  0.00     0.043 C 
HETATM   10  C6  UNK     1      17.716  -1.086  37.156  1.00  0.00     0.055 C 
HETATM   11  C7  UNK     1      16.058  -0.914  35.292  1.00  0.00     0.055 C 
HETATM   12  C8  UNK     1      18.720   1.308  32.177  1.00  0.00     0.103 A 
HETATM   13  C9  UNK     1      19.057   0.455  31.121  1.00  0.00    -0.001 A 
HETATM   14  C10 UNK     1      19.009  -1.406  32.654  1.00  0.00     0.039 A 
HETATM   15  C11 UNK     1      19.217  -0.908  31.370  1.00  0.00     0.017 A 
HETATM   16  C13 UNK     1      19.233   1.003  29.786  1.00  0.00     0.020 A 
HETATM   17  C14 UNK     1      19.055   2.306  29.556  1.00  0.00     0.083 A 
HETATM   18  C15 UNK     1      18.672   3.234  30.633  1.00  0.00     0.288 A 
ENDROOT
BRANCH   9  19
HETATM   19  C12 UNK     1      18.632   2.941  34.840  1.00  0.00     0.096 C 
HETATM   20  N1  UNK     1      18.083   4.054  34.307  1.00  0.00    -0.407 N 
HETATM   21  H12 UNK     1      17.279   4.002  33.694  1.00  0.00     0.155 HD
HETATM   22  H13 UNK     1      18.486   4.958  34.520  1.00  0.00     0.155 HD
ENDBRANCH   9  19
TORSDOF 1
ENDMDL
MODEL 7
REMARK VINA RESULT:      -7.3      2.801      4.600
REMARK  1 active torsions:
REMARK  status: ('A' for Active; 'I' for Inactive)
REMARK    1  A    between atoms: C12_17  and  C5_10 
ROOT
HETATM    1  O1  UNK     1      17.623   6.473  33.794  1.00  0.00    -0.332 OA
HETATM    2  O2  UNK     1      18.374   3.295  30.185  1.00  0.00    -0.274 OA
HETATM    3  O3  UNK     1      16.856   8.204  30.720  1.00  0.00    -0.289 OA
HETATM    4  O4  UNK     1      18.663   1.738  28.530  1.00  0.00    -0.260 OA
HETATM    5  C1  UNK     1      16.800   7.295  32.964  1.00  0.00     0.125 C 
HETATM    6  C2  UNK     1      18.076   4.964  31.933  1.00  0.00     0.048 A 
HETATM    7  C3  UNK     1      17.187   7.297  31.481  1.00  0.00     0.196 C 
HETATM    8  C4  UNK     1      17.919   5.228  33.301  1.00  0.00     0.084 A 
HETATM    9  C5  UNK     1      17.958   6.106  31.013  1.00  0.00     0.043 C 
HETATM   10  C6  UNK     1      16.963   8.718  33.513  1.00  0.00     0.055 C 
HETATM   11  C7  UNK     1      15.334   6.865  33.104  1.00  0.00     0.055 C 
HETATM   12  C8  UNK     1      18.315   3.630  31.560  1.00  0.00     0.103 A 
HETATM   13  C9  UNK     1      18.465   2.609  32.504  1.00  0.00    -0.001 A 
HETATM   14  C10 UNK     1      18.091   4.222  34.258  1.00  0.00     0.039 A 
HETATM   15  C11 UNK     1      18.366   2.916  33.861  1.00  0.00     0.017 A 
HETATM   16  C13 UNK     1      18.718   1.250  32.054  1.00  0.00     0.020 A 
HETATM   17  C14 UNK     1      18.787   0.965  30.752  1.00  0.00     0.083 A 
HETATM   18  C15 UNK     1      18.607   2.005  29.724  1.00  0.00     0.288 A 
ENDROOT
BRANCH   9  19
HETATM   19  C12 UNK     1      18.586   6.221  29.833  1.00  0.00     0.096 C 
HETATM   20  N1  UNK     1      19.894   6.002  29.568  1.00  0.00    -0.407 N 
HETATM   21  H12 UNK     1      20.536   5.715  30.295  1.00  0.00     0.155 HD
HETATM   22  H13 UNK     1      20.237   6.132  28.624  1.00  0.00     0.155 HD
ENDBRANCH   9  19
TORSDOF 1
ENDMDL
MODEL 8
REMARK VINA RESULT:      -7.3     14.627     16.185
REMARK  1 active torsions:
REMARK  status: ('A' for Active; 'I' for Inactive)
REMARK    1  A    between atoms: C12_17  and  C5_10 
ROOT
HETATM    1  O1  UNK     1      30.104  -9.245  38.322  1.00  0.00    -0.332 OA
HETATM    2  O2  UNK     1      31.227  -4.667  37.109  1.00  0.00    -0.274 OA
HETATM    3  O3  UNK     1      27.136  -7.270  38.892  1.00  0.00    -0.289 OA
HETATM    4  O4  UNK     1      31.781  -2.545  36.447  1.00  0.00    -0.260 OA
HETATM    5  C1  UNK     1      28.704  -8.983  38.206  1.00  0.00     0.125 C 
HETATM    6  C2  UNK     1      30.628  -6.915  37.828  1.00  0.00     0.048 A 
HETATM    7  C3  UNK     1      28.287  -7.554  38.570  1.00  0.00     0.196 C 
HETATM    8  C4  UNK     1      30.938  -8.282  37.813  1.00  0.00     0.084 A 
HETATM    9  C5  UNK     1      29.364  -6.522  38.468  1.00  0.00     0.043 C 
HETATM   10  C6  UNK     1      28.028  -9.952  39.184  1.00  0.00     0.055 C 
HETATM   11  C7  UNK     1      28.237  -9.299  36.779  1.00  0.00     0.055 C 
HETATM   12  C8  UNK     1      31.545  -6.043  37.215  1.00  0.00     0.103 A 
HETATM   13  C9  UNK     1      32.753  -6.494  36.673  1.00  0.00    -0.001 A 
HETATM   14  C10 UNK     1      32.154  -8.745  37.298  1.00  0.00     0.039 A 
HETATM   15  C11 UNK     1      33.061  -7.853  36.732  1.00  0.00     0.017 A 
HETATM   16  C13 UNK     1      33.662  -5.540  36.059  1.00  0.00     0.020 A 
HETATM   17  C14 UNK     1      33.345  -4.245  35.989  1.00  0.00     0.083 A 
HETATM   18  C15 UNK     1      32.072  -3.733  36.521  1.00  0.00     0.288 A 
ENDROOT
BRANCH   9  19
HETATM   19  C12 UNK     1      29.134  -5.350  39.079  1.00  0.00     0.096 C 
HETATM   20  N1  UNK     1      28.384  -4.318  38.634  1.00  0.00    -0.407 N 
HETATM   21  H12 UNK     1      27.906  -4.362  37.743  1.00  0.00     0.155 HD
HETATM   22  H13 UNK     1      28.300  -3.484  39.201  1.00  0.00     0.155 HD
ENDBRANCH   9  19
TORSDOF 1
ENDMDL
MODEL 9
REMARK VINA RESULT:      -7.3     15.021     16.288
REMARK  1 active torsions:
REMARK  status: ('A' for Active; 'I' for Inactive)
REMARK    1  A    between atoms: C12_17  and  C5_10 
ROOT
HETATM    1  O1  UNK     1      32.552  -4.365  36.793  1.00  0.00    -0.332 OA
HETATM    2  O2  UNK     1      29.756  -8.153  38.029  1.00  0.00    -0.274 OA
HETATM    3  O3  UNK     1      33.769  -7.200  34.918  1.00  0.00    -0.289 OA
HETATM    4  O4  UNK     1      28.361  -9.883  38.582  1.00  0.00    -0.260 OA
HETATM    5  C1  UNK     1      32.981  -5.011  35.594  1.00  0.00     0.125 C 
HETATM    6  C2  UNK     1      31.255  -6.326  37.442  1.00  0.00     0.048 A 
HETATM    7  C3  UNK     1      33.076  -6.539  35.688  1.00  0.00     0.196 C 
HETATM    8  C4  UNK     1      31.489  -4.943  37.439  1.00  0.00     0.084 A 
HETATM    9  C5  UNK     1      32.240  -7.173  36.752  1.00  0.00     0.043 C 
HETATM   10  C6  UNK     1      34.381  -4.453  35.310  1.00  0.00     0.055 C 
HETATM   11  C7  UNK     1      32.044  -4.633  34.440  1.00  0.00     0.055 C 
HETATM   12  C8  UNK     1      30.092  -6.778  38.090  1.00  0.00     0.103 A 
HETATM   13  C9  UNK     1      29.233  -5.909  38.770  1.00  0.00    -0.001 A 
HETATM   14  C10 UNK     1      30.652  -4.065  38.135  1.00  0.00     0.039 A 
HETATM   15  C11 UNK     1      29.528  -4.546  38.802  1.00  0.00     0.017 A 
HETATM   16  C13 UNK     1      28.050  -6.441  39.426  1.00  0.00     0.020 A 
HETATM   17  C14 UNK     1      27.766  -7.744  39.368  1.00  0.00     0.083 A 
HETATM   18  C15 UNK     1      28.629  -8.689  38.640  1.00  0.00     0.288 A 
ENDROOT
BRANCH   9  19
HETATM   19  C12 UNK     1      32.538  -8.439  37.077  1.00  0.00     0.096 C 
HETATM   20  N1  UNK     1      32.074  -9.572  36.504  1.00  0.00    -0.407 N 
HETATM   21  H12 UNK     1      31.422  -9.540  35.731  1.00  0.00     0.155 HD
HETATM   22  H13 UNK     1      32.382 -10.470  36.856  1.00  0.00     0.155 HD
ENDBRANCH   9  19
TORSDOF 1
ENDMDL
MODEL 10
REMARK VINA RESULT:      -7.2     22.874     23.908
REMARK  1 active torsions:
REMARK  status: ('A' for Active; 'I' for Inactive)
REMARK    1  A    between atoms: C12_17  and  C5_10 
ROOT
HETATM    1  O1  UNK     1      12.047   5.358   9.423  1.00  0.00    -0.332 OA
HETATM    2  O2  UNK     1      15.151   9.080   9.866  1.00  0.00    -0.274 OA
HETATM    3  O3  UNK     1      10.142   8.366   8.825  1.00  0.00    -0.289 OA
HETATM    4  O4  UNK     1      16.669  10.790  10.004  1.00  0.00    -0.260 OA
HETATM    5  C1  UNK     1      11.121   6.155   8.682  1.00  0.00     0.125 C 
HETATM    6  C2  UNK     1      13.525   7.273   9.729  1.00  0.00     0.048 A 
HETATM    7  C3  UNK     1      11.103   7.639   9.068  1.00  0.00     0.196 C 
HETATM    8  C4  UNK     1      13.296   5.896   9.598  1.00  0.00     0.084 A 
HETATM    9  C5  UNK     1      12.344   8.151   9.721  1.00  0.00     0.043 C 
HETATM   10  C6  UNK     1       9.740   5.557   8.981  1.00  0.00     0.055 C 
HETATM   11  C7  UNK     1      11.414   6.026   7.183  1.00  0.00     0.055 C 
HETATM   12  C8  UNK     1      14.862   7.693   9.840  1.00  0.00     0.103 A 
HETATM   13  C9  UNK     1      15.925   6.787   9.891  1.00  0.00    -0.001 A 
HETATM   14  C10 UNK     1      14.347   4.976   9.674  1.00  0.00     0.039 A 
HETATM   15  C11 UNK     1      15.659   5.419   9.823  1.00  0.00     0.017 A 
HETATM   16  C13 UNK     1      17.286   7.286  10.013  1.00  0.00     0.020 A 
HETATM   17  C14 UNK     1      17.529   8.597  10.054  1.00  0.00     0.083 A 
HETATM   18  C15 UNK     1      16.441   9.587   9.974  1.00  0.00     0.288 A 
ENDROOT
BRANCH   9  19
HETATM   19  C12 UNK     1      12.249   9.329  10.357  1.00  0.00     0.096 C 
HETATM   20  N1  UNK     1      12.340  10.567   9.823  1.00  0.00    -0.407 N 
HETATM   21  H12 UNK     1      12.497  10.702   8.832  1.00  0.00     0.155 HD
HETATM   22  H13 UNK     1      12.252  11.376  10.426  1.00  0.00     0.155 HD
ENDBRANCH   9  19
TORSDOF 1
ENDMDL
