MODEL 1
REMARK VINA RESULT:      -9.0      0.000      0.000
REMARK  3 active torsions:
REMARK  status: ('A' for Active; 'I' for Inactive)
REMARK    1  A    between atoms: C10_15  and  S1_1 
REMARK    2  A    between atoms: C5_10  and  N1_5 
REMARK       I    between atoms: C6_11  and  N1_5 
REMARK    3  A    between atoms: C2_7  and  C6_11 
ROOT
HETATM    1  O2  UNK     1      21.538  -4.431  37.133  1.00  0.00    -0.267 OA
HETATM    2  N1  UNK     1      19.306  -5.159  37.317  1.00  0.00    -0.322 N 
HETATM    3  C6  UNK     1      20.324  -4.261  37.031  1.00  0.00     0.262 C 
HETATM    4  H3  UNK     1      18.342  -4.856  37.200  1.00  0.00     0.169 HD
ENDROOT
BRANCH   3   5
HETATM    5  C2  UNK     1      19.808  -2.972  36.553  1.00  0.00     0.108 A 
HETATM    6  C4  UNK     1      19.097  -2.256  37.433  1.00  0.00     0.037 A 
HETATM    7  C1  UNK     1      18.544  -0.966  37.051  1.00  0.00    -0.001 A 
HETATM    8  C3  UNK     1      18.767  -0.492  35.762  1.00  0.00     0.089 A 
HETATM    9  C7  UNK     1      17.796  -0.186  37.936  1.00  0.00     0.014 A 
HETATM   10  O1  UNK     1      19.516  -1.250  34.841  1.00  0.00    -0.274 OA
HETATM   11  C9  UNK     1      18.264   0.734  35.334  1.00  0.00     0.038 A 
HETATM   12  C8  UNK     1      20.058  -2.488  35.177  1.00  0.00     0.304 A 
HETATM   13  O3  UNK     1      20.708  -3.141  34.368  1.00  0.00    -0.259 OA
HETATM   14  C13 UNK     1      17.519   1.506  36.222  1.00  0.00     0.003 A 
HETATM   15  C12 UNK     1      17.286   1.048  37.521  1.00  0.00     0.001 A 
ENDBRANCH   3   5
BRANCH   2  16
HETATM   16  C5  UNK     1      19.434  -6.486  37.795  1.00  0.00     0.051 A 
HETATM   17  C10 UNK     1      19.151  -7.570  36.981  1.00  0.00     0.026 A 
HETATM   18  C14 UNK     1      19.290  -8.862  37.490  1.00  0.00     0.021 A 
HETATM   19  C16 UNK     1      19.708  -9.053  38.806  1.00  0.00     0.002 A 
HETATM   20  C15 UNK     1      19.989  -7.951  39.615  1.00  0.00     0.002 A 
HETATM   21  C11 UNK     1      19.851  -6.659  39.105  1.00  0.00     0.031 A 
BRANCH  17  22
HETATM   22  S1  UNK     1      18.607  -7.388  35.285  1.00  0.00    -0.132 SA
HETATM   23  C17 UNK     1      20.172  -7.042  34.438  1.00  0.00     0.095 C 
ENDBRANCH  17  22
ENDBRANCH   2  16
TORSDOF 3
ENDMDL
MODEL 2
REMARK VINA RESULT:      -8.7      7.384     11.469
REMARK  3 active torsions:
REMARK  status: ('A' for Active; 'I' for Inactive)
REMARK    1  A    between atoms: C10_15  and  S1_1 
REMARK    2  A    between atoms: C5_10  and  N1_5 
REMARK       I    between atoms: C6_11  and  N1_5 
REMARK    3  A    between atoms: C2_7  and  C6_11 
ROOT
HETATM    1  O2  UNK     1      18.681   4.718  30.194  1.00  0.00    -0.267 OA
HETATM    2  N1  UNK     1      17.663   4.638  32.316  1.00  0.00    -0.322 N 
HETATM    3  C6  UNK     1      18.337   4.127  31.216  1.00  0.00     0.262 C 
HETATM    4  H3  UNK     1      17.430   4.010  33.080  1.00  0.00     0.169 HD
ENDROOT
BRANCH   3   5
HETATM    5  C2  UNK     1      18.641   2.699  31.368  1.00  0.00     0.108 A 
HETATM    6  C4  UNK     1      19.173   2.091  30.301  1.00  0.00     0.037 A 
HETATM    7  C1  UNK     1      19.508   0.676  30.355  1.00  0.00    -0.001 A 
HETATM    8  C3  UNK     1      19.267  -0.029  31.530  1.00  0.00     0.089 A 
HETATM    9  C7  UNK     1      20.064   0.001  29.266  1.00  0.00     0.014 A 
HETATM   10  O1  UNK     1      18.707   0.617  32.649  1.00  0.00    -0.274 OA
HETATM   11  C9  UNK     1      19.564  -1.385  31.646  1.00  0.00     0.038 A 
HETATM   12  C8  UNK     1      18.376   1.969  32.628  1.00  0.00     0.304 A 
HETATM   13  O3  UNK     1      17.887   2.523  33.607  1.00  0.00    -0.259 OA
HETATM   14  C13 UNK     1      20.118  -2.051  30.555  1.00  0.00     0.003 A 
HETATM   15  C12 UNK     1      20.369  -1.360  29.368  1.00  0.00     0.001 A 
ENDBRANCH   3   5
BRANCH   2  16
HETATM   16  C5  UNK     1      17.215   5.967  32.513  1.00  0.00     0.051 A 
HETATM   17  C10 UNK     1      17.928   6.853  33.304  1.00  0.00     0.026 A 
HETATM   18  C14 UNK     1      17.453   8.155  33.473  1.00  0.00     0.021 A 
HETATM   19  C16 UNK     1      16.271   8.553  32.849  1.00  0.00     0.002 A 
HETATM   20  C15 UNK     1      15.564   7.649  32.055  1.00  0.00     0.002 A 
HETATM   21  C11 UNK     1      16.039   6.349  31.885  1.00  0.00     0.031 A 
BRANCH  17  22
HETATM   22  S1  UNK     1      19.448   6.399  34.133  1.00  0.00    -0.132 SA
HETATM   23  C17 UNK     1      20.653   6.548  32.787  1.00  0.00     0.095 C 
ENDBRANCH  17  22
ENDBRANCH   2  16
TORSDOF 3
ENDMDL
MODEL 3
REMARK VINA RESULT:      -8.6      1.950      7.047
REMARK  3 active torsions:
REMARK  status: ('A' for Active; 'I' for Inactive)
REMARK    1  A    between atoms: C10_15  and  S1_1 
REMARK    2  A    between atoms: C5_10  and  N1_5 
REMARK       I    between atoms: C6_11  and  N1_5 
REMARK    3  A    between atoms: C2_7  and  C6_11 
ROOT
HETATM    1  O2  UNK     1      21.071  -3.601  37.624  1.00  0.00    -0.267 OA
HETATM    2  N1  UNK     1      18.940  -3.556  36.624  1.00  0.00    -0.322 N 
HETATM    3  C6  UNK     1      20.088  -4.149  37.128  1.00  0.00     0.262 C 
HETATM    4  H3  UNK     1      18.218  -4.151  36.225  1.00  0.00     0.169 HD
ENDROOT
BRANCH   3   5
HETATM    5  C2  UNK     1      20.047  -5.613  37.022  1.00  0.00     0.108 A 
HETATM    6  C4  UNK     1      19.936  -6.287  38.173  1.00  0.00     0.037 A 
HETATM    7  C1  UNK     1      19.888  -7.741  38.170  1.00  0.00    -0.001 A 
HETATM    8  C3  UNK     1      19.959  -8.414  36.955  1.00  0.00     0.089 A 
HETATM    9  C7  UNK     1      19.773  -8.484  39.347  1.00  0.00     0.014 A 
HETATM   10  O1  UNK     1      20.076  -7.699  35.747  1.00  0.00    -0.274 OA
HETATM   11  C9  UNK     1      19.920  -9.805  36.883  1.00  0.00     0.038 A 
HETATM   12  C8  UNK     1      20.124  -6.309  35.718  1.00  0.00     0.304 A 
HETATM   13  O3  UNK     1      20.227  -5.694  34.661  1.00  0.00    -0.259 OA
HETATM   14  C13 UNK     1      19.805 -10.539  38.061  1.00  0.00     0.003 A 
HETATM   15  C12 UNK     1      19.731  -9.881  39.291  1.00  0.00     0.001 A 
ENDBRANCH   3   5
BRANCH   2  16
HETATM   16  C5  UNK     1      18.637  -2.174  36.565  1.00  0.00     0.051 A 
HETATM   17  C10 UNK     1      19.003  -1.408  35.469  1.00  0.00     0.026 A 
HETATM   18  C14 UNK     1      18.687  -0.049  35.449  1.00  0.00     0.021 A 
HETATM   19  C16 UNK     1      18.009   0.527  36.523  1.00  0.00     0.002 A 
HETATM   20  C15 UNK     1      17.647  -0.257  37.619  1.00  0.00     0.002 A 
HETATM   21  C11 UNK     1      17.962  -1.616  37.639  1.00  0.00     0.031 A 
BRANCH  17  22
HETATM   22  S1  UNK     1      19.878  -2.089  34.064  1.00  0.00    -0.132 SA
HETATM   23  C17 UNK     1      18.985  -1.331  32.680  1.00  0.00     0.095 C 
ENDBRANCH  17  22
ENDBRANCH   2  16
TORSDOF 3
ENDMDL
MODEL 4
REMARK VINA RESULT:      -8.6      5.641      8.642
REMARK  3 active torsions:
REMARK  status: ('A' for Active; 'I' for Inactive)
REMARK    1  A    between atoms: C10_15  and  S1_1 
REMARK    2  A    between atoms: C5_10  and  N1_5 
REMARK       I    between atoms: C6_11  and  N1_5 
REMARK    3  A    between atoms: C2_7  and  C6_11 
ROOT
HETATM    1  O2  UNK     1      17.536   2.087  30.149  1.00  0.00    -0.267 OA
HETATM    2  N1  UNK     1      19.340   1.377  31.485  1.00  0.00    -0.322 N 
HETATM    3  C6  UNK     1      18.302   2.214  31.103  1.00  0.00     0.262 C 
HETATM    4  H3  UNK     1      19.901   1.634  32.294  1.00  0.00     0.169 HD
ENDROOT
BRANCH   3   5
HETATM    5  C2  UNK     1      18.163   3.369  31.999  1.00  0.00     0.108 A 
HETATM    6  C4  UNK     1      17.995   4.558  31.409  1.00  0.00     0.037 A 
HETATM    7  C1  UNK     1      17.848   5.762  32.213  1.00  0.00    -0.001 A 
HETATM    8  C3  UNK     1      17.885   5.653  33.600  1.00  0.00     0.089 A 
HETATM    9  C7  UNK     1      17.672   7.023  31.640  1.00  0.00     0.014 A 
HETATM   10  O1  UNK     1      18.062   4.398  34.214  1.00  0.00    -0.274 OA
HETATM   11  C9  UNK     1      17.753   6.767  34.427  1.00  0.00     0.038 A 
HETATM   12  C8  UNK     1      18.205   3.230  33.472  1.00  0.00     0.304 A 
HETATM   13  O3  UNK     1      18.359   2.141  34.016  1.00  0.00    -0.259 OA
HETATM   14  C13 UNK     1      17.577   8.021  33.847  1.00  0.00     0.003 A 
HETATM   15  C12 UNK     1      17.536   8.149  32.457  1.00  0.00     0.001 A 
ENDBRANCH   3   5
BRANCH   2  16
HETATM   16  C5  UNK     1      19.759   0.179  30.857  1.00  0.00     0.051 A 
HETATM   17  C10 UNK     1      19.650  -1.043  31.502  1.00  0.00     0.026 A 
HETATM   18  C14 UNK     1      20.074  -2.201  30.850  1.00  0.00     0.021 A 
HETATM   19  C16 UNK     1      20.602  -2.123  29.561  1.00  0.00     0.002 A 
HETATM   20  C15 UNK     1      20.706  -0.886  28.924  1.00  0.00     0.002 A 
HETATM   21  C11 UNK     1      20.281   0.272  29.577  1.00  0.00     0.031 A 
BRANCH  17  22
HETATM   22  S1  UNK     1      18.985  -1.205  33.156  1.00  0.00    -0.132 SA
HETATM   23  C17 UNK     1      20.159  -2.365  33.906  1.00  0.00     0.095 C 
ENDBRANCH  17  22
ENDBRANCH   2  16
TORSDOF 3
ENDMDL
MODEL 5
REMARK VINA RESULT:      -8.3      6.235      9.101
REMARK  3 active torsions:
REMARK  status: ('A' for Active; 'I' for Inactive)
REMARK    1  A    between atoms: C10_15  and  S1_1 
REMARK    2  A    between atoms: C5_10  and  N1_5 
REMARK       I    between atoms: C6_11  and  N1_5 
REMARK    3  A    between atoms: C2_7  and  C6_11 
ROOT
HETATM    1  O2  UNK     1      17.178   2.482  30.488  1.00  0.00    -0.267 OA
HETATM    2  N1  UNK     1      19.407   2.113  31.151  1.00  0.00    -0.322 N 
HETATM    3  C6  UNK     1      18.241   2.848  30.985  1.00  0.00     0.262 C 
HETATM    4  H3  UNK     1      20.216   2.570  31.564  1.00  0.00     0.169 HD
ENDROOT
BRANCH   3   5
HETATM    5  C2  UNK     1      18.375   4.220  31.490  1.00  0.00     0.108 A 
HETATM    6  C4  UNK     1      17.734   4.494  32.633  1.00  0.00     0.037 A 
HETATM    7  C1  UNK     1      17.807   5.827  33.212  1.00  0.00    -0.001 A 
HETATM    8  C3  UNK     1      18.551   6.805  32.560  1.00  0.00     0.089 A 
HETATM    9  C7  UNK     1      17.155   6.158  34.402  1.00  0.00     0.014 A 
HETATM   10  O1  UNK     1      19.223   6.510  31.358  1.00  0.00    -0.274 OA
HETATM   11  C9  UNK     1      18.660   8.101  33.061  1.00  0.00     0.038 A 
HETATM   12  C8  UNK     1      19.173   5.245  30.779  1.00  0.00     0.304 A 
HETATM   13  O3  UNK     1      19.760   4.997  29.732  1.00  0.00    -0.259 OA
HETATM   14  C13 UNK     1      18.006   8.423  34.248  1.00  0.00     0.003 A 
HETATM   15  C12 UNK     1      17.255   7.454  34.918  1.00  0.00     0.001 A 
ENDBRANCH   3   5
BRANCH   2  16
HETATM   16  C5  UNK     1      19.637   0.765  30.783  1.00  0.00     0.051 A 
HETATM   17  C10 UNK     1      19.352  -0.274  31.654  1.00  0.00     0.026 A 
HETATM   18  C14 UNK     1      19.594  -1.588  31.253  1.00  0.00     0.021 A 
HETATM   19  C16 UNK     1      20.118  -1.847  29.987  1.00  0.00     0.002 A 
HETATM   20  C15 UNK     1      20.401  -0.790  29.120  1.00  0.00     0.002 A 
HETATM   21  C11 UNK     1      20.158   0.524  29.521  1.00  0.00     0.031 A 
BRANCH  17  22
HETATM   22  S1  UNK     1      18.682  -0.004  33.292  1.00  0.00    -0.132 SA
HETATM   23  C17 UNK     1      19.196  -1.517  34.147  1.00  0.00     0.095 C 
ENDBRANCH  17  22
ENDBRANCH   2  16
TORSDOF 3
ENDMDL
MODEL 6
REMARK VINA RESULT:      -8.2      7.929     11.425
REMARK  3 active torsions:
REMARK  status: ('A' for Active; 'I' for Inactive)
REMARK    1  A    between atoms: C10_15  and  S1_1 
REMARK    2  A    between atoms: C5_10  and  N1_5 
REMARK       I    between atoms: C6_11  and  N1_5 
REMARK    3  A    between atoms: C2_7  and  C6_11 
ROOT
HETATM    1  O2  UNK     1      17.630   3.096  33.063  1.00  0.00    -0.267 OA
HETATM    2  N1  UNK     1      18.347   4.675  31.470  1.00  0.00    -0.322 N 
HETATM    3  C6  UNK     1      18.147   3.405  31.991  1.00  0.00     0.262 C 
HETATM    4  H3  UNK     1      18.813   4.766  30.571  1.00  0.00     0.169 HD
ENDROOT
BRANCH   3   5
HETATM    5  C2  UNK     1      18.639   2.354  31.091  1.00  0.00     0.108 A 
HETATM    6  C4  UNK     1      19.033   1.215  31.673  1.00  0.00     0.037 A 
HETATM    7  C1  UNK     1      19.537   0.115  30.863  1.00  0.00    -0.001 A 
HETATM    8  C3  UNK     1      19.600   0.270  29.482  1.00  0.00     0.089 A 
HETATM    9  C7  UNK     1      19.959  -1.091  31.427  1.00  0.00     0.014 A 
HETATM   10  O1  UNK     1      19.184   1.471  28.877  1.00  0.00    -0.274 OA
HETATM   11  C9  UNK     1      20.073  -0.744  28.652  1.00  0.00     0.038 A 
HETATM   12  C8  UNK     1      18.698   2.540  29.624  1.00  0.00     0.304 A 
HETATM   13  O3  UNK     1      18.338   3.584  29.089  1.00  0.00    -0.259 OA
HETATM   14  C13 UNK     1      20.493  -1.944  29.222  1.00  0.00     0.003 A 
HETATM   15  C12 UNK     1      20.435  -2.118  30.606  1.00  0.00     0.001 A 
ENDBRANCH   3   5
BRANCH   2  16
HETATM   16  C5  UNK     1      17.999   5.915  32.061  1.00  0.00     0.051 A 
HETATM   17  C10 UNK     1      18.959   6.720  32.652  1.00  0.00     0.026 A 
HETATM   18  C14 UNK     1      18.575   7.935  33.223  1.00  0.00     0.021 A 
HETATM   19  C16 UNK     1      17.238   8.327  33.196  1.00  0.00     0.002 A 
HETATM   20  C15 UNK     1      16.282   7.506  32.597  1.00  0.00     0.002 A 
HETATM   21  C11 UNK     1      16.665   6.292  32.026  1.00  0.00     0.031 A 
BRANCH  17  22
HETATM   22  S1  UNK     1      20.690   6.268  32.720  1.00  0.00    -0.132 SA
HETATM   23  C17 UNK     1      21.050   5.950  30.973  1.00  0.00     0.095 C 
ENDBRANCH  17  22
ENDBRANCH   2  16
TORSDOF 3
ENDMDL
MODEL 7
REMARK VINA RESULT:      -8.2     19.751     21.594
REMARK  3 active torsions:
REMARK  status: ('A' for Active; 'I' for Inactive)
REMARK    1  A    between atoms: C10_15  and  S1_1 
REMARK    2  A    between atoms: C5_10  and  N1_5 
REMARK       I    between atoms: C6_11  and  N1_5 
REMARK    3  A    between atoms: C2_7  and  C6_11 
ROOT
HETATM    1  O2  UNK     1      17.873  -3.239  15.898  1.00  0.00    -0.267 OA
HETATM    2  N1  UNK     1      20.037  -3.046  14.989  1.00  0.00    -0.322 N 
HETATM    3  C6  UNK     1      18.893  -2.603  15.637  1.00  0.00     0.262 C 
HETATM    4  H3  UNK     1      20.794  -2.385  14.829  1.00  0.00     0.169 HD
ENDROOT
BRANCH   3   5
HETATM    5  C2  UNK     1      18.991  -1.191  16.031  1.00  0.00     0.108 A 
HETATM    6  C4  UNK     1      18.832  -0.928  17.333  1.00  0.00     0.037 A 
HETATM    7  C1  UNK     1      18.912   0.442  17.819  1.00  0.00    -0.001 A 
HETATM    8  C3  UNK     1      19.154   1.466  16.909  1.00  0.00     0.089 A 
HETATM    9  C7  UNK     1      18.752   0.762  19.169  1.00  0.00     0.014 A 
HETATM   10  O1  UNK     1      19.320   1.181  15.540  1.00  0.00    -0.274 OA
HETATM   11  C9  UNK     1      19.240   2.797  17.310  1.00  0.00     0.038 A 
HETATM   12  C8  UNK     1      19.250  -0.118  15.045  1.00  0.00     0.304 A 
HETATM   13  O3  UNK     1      19.395  -0.356  13.851  1.00  0.00    -0.259 OA
HETATM   14  C13 UNK     1      19.080   3.109  18.658  1.00  0.00     0.003 A 
HETATM   15  C12 UNK     1      18.837   2.094  19.586  1.00  0.00     0.001 A 
ENDBRANCH   3   5
BRANCH   2  16
HETATM   16  C5  UNK     1      20.291  -4.341  14.475  1.00  0.00     0.051 A 
HETATM   17  C10 UNK     1      20.027  -4.649  13.150  1.00  0.00     0.026 A 
HETATM   18  C14 UNK     1      20.291  -5.937  12.682  1.00  0.00     0.021 A 
HETATM   19  C16 UNK     1      20.816  -6.899  13.544  1.00  0.00     0.002 A 
HETATM   20  C15 UNK     1      21.077  -6.574  14.875  1.00  0.00     0.002 A 
HETATM   21  C11 UNK     1      20.814  -5.286  15.343  1.00  0.00     0.031 A 
BRANCH  17  22
HETATM   22  S1  UNK     1      19.350  -3.458  11.998  1.00  0.00    -0.132 SA
HETATM   23  C17 UNK     1      20.156  -3.951  10.452  1.00  0.00     0.095 C 
ENDBRANCH  17  22
ENDBRANCH   2  16
TORSDOF 3
ENDMDL
MODEL 8
REMARK VINA RESULT:      -8.1      1.147      2.171
REMARK  3 active torsions:
REMARK  status: ('A' for Active; 'I' for Inactive)
REMARK    1  A    between atoms: C10_15  and  S1_1 
REMARK    2  A    between atoms: C5_10  and  N1_5 
REMARK       I    between atoms: C6_11  and  N1_5 
REMARK    3  A    between atoms: C2_7  and  C6_11 
ROOT
HETATM    1  O2  UNK     1      21.387  -4.587  37.171  1.00  0.00    -0.267 OA
HETATM    2  N1  UNK     1      19.854  -5.563  35.674  1.00  0.00    -0.322 N 
HETATM    3  C6  UNK     1      20.463  -4.523  36.362  1.00  0.00     0.262 C 
HETATM    4  H3  UNK     1      19.080  -5.347  35.050  1.00  0.00     0.169 HD
ENDROOT
BRANCH   3   5
HETATM    5  C2  UNK     1      19.877  -3.219  36.028  1.00  0.00     0.108 A 
HETATM    6  C4  UNK     1      19.153  -2.633  36.988  1.00  0.00     0.037 A 
HETATM    7  C1  UNK     1      18.532  -1.338  36.751  1.00  0.00    -0.001 A 
HETATM    8  C3  UNK     1      18.705  -0.726  35.514  1.00  0.00     0.089 A 
HETATM    9  C7  UNK     1      17.768  -0.690  37.723  1.00  0.00     0.014 A 
HETATM   10  O1  UNK     1      19.468  -1.348  34.507  1.00  0.00    -0.274 OA
HETATM   11  C9  UNK     1      18.136   0.512  35.222  1.00  0.00     0.038 A 
HETATM   12  C8  UNK     1      20.075  -2.585  34.705  1.00  0.00     0.304 A 
HETATM   13  O3  UNK     1      20.737  -3.121  33.822  1.00  0.00    -0.259 OA
HETATM   14  C13 UNK     1      17.375   1.152  36.198  1.00  0.00     0.003 A 
HETATM   15  C12 UNK     1      17.192   0.553  37.446  1.00  0.00     0.001 A 
ENDBRANCH   3   5
BRANCH   2  16
HETATM   16  C5  UNK     1      20.159  -6.944  35.749  1.00  0.00     0.051 A 
HETATM   17  C10 UNK     1      19.723  -7.716  36.813  1.00  0.00     0.026 A 
HETATM   18  C14 UNK     1      20.045  -9.074  36.850  1.00  0.00     0.021 A 
HETATM   19  C16 UNK     1      20.798  -9.640  35.823  1.00  0.00     0.002 A 
HETATM   20  C15 UNK     1      21.231  -8.850  34.758  1.00  0.00     0.002 A 
HETATM   21  C11 UNK     1      20.908  -7.493  34.720  1.00  0.00     0.031 A 
BRANCH  17  22
HETATM   22  S1  UNK     1      18.756  -7.045  38.162  1.00  0.00    -0.132 SA
HETATM   23  C17 UNK     1      20.010  -6.880  39.460  1.00  0.00     0.095 C 
ENDBRANCH  17  22
ENDBRANCH   2  16
TORSDOF 3
ENDMDL
MODEL 9
REMARK VINA RESULT:      -8.0     19.134     21.100
REMARK  3 active torsions:
REMARK  status: ('A' for Active; 'I' for Inactive)
REMARK    1  A    between atoms: C10_15  and  S1_1 
REMARK    2  A    between atoms: C5_10  and  N1_5 
REMARK       I    between atoms: C6_11  and  N1_5 
REMARK    3  A    between atoms: C2_7  and  C6_11 
ROOT
HETATM    1  O2  UNK     1      17.627  -2.098  15.950  1.00  0.00    -0.267 OA
HETATM    2  N1  UNK     1      19.671  -1.595  14.894  1.00  0.00    -0.322 N 
HETATM    3  C6  UNK     1      18.664  -1.447  15.838  1.00  0.00     0.262 C 
HETATM    4  H3  UNK     1      20.463  -0.957  14.922  1.00  0.00     0.169 HD
ENDROOT
BRANCH   3   5
HETATM    5  C2  UNK     1      18.947  -0.359  16.783  1.00  0.00     0.108 A 
HETATM    6  C4  UNK     1      18.928  -0.685  18.081  1.00  0.00     0.037 A 
HETATM    7  C1  UNK     1      19.196   0.326  19.094  1.00  0.00    -0.001 A 
HETATM    8  C3  UNK     1      19.471   1.628  18.689  1.00  0.00     0.089 A 
HETATM    9  C7  UNK     1      19.186   0.032  20.459  1.00  0.00     0.014 A 
HETATM   10  O1  UNK     1      19.490   1.963  17.321  1.00  0.00    -0.274 OA
HETATM   11  C9  UNK     1      19.734   2.642  19.608  1.00  0.00     0.038 A 
HETATM   12  C8  UNK     1      19.238   1.020  16.330  1.00  0.00     0.304 A 
HETATM   13  O3  UNK     1      19.255   1.321  15.141  1.00  0.00    -0.259 OA
HETATM   14  C13 UNK     1      19.722   2.340  20.968  1.00  0.00     0.003 A 
HETATM   15  C12 UNK     1      19.450   1.038  21.393  1.00  0.00     0.001 A 
ENDBRANCH   3   5
BRANCH   2  16
HETATM   16  C5  UNK     1      19.732  -2.536  13.837  1.00  0.00     0.051 A 
HETATM   17  C10 UNK     1      20.245  -3.807  14.040  1.00  0.00     0.026 A 
HETATM   18  C14 UNK     1      20.288  -4.705  12.973  1.00  0.00     0.021 A 
HETATM   19  C16 UNK     1      19.818  -4.321  11.718  1.00  0.00     0.002 A 
HETATM   20  C15 UNK     1      19.305  -3.037  11.528  1.00  0.00     0.002 A 
HETATM   21  C11 UNK     1      19.262  -2.139  12.595  1.00  0.00     0.031 A 
BRANCH  17  22
HETATM   22  S1  UNK     1      20.864  -4.357  15.627  1.00  0.00    -0.132 SA
HETATM   23  C17 UNK     1      21.170  -6.115  15.308  1.00  0.00     0.095 C 
ENDBRANCH  17  22
ENDBRANCH   2  16
TORSDOF 3
ENDMDL
MODEL 10
REMARK VINA RESULT:      -8.0      8.346     11.716
REMARK  3 active torsions:
REMARK  status: ('A' for Active; 'I' for Inactive)
REMARK    1  A    between atoms: C10_15  and  S1_1 
REMARK    2  A    between atoms: C5_10  and  N1_5 
REMARK       I    between atoms: C6_11  and  N1_5 
REMARK    3  A    between atoms: C2_7  and  C6_11 
ROOT
HETATM    1  O2  UNK     1      17.502   3.869  32.902  1.00  0.00    -0.267 OA
HETATM    2  N1  UNK     1      19.110   5.203  31.815  1.00  0.00    -0.322 N 
HETATM    3  C6  UNK     1      18.362   4.057  32.043  1.00  0.00     0.262 C 
HETATM    4  H3  UNK     1      19.804   5.193  31.071  1.00  0.00     0.169 HD
ENDROOT
BRANCH   3   5
HETATM    5  C2  UNK     1      18.695   2.982  31.100  1.00  0.00     0.108 A 
HETATM    6  C4  UNK     1      19.052   1.811  31.641  1.00  0.00     0.037 A 
HETATM    7  C1  UNK     1      19.401   0.685  30.787  1.00  0.00    -0.001 A 
HETATM    8  C3  UNK     1      19.356   0.848  29.406  1.00  0.00     0.089 A 
HETATM    9  C7  UNK     1      19.779  -0.554  31.307  1.00  0.00     0.014 A 
HETATM   10  O1  UNK     1      18.980   2.083  28.844  1.00  0.00    -0.274 OA
HETATM   11  C9  UNK     1      19.679  -0.189  28.534  1.00  0.00     0.038 A 
HETATM   12  C8  UNK     1      18.640   3.178  29.634  1.00  0.00     0.304 A 
HETATM   13  O3  UNK     1      18.315   4.250  29.135  1.00  0.00    -0.259 OA
HETATM   14  C13 UNK     1      20.056  -1.422  29.061  1.00  0.00     0.003 A 
HETATM   15  C12 UNK     1      20.105  -1.605  30.445  1.00  0.00     0.001 A 
ENDBRANCH   3   5
BRANCH   2  16
HETATM   16  C5  UNK     1      19.054   6.426  32.527  1.00  0.00     0.051 A 
HETATM   17  C10 UNK     1      18.000   7.308  32.352  1.00  0.00     0.026 A 
HETATM   18  C14 UNK     1      17.981   8.504  33.072  1.00  0.00     0.021 A 
HETATM   19  C16 UNK     1      19.017   8.801  33.957  1.00  0.00     0.002 A 
HETATM   20  C15 UNK     1      20.072   7.904  34.122  1.00  0.00     0.002 A 
HETATM   21  C11 UNK     1      20.090   6.708  33.403  1.00  0.00     0.031 A 
BRANCH  17  22
HETATM   22  S1  UNK     1      16.644   6.982  31.228  1.00  0.00    -0.132 SA
HETATM   23  C17 UNK     1      15.222   7.042  32.350  1.00  0.00     0.095 C 
ENDBRANCH  17  22
ENDBRANCH   2  16
TORSDOF 3
ENDMDL
