MODEL 1
REMARK VINA RESULT:      -8.7      0.000      0.000
REMARK  3 active torsions:
REMARK  status: ('A' for Active; 'I' for Inactive)
REMARK    1  A    between atoms: C9_13  and  O3_3 
REMARK    2  A    between atoms: C11_15  and  O4_4 
REMARK    3  A    between atoms: C3_7  and  C4_8 
ROOT
HETATM    1  O1  UNK     1      18.969  -0.263  32.900  1.00  0.00    -0.309 OA
HETATM    2  O2  UNK     1      18.801   2.830  30.254  1.00  0.00    -0.287 OA
HETATM    3  C1  UNK     1      19.407   0.584  30.667  1.00  0.00     0.048 A 
HETATM    4  C2  UNK     1      19.436  -0.431  31.621  1.00  0.00     0.093 A 
HETATM    5  C3  UNK     1      18.438   0.968  33.253  1.00  0.00     0.093 A 
HETATM    6  C5  UNK     1      18.854   1.895  31.040  1.00  0.00     0.187 A 
HETATM    7  C6  UNK     1      18.360   2.023  32.426  1.00  0.00     0.094 A 
HETATM    8  C7  UNK     1      19.899   0.357  29.378  1.00  0.00     0.021 A 
HETATM    9  C8  UNK     1      19.958  -1.682  31.293  1.00  0.00     0.074 A 
HETATM   10  C11 UNK     1      20.450  -1.914  30.008  1.00  0.00     0.068 A 
HETATM   11  C12 UNK     1      20.420  -0.896  29.053  1.00  0.00     0.037 A 
ENDROOT
BRANCH   5  12
HETATM   12  C4  UNK     1      17.970   1.040  34.651  1.00  0.00     0.031 A 
HETATM   13  C10 UNK     1      18.611   1.909  35.541  1.00  0.00     0.017 A 
HETATM   14  C14 UNK     1      18.187   1.996  36.867  1.00  0.00     0.001 A 
HETATM   15  C15 UNK     1      17.120   1.214  37.310  1.00  0.00     0.003 A 
HETATM   16  C13 UNK     1      16.476   0.347  36.428  1.00  0.00     0.037 A 
HETATM   17  C9  UNK     1      16.900   0.261  35.102  1.00  0.00     0.078 A 
BRANCH  17  18
HETATM   18  O3  UNK     1      16.253  -0.596  34.260  1.00  0.00    -0.360 OA
HETATM   19  H9  UNK     1      15.712  -0.082  33.636  1.00  0.00     0.217 HD
ENDBRANCH  17  18
ENDBRANCH   5  12
BRANCH  10  20
HETATM   20  O4  UNK     1      20.960  -3.134  29.685  1.00  0.00    -0.361 OA
HETATM   21  H10 UNK     1      20.322  -3.821  29.945  1.00  0.00     0.217 HD
ENDBRANCH  10  20
TORSDOF 3
ENDMDL
MODEL 2
REMARK VINA RESULT:      -8.6     23.822     26.141
REMARK  3 active torsions:
REMARK  status: ('A' for Active; 'I' for Inactive)
REMARK    1  A    between atoms: C9_13  and  O3_3 
REMARK    2  A    between atoms: C11_15  and  O4_4 
REMARK    3  A    between atoms: C3_7  and  C4_8 
ROOT
HETATM    1  O1  UNK     1      13.287   7.466   8.517  1.00  0.00    -0.309 OA
HETATM    2  O2  UNK     1      15.356   4.170   9.724  1.00  0.00    -0.287 OA
HETATM    3  C1  UNK     1      15.290   6.523   9.514  1.00  0.00     0.048 A 
HETATM    4  C2  UNK     1      14.530   7.606   9.079  1.00  0.00     0.093 A 
HETATM    5  C3  UNK     1      12.763   6.189   8.385  1.00  0.00     0.093 A 
HETATM    6  C5  UNK     1      14.742   5.166   9.367  1.00  0.00     0.187 A 
HETATM    7  C6  UNK     1      13.399   5.068   8.761  1.00  0.00     0.094 A 
HETATM    8  C7  UNK     1      16.552   6.726  10.078  1.00  0.00     0.021 A 
HETATM    9  C8  UNK     1      15.028   8.904   9.205  1.00  0.00     0.074 A 
HETATM   10  C11 UNK     1      16.287   9.111   9.768  1.00  0.00     0.068 A 
HETATM   11  C12 UNK     1      17.047   8.025  10.204  1.00  0.00     0.037 A 
ENDROOT
BRANCH   5  12
HETATM   12  C4  UNK     1      11.423   6.151   7.765  1.00  0.00     0.031 A 
HETATM   13  C10 UNK     1      10.293   6.087   8.585  1.00  0.00     0.017 A 
HETATM   14  C14 UNK     1       9.017   6.051   8.022  1.00  0.00     0.001 A 
HETATM   15  C15 UNK     1       8.865   6.077   6.636  1.00  0.00     0.003 A 
HETATM   16  C13 UNK     1       9.989   6.141   5.812  1.00  0.00     0.037 A 
HETATM   17  C9  UNK     1      11.264   6.178   6.375  1.00  0.00     0.078 A 
BRANCH  17  18
HETATM   18  O3  UNK     1      12.347   6.239   5.547  1.00  0.00    -0.360 OA
HETATM   19  H9  UNK     1      12.945   6.940   5.856  1.00  0.00     0.217 HD
ENDBRANCH  17  18
ENDBRANCH   5  12
BRANCH  10  20
HETATM   20  O4  UNK     1      16.776  10.376   9.893  1.00  0.00    -0.361 OA
HETATM   21  H10 UNK     1      16.864  10.589  10.838  1.00  0.00     0.217 HD
ENDBRANCH  10  20
TORSDOF 3
ENDMDL
MODEL 3
REMARK VINA RESULT:      -8.4      3.181      4.118
REMARK  3 active torsions:
REMARK  status: ('A' for Active; 'I' for Inactive)
REMARK    1  A    between atoms: C9_13  and  O3_3 
REMARK    2  A    between atoms: C11_15  and  O4_4 
REMARK    3  A    between atoms: C3_7  and  C4_8 
ROOT
HETATM    1  O1  UNK     1      19.568   1.178  31.401  1.00  0.00    -0.309 OA
HETATM    2  O2  UNK     1      19.098  -0.168  27.584  1.00  0.00    -0.287 OA
HETATM    3  C1  UNK     1      19.768  -0.638  29.800  1.00  0.00     0.048 A 
HETATM    4  C2  UNK     1      19.906  -0.114  31.084  1.00  0.00     0.093 A 
HETATM    5  C3  UNK     1      19.061   1.992  30.399  1.00  0.00     0.093 A 
HETATM    6  C5  UNK     1      19.240   0.226  28.733  1.00  0.00     0.187 A 
HETATM    7  C6  UNK     1      18.888   1.605  29.125  1.00  0.00     0.094 A 
HETATM    8  C7  UNK     1      20.130  -1.961  29.535  1.00  0.00     0.021 A 
HETATM    9  C8  UNK     1      20.406  -0.911  32.114  1.00  0.00     0.074 A 
HETATM   10  C11 UNK     1      20.768  -2.233  31.853  1.00  0.00     0.068 A 
HETATM   11  C12 UNK     1      20.630  -2.757  30.567  1.00  0.00     0.037 A 
ENDROOT
BRANCH   5  12
HETATM   12  C4  UNK     1      18.736   3.361  30.846  1.00  0.00     0.031 A 
HETATM   13  C10 UNK     1      19.110   4.446  30.047  1.00  0.00     0.017 A 
HETATM   14  C14 UNK     1      18.814   5.749  30.448  1.00  0.00     0.001 A 
HETATM   15  C15 UNK     1      18.142   5.974  31.650  1.00  0.00     0.003 A 
HETATM   16  C13 UNK     1      17.766   4.895  32.451  1.00  0.00     0.037 A 
HETATM   17  C9  UNK     1      18.062   3.593  32.050  1.00  0.00     0.078 A 
BRANCH  17  18
HETATM   18  O3  UNK     1      17.683   2.556  32.852  1.00  0.00    -0.360 OA
HETATM   19  H9  UNK     1      17.421   1.802  32.297  1.00  0.00     0.217 HD
ENDBRANCH  17  18
ENDBRANCH   5  12
BRANCH  10  20
HETATM   20  O4  UNK     1      21.257  -3.014  32.856  1.00  0.00    -0.361 OA
HETATM   21  H10 UNK     1      20.893  -3.911  32.763  1.00  0.00     0.217 HD
ENDBRANCH  10  20
TORSDOF 3
ENDMDL
MODEL 4
REMARK VINA RESULT:      -8.2     12.893     16.869
REMARK  3 active torsions:
REMARK  status: ('A' for Active; 'I' for Inactive)
REMARK    1  A    between atoms: C9_13  and  O3_3 
REMARK    2  A    between atoms: C11_15  and  O4_4 
REMARK    3  A    between atoms: C3_7  and  C4_8 
ROOT
HETATM    1  O1  UNK     1      19.045  -0.873  17.386  1.00  0.00    -0.309 OA
HETATM    2  O2  UNK     1      19.365   2.700  15.455  1.00  0.00    -0.287 OA
HETATM    3  C1  UNK     1      19.228   1.545  17.512  1.00  0.00     0.048 A 
HETATM    4  C2  UNK     1      19.116   0.291  18.109  1.00  0.00     0.093 A 
HETATM    5  C3  UNK     1      19.097  -0.796  16.003  1.00  0.00     0.093 A 
HETATM    6  C5  UNK     1      19.272   1.632  16.045  1.00  0.00     0.187 A 
HETATM    7  C6  UNK     1      19.198   0.352  15.313  1.00  0.00     0.094 A 
HETATM    8  C7  UNK     1      19.294   2.698  18.299  1.00  0.00     0.021 A 
HETATM    9  C8  UNK     1      19.069   0.180  19.499  1.00  0.00     0.074 A 
HETATM   10  C11 UNK     1      19.135   1.329  20.288  1.00  0.00     0.068 A 
HETATM   11  C12 UNK     1      19.248   2.585  19.689  1.00  0.00     0.037 A 
ENDROOT
BRANCH   5  12
HETATM   12  C4  UNK     1      19.008  -2.104  15.325  1.00  0.00     0.031 A 
HETATM   13  C10 UNK     1      19.994  -2.461  14.399  1.00  0.00     0.017 A 
HETATM   14  C14 UNK     1      19.932  -3.692  13.746  1.00  0.00     0.001 A 
HETATM   15  C15 UNK     1      18.884  -4.573  14.015  1.00  0.00     0.003 A 
HETATM   16  C13 UNK     1      17.899  -4.223  14.937  1.00  0.00     0.037 A 
HETATM   17  C9  UNK     1      17.961  -2.992  15.591  1.00  0.00     0.078 A 
BRANCH  17  18
HETATM   18  O3  UNK     1      16.984  -2.675  16.488  1.00  0.00    -0.360 OA
HETATM   19  H9  UNK     1      16.903  -1.708  16.543  1.00  0.00     0.217 HD
ENDBRANCH  17  18
ENDBRANCH   5  12
BRANCH  10  20
HETATM   20  O4  UNK     1      19.090   1.225  21.645  1.00  0.00    -0.361 OA
HETATM   21  H10 UNK     1      18.989   2.114  22.026  1.00  0.00     0.217 HD
ENDBRANCH  10  20
TORSDOF 3
ENDMDL
MODEL 5
REMARK VINA RESULT:      -8.1      2.109      6.605
REMARK  3 active torsions:
REMARK  status: ('A' for Active; 'I' for Inactive)
REMARK    1  A    between atoms: C9_13  and  O3_3 
REMARK    2  A    between atoms: C11_15  and  O4_4 
REMARK    3  A    between atoms: C3_7  and  C4_8 
ROOT
HETATM    1  O1  UNK     1      18.635  -0.479  33.460  1.00  0.00    -0.309 OA
HETATM    2  O2  UNK     1      20.595  -3.323  35.620  1.00  0.00    -0.287 OA
HETATM    3  C1  UNK     1      19.007  -1.574  35.596  1.00  0.00     0.048 A 
HETATM    4  C2  UNK     1      18.374  -0.621  34.800  1.00  0.00     0.093 A 
HETATM    5  C3  UNK     1      19.563  -1.326  32.875  1.00  0.00     0.093 A 
HETATM    6  C5  UNK     1      19.999  -2.468  34.980  1.00  0.00     0.187 A 
HETATM    7  C6  UNK     1      20.241  -2.278  33.536  1.00  0.00     0.094 A 
HETATM    8  C7  UNK     1      18.702  -1.673  36.956  1.00  0.00     0.021 A 
HETATM    9  C8  UNK     1      17.430   0.241  35.359  1.00  0.00     0.074 A 
HETATM   10  C11 UNK     1      17.123   0.145  36.716  1.00  0.00     0.068 A 
HETATM   11  C12 UNK     1      17.758  -0.810  37.513  1.00  0.00     0.037 A 
ENDROOT
BRANCH   5  12
HETATM   12  C4  UNK     1      19.771  -1.084  31.433  1.00  0.00     0.031 A 
HETATM   13  C10 UNK     1      20.306  -2.104  30.640  1.00  0.00     0.017 A 
HETATM   14  C14 UNK     1      20.512  -1.899  29.276  1.00  0.00     0.001 A 
HETATM   15  C15 UNK     1      20.183  -0.673  28.697  1.00  0.00     0.003 A 
HETATM   16  C13 UNK     1      19.649   0.348  29.483  1.00  0.00     0.037 A 
HETATM   17  C9  UNK     1      19.443   0.143  30.847  1.00  0.00     0.078 A 
BRANCH  17  18
HETATM   18  O3  UNK     1      18.919   1.158  31.592  1.00  0.00    -0.360 OA
HETATM   19  H9  UNK     1      18.934   0.906  32.531  1.00  0.00     0.217 HD
ENDBRANCH  17  18
ENDBRANCH   5  12
BRANCH  10  20
HETATM   20  O4  UNK     1      16.202   0.985  37.266  1.00  0.00    -0.361 OA
HETATM   21  H10 UNK     1      15.584   1.272  36.572  1.00  0.00     0.217 HD
ENDBRANCH  10  20
TORSDOF 3
ENDMDL
MODEL 6
REMARK VINA RESULT:      -8.1      1.771      3.241
REMARK  3 active torsions:
REMARK  status: ('A' for Active; 'I' for Inactive)
REMARK    1  A    between atoms: C9_13  and  O3_3 
REMARK    2  A    between atoms: C11_15  and  O4_4 
REMARK    3  A    between atoms: C3_7  and  C4_8 
ROOT
HETATM    1  O1  UNK     1      18.936  -0.203  33.050  1.00  0.00    -0.309 OA
HETATM    2  O2  UNK     1      21.256  -3.497  32.449  1.00  0.00    -0.287 OA
HETATM    3  C1  UNK     1      20.212  -1.592  31.521  1.00  0.00     0.048 A 
HETATM    4  C2  UNK     1      19.413  -0.484  31.795  1.00  0.00     0.093 A 
HETATM    5  C3  UNK     1      19.272  -1.055  34.090  1.00  0.00     0.093 A 
HETATM    6  C5  UNK     1      20.563  -2.504  32.620  1.00  0.00     0.187 A 
HETATM    7  C6  UNK     1      20.028  -2.156  33.951  1.00  0.00     0.094 A 
HETATM    8  C7  UNK     1      20.669  -1.829  30.222  1.00  0.00     0.021 A 
HETATM    9  C8  UNK     1      19.064   0.396  30.770  1.00  0.00     0.074 A 
HETATM   10  C11 UNK     1      19.518   0.163  29.472  1.00  0.00     0.068 A 
HETATM   11  C12 UNK     1      20.320  -0.947  29.199  1.00  0.00     0.037 A 
ENDROOT
BRANCH   5  12
HETATM   12  C4  UNK     1      18.702  -0.664  35.395  1.00  0.00     0.031 A 
HETATM   13  C10 UNK     1      18.267  -1.659  36.276  1.00  0.00     0.017 A 
HETATM   14  C14 UNK     1      17.726  -1.314  37.514  1.00  0.00     0.001 A 
HETATM   15  C15 UNK     1      17.617   0.028  37.878  1.00  0.00     0.003 A 
HETATM   16  C13 UNK     1      18.049   1.025  37.004  1.00  0.00     0.037 A 
HETATM   17  C9  UNK     1      18.591   0.680  35.766  1.00  0.00     0.078 A 
BRANCH  17  18
HETATM   18  O3  UNK     1      19.005   1.675  34.930  1.00  0.00    -0.360 OA
HETATM   19  H9  UNK     1      19.964   1.799  35.033  1.00  0.00     0.217 HD
ENDBRANCH  17  18
ENDBRANCH   5  12
BRANCH  10  20
HETATM   20  O4  UNK     1      19.180   1.020  28.469  1.00  0.00    -0.361 OA
HETATM   21  H10 UNK     1      19.283   0.564  27.616  1.00  0.00     0.217 HD
ENDBRANCH  10  20
TORSDOF 3
ENDMDL
MODEL 7
REMARK VINA RESULT:      -8.0     23.881     26.093
REMARK  3 active torsions:
REMARK  status: ('A' for Active; 'I' for Inactive)
REMARK    1  A    between atoms: C9_13  and  O3_3 
REMARK    2  A    between atoms: C11_15  and  O4_4 
REMARK    3  A    between atoms: C3_7  and  C4_8 
ROOT
HETATM    1  O1  UNK     1      13.336   7.736   8.493  1.00  0.00    -0.309 OA
HETATM    2  O2  UNK     1      15.411   4.390   9.543  1.00  0.00    -0.287 OA
HETATM    3  C1  UNK     1      15.318   6.750   9.493  1.00  0.00     0.048 A 
HETATM    4  C2  UNK     1      14.558   7.852   9.106  1.00  0.00     0.093 A 
HETATM    5  C3  UNK     1      12.835   6.465   8.257  1.00  0.00     0.093 A 
HETATM    6  C5  UNK     1      14.795   5.401   9.234  1.00  0.00     0.187 A 
HETATM    7  C6  UNK     1      13.475   5.328   8.577  1.00  0.00     0.094 A 
HETATM    8  C7  UNK     1      16.558   6.930  10.113  1.00  0.00     0.021 A 
HETATM    9  C8  UNK     1      15.032   9.144   9.338  1.00  0.00     0.074 A 
HETATM   10  C11 UNK     1      16.269   9.328   9.957  1.00  0.00     0.068 A 
HETATM   11  C12 UNK     1      17.029   8.222  10.344  1.00  0.00     0.037 A 
ENDROOT
BRANCH   5  12
HETATM   12  C4  UNK     1      11.519   6.453   7.589  1.00  0.00     0.031 A 
HETATM   13  C10 UNK     1      11.439   6.073   6.245  1.00  0.00     0.017 A 
HETATM   14  C14 UNK     1      10.206   6.053   5.592  1.00  0.00     0.001 A 
HETATM   15  C15 UNK     1       9.047   6.415   6.279  1.00  0.00     0.003 A 
HETATM   16  C13 UNK     1       9.121   6.796   7.619  1.00  0.00     0.037 A 
HETATM   17  C9  UNK     1      10.353   6.814   8.272  1.00  0.00     0.078 A 
BRANCH  17  18
HETATM   18  O3  UNK     1      10.397   7.190   9.583  1.00  0.00    -0.360 OA
HETATM   19  H9  UNK     1      10.823   8.061   9.651  1.00  0.00     0.217 HD
ENDBRANCH  17  18
ENDBRANCH   5  12
BRANCH  10  20
HETATM   20  O4  UNK     1      16.735  10.586  10.185  1.00  0.00    -0.361 OA
HETATM   21  H10 UNK     1      16.316  11.197   9.554  1.00  0.00     0.217 HD
ENDBRANCH  10  20
TORSDOF 3
ENDMDL
MODEL 8
REMARK VINA RESULT:      -7.9     23.948     26.246
REMARK  3 active torsions:
REMARK  status: ('A' for Active; 'I' for Inactive)
REMARK    1  A    between atoms: C9_13  and  O3_3 
REMARK    2  A    between atoms: C11_15  and  O4_4 
REMARK    3  A    between atoms: C3_7  and  C4_8 
ROOT
HETATM    1  O1  UNK     1      12.815   6.524   8.390  1.00  0.00    -0.309 OA
HETATM    2  O2  UNK     1      13.546  10.077  10.244  1.00  0.00    -0.287 OA
HETATM    3  C1  UNK     1      14.355   7.949   9.613  1.00  0.00     0.048 A 
HETATM    4  C2  UNK     1      14.038   6.756   8.965  1.00  0.00     0.093 A 
HETATM    5  C3  UNK     1      11.857   7.524   8.450  1.00  0.00     0.093 A 
HETATM    6  C5  UNK     1      13.337   9.008   9.688  1.00  0.00     0.187 A 
HETATM    7  C6  UNK     1      12.039   8.711   9.050  1.00  0.00     0.094 A 
HETATM    8  C7  UNK     1      15.618   8.130  10.183  1.00  0.00     0.021 A 
HETATM    9  C8  UNK     1      14.985   5.734   8.883  1.00  0.00     0.074 A 
HETATM   10  C11 UNK     1      16.247   5.911   9.450  1.00  0.00     0.068 A 
HETATM   11  C12 UNK     1      16.562   7.106  10.099  1.00  0.00     0.037 A 
ENDROOT
BRANCH   5  12
HETATM   12  C4  UNK     1      10.577   7.168   7.805  1.00  0.00     0.031 A 
HETATM   13  C10 UNK     1       9.390   7.278   8.537  1.00  0.00     0.017 A 
HETATM   14  C14 UNK     1       8.169   6.948   7.949  1.00  0.00     0.001 A 
HETATM   15  C15 UNK     1       8.128   6.506   6.627  1.00  0.00     0.003 A 
HETATM   16  C13 UNK     1       9.308   6.394   5.892  1.00  0.00     0.037 A 
HETATM   17  C9  UNK     1      10.529   6.725   6.479  1.00  0.00     0.078 A 
BRANCH  17  18
HETATM   18  O3  UNK     1      11.668   6.606   5.738  1.00  0.00    -0.360 OA
HETATM   19  H9  UNK     1      12.404   7.026   6.214  1.00  0.00     0.217 HD
ENDBRANCH  17  18
ENDBRANCH   5  12
BRANCH  10  20
HETATM   20  O4  UNK     1      17.173   4.916   9.371  1.00  0.00    -0.361 OA
HETATM   21  H10 UNK     1      17.422   4.790   8.439  1.00  0.00     0.217 HD
ENDBRANCH  10  20
TORSDOF 3
ENDMDL
MODEL 9
REMARK VINA RESULT:      -7.8      1.741      5.965
REMARK  3 active torsions:
REMARK  status: ('A' for Active; 'I' for Inactive)
REMARK    1  A    between atoms: C9_13  and  O3_3 
REMARK    2  A    between atoms: C11_15  and  O4_4 
REMARK    3  A    between atoms: C3_7  and  C4_8 
ROOT
HETATM    1  O1  UNK     1      18.811  -0.447  33.496  1.00  0.00    -0.309 OA
HETATM    2  O2  UNK     1      17.970   3.427  34.435  1.00  0.00    -0.287 OA
HETATM    3  C1  UNK     1      18.105   1.181  35.154  1.00  0.00     0.048 A 
HETATM    4  C2  UNK     1      18.406  -0.123  34.766  1.00  0.00     0.093 A 
HETATM    5  C3  UNK     1      18.933   0.571  32.562  1.00  0.00     0.093 A 
HETATM    6  C5  UNK     1      18.223   2.262  34.164  1.00  0.00     0.187 A 
HETATM    7  C6  UNK     1      18.666   1.862  32.813  1.00  0.00     0.094 A 
HETATM    8  C7  UNK     1      17.696   1.452  36.462  1.00  0.00     0.021 A 
HETATM    9  C8  UNK     1      18.300  -1.167  35.685  1.00  0.00     0.074 A 
HETATM   10  C11 UNK     1      17.893  -0.901  36.992  1.00  0.00     0.068 A 
HETATM   11  C12 UNK     1      17.591   0.406  37.380  1.00  0.00     0.037 A 
ENDROOT
BRANCH   5  12
HETATM   12  C4  UNK     1      19.369   0.112  31.228  1.00  0.00     0.031 A 
HETATM   13  C10 UNK     1      18.919   0.793  30.092  1.00  0.00     0.017 A 
HETATM   14  C14 UNK     1      19.318   0.379  28.821  1.00  0.00     0.001 A 
HETATM   15  C15 UNK     1      20.168  -0.718  28.679  1.00  0.00     0.003 A 
HETATM   16  C13 UNK     1      20.620  -1.400  29.808  1.00  0.00     0.037 A 
HETATM   17  C9  UNK     1      20.222  -0.986  31.079  1.00  0.00     0.078 A 
BRANCH  17  18
HETATM   18  O3  UNK     1      20.679  -1.671  32.167  1.00  0.00    -0.360 OA
HETATM   19  H9  UNK     1      21.531  -1.295  32.446  1.00  0.00     0.217 HD
ENDBRANCH  17  18
ENDBRANCH   5  12
BRANCH  10  20
HETATM   20  O4  UNK     1      17.788  -1.918  37.892  1.00  0.00    -0.361 OA
HETATM   21  H10 UNK     1      17.313  -1.596  38.678  1.00  0.00     0.217 HD
ENDBRANCH  10  20
TORSDOF 3
ENDMDL
MODEL 10
REMARK VINA RESULT:      -7.7     23.293     26.160
REMARK  3 active torsions:
REMARK  status: ('A' for Active; 'I' for Inactive)
REMARK    1  A    between atoms: C9_13  and  O3_3 
REMARK    2  A    between atoms: C11_15  and  O4_4 
REMARK    3  A    between atoms: C3_7  and  C4_8 
ROOT
HETATM    1  O1  UNK     1      11.329   7.542   9.436  1.00  0.00    -0.309 OA
HETATM    2  O2  UNK     1      12.037   6.221   5.647  1.00  0.00    -0.287 OA
HETATM    3  C1  UNK     1      10.448   6.811   7.293  1.00  0.00     0.048 A 
HETATM    4  C2  UNK     1      10.277   7.264   8.600  1.00  0.00     0.093 A 
HETATM    5  C3  UNK     1      12.617   7.372   8.953  1.00  0.00     0.093 A 
HETATM    6  C5  UNK     1      11.814   6.620   6.782  1.00  0.00     0.187 A 
HETATM    7  C6  UNK     1      12.911   6.936   7.718  1.00  0.00     0.094 A 
HETATM    8  C7  UNK     1       9.339   6.543   6.487  1.00  0.00     0.021 A 
HETATM    9  C8  UNK     1       8.992   7.453   9.111  1.00  0.00     0.074 A 
HETATM   10  C11 UNK     1       7.882   7.186   8.310  1.00  0.00     0.068 A 
HETATM   11  C12 UNK     1       8.055   6.732   7.001  1.00  0.00     0.037 A 
ENDROOT
BRANCH   5  12
HETATM   12  C4  UNK     1      13.673   7.694   9.935  1.00  0.00     0.031 A 
HETATM   13  C10 UNK     1      14.807   6.879  10.008  1.00  0.00     0.017 A 
HETATM   14  C14 UNK     1      15.818   7.163  10.927  1.00  0.00     0.001 A 
HETATM   15  C15 UNK     1      15.699   8.262  11.777  1.00  0.00     0.003 A 
HETATM   16  C13 UNK     1      14.571   9.079  11.708  1.00  0.00     0.037 A 
HETATM   17  C9  UNK     1      13.561   8.795  10.789  1.00  0.00     0.078 A 
BRANCH  17  18
HETATM   18  O3  UNK     1      12.467   9.610  10.742  1.00  0.00    -0.360 OA
HETATM   19  H9  UNK     1      12.622  10.385  11.309  1.00  0.00     0.217 HD
ENDBRANCH  17  18
ENDBRANCH   5  12
BRANCH  10  20
HETATM   20  O4  UNK     1       6.626   7.368   8.805  1.00  0.00    -0.361 OA
HETATM   21  H10 UNK     1       6.046   6.668   8.459  1.00  0.00     0.217 HD
ENDBRANCH  10  20
TORSDOF 3
ENDMDL
