MODEL 1
REMARK VINA RESULT:      -8.0      0.000      0.000
REMARK  6 active torsions:
REMARK  status: ('A' for Active; 'I' for Inactive)
REMARK    1  A    between atoms: C2_9  and  O2_2 
REMARK    2  A    between atoms: C7_14  and  O4_4 
REMARK    3  A    between atoms: C11_18  and  O5_5 
REMARK    4  A    between atoms: C13_20  and  O6_6 
REMARK    5  A    between atoms: C15_22  and  O7_7 
REMARK    6  A    between atoms: C1_8  and  C3_10 
ROOT
HETATM    1  O1  UNK     1      18.232   3.893  34.301  1.00  0.00    -0.337 OA
HETATM    2  O3  UNK     1      18.523   1.714  30.836  1.00  0.00    -0.289 OA
HETATM    3  C1  UNK     1      17.812   4.439  33.041  1.00  0.00     0.198 C 
HETATM    4  C2  UNK     1      18.651   3.882  31.890  1.00  0.00     0.227 C 
HETATM    5  C4  UNK     1      18.382   1.728  33.188  1.00  0.00     0.079 A 
HETATM    6  C5  UNK     1      18.507   2.376  31.867  1.00  0.00     0.196 C 
HETATM    7  C6  UNK     1      18.268   2.524  34.329  1.00  0.00     0.089 A 
HETATM    8  C7  UNK     1      18.406   0.335  33.297  1.00  0.00     0.087 A 
HETATM    9  C10 UNK     1      18.212   1.925  35.588  1.00  0.00     0.074 A 
HETATM   10  C11 UNK     1      18.239   0.535  35.701  1.00  0.00     0.073 A 
HETATM   11  C12 UNK     1      18.331  -0.258  34.558  1.00  0.00     0.074 A 
ENDROOT
BRANCH   3  12
HETATM   12  C3  UNK     1      17.929   5.948  33.143  1.00  0.00    -0.023 A 
HETATM   13  C8  UNK     1      16.944   6.760  32.586  1.00  0.00     0.049 A 
HETATM   14  C13 UNK     1      17.051   8.147  32.680  1.00  0.00     0.102 A 
HETATM   15  C15 UNK     1      18.144   8.720  33.331  1.00  0.00     0.101 A 
HETATM   16  C14 UNK     1      19.129   7.905  33.888  1.00  0.00     0.040 A 
HETATM   17  C9  UNK     1      19.022   6.518  33.794  1.00  0.00     0.013 A 
BRANCH  14  18
HETATM   18  O6  UNK     1      16.083   8.933  32.132  1.00  0.00    -0.353 OA
HETATM   19  C18 UNK     1      14.908   9.153  32.913  1.00  0.00     0.210 C 
ENDBRANCH  14  18
BRANCH  15  20
HETATM   20  O7  UNK     1      18.259  10.074  33.430  1.00  0.00    -0.353 OA
HETATM   21  C19 UNK     1      19.329  10.577  34.229  1.00  0.00     0.210 C 
ENDBRANCH  15  20
ENDBRANCH   3  12
BRANCH   4  22
HETATM   22  O2  UNK     1      18.181   4.390  30.653  1.00  0.00    -0.385 OA
HETATM   23  H6  UNK     1      18.370   3.723  29.971  1.00  0.00     0.210 HD
ENDBRANCH   4  22
BRANCH  10  24
HETATM   24  O5  UNK     1      18.174  -0.050  36.929  1.00  0.00    -0.356 OA
HETATM   25  C17 UNK     1      17.635   0.733  37.993  1.00  0.00     0.210 C 
ENDBRANCH  10  24
BRANCH   8  26
HETATM   26  O4  UNK     1      18.513  -0.487  32.216  1.00  0.00    -0.355 OA
HETATM   27  C16 UNK     1      19.487  -1.527  32.286  1.00  0.00     0.210 C 
ENDBRANCH   8  26
TORSDOF 6
ENDMDL
MODEL 2
REMARK VINA RESULT:      -7.9      1.807      3.769
REMARK  6 active torsions:
REMARK  status: ('A' for Active; 'I' for Inactive)
REMARK    1  A    between atoms: C2_9  and  O2_2 
REMARK    2  A    between atoms: C7_14  and  O4_4 
REMARK    3  A    between atoms: C11_18  and  O5_5 
REMARK    4  A    between atoms: C13_20  and  O6_6 
REMARK    5  A    between atoms: C15_22  and  O7_7 
REMARK    6  A    between atoms: C1_8  and  C3_10 
ROOT
HETATM    1  O1  UNK     1      18.216   4.061  31.277  1.00  0.00    -0.337 OA
HETATM    2  O3  UNK     1      18.788   1.404  34.351  1.00  0.00    -0.289 OA
HETATM    3  C1  UNK     1      18.608   4.508  32.583  1.00  0.00     0.198 C 
HETATM    4  C2  UNK     1      18.041   3.596  33.673  1.00  0.00     0.227 C 
HETATM    5  C4  UNK     1      18.700   1.791  32.029  1.00  0.00     0.079 A 
HETATM    6  C5  UNK     1      18.546   2.189  33.442  1.00  0.00     0.196 C 
HETATM    7  C6  UNK     1      18.511   2.746  31.028  1.00  0.00     0.089 A 
HETATM    8  C7  UNK     1      19.004   0.468  31.696  1.00  0.00     0.087 A 
HETATM    9  C10 UNK     1      18.592   2.368  29.687  1.00  0.00     0.074 A 
HETATM   10  C11 UNK     1      18.891   1.048  29.351  1.00  0.00     0.073 A 
HETATM   11  C12 UNK     1      19.101   0.101  30.353  1.00  0.00     0.074 A 
ENDROOT
BRANCH   3  12
HETATM   12  C3  UNK     1      18.120   5.936  32.735  1.00  0.00    -0.023 A 
HETATM   13  C8  UNK     1      16.867   6.297  32.247  1.00  0.00     0.049 A 
HETATM   14  C13 UNK     1      16.417   7.610  32.386  1.00  0.00     0.102 A 
HETATM   15  C15 UNK     1      17.225   8.560  33.012  1.00  0.00     0.101 A 
HETATM   16  C14 UNK     1      18.479   8.197  33.499  1.00  0.00     0.040 A 
HETATM   17  C9  UNK     1      18.928   6.884  33.361  1.00  0.00     0.013 A 
BRANCH  14  18
HETATM   18  O6  UNK     1      15.190   7.953  31.906  1.00  0.00    -0.353 OA
HETATM   19  C18 UNK     1      14.091   7.127  32.288  1.00  0.00     0.210 C 
ENDBRANCH  14  18
BRANCH  15  20
HETATM   20  O7  UNK     1      16.796   9.846  33.155  1.00  0.00    -0.353 OA
HETATM   21  C19 UNK     1      16.245  10.208  34.421  1.00  0.00     0.210 C 
ENDBRANCH  15  20
ENDBRANCH   3  12
BRANCH   4  22
HETATM   22  O2  UNK     1      18.488   4.023  34.949  1.00  0.00    -0.385 OA
HETATM   23  H6  UNK     1      18.056   3.462  35.614  1.00  0.00     0.210 HD
ENDBRANCH   4  22
BRANCH  10  24
HETATM   24  O5  UNK     1      18.980   0.682  28.042  1.00  0.00    -0.356 OA
HETATM   25  C17 UNK     1      19.135  -0.709  27.766  1.00  0.00     0.210 C 
ENDBRANCH  10  24
BRANCH   8  26
HETATM   26  O4  UNK     1      19.202  -0.501  32.633  1.00  0.00    -0.355 OA
HETATM   27  C16 UNK     1      19.739  -1.741  32.179  1.00  0.00     0.210 C 
ENDBRANCH   8  26
TORSDOF 6
ENDMDL
MODEL 3
REMARK VINA RESULT:      -7.9      2.074      8.347
REMARK  6 active torsions:
REMARK  status: ('A' for Active; 'I' for Inactive)
REMARK    1  A    between atoms: C2_9  and  O2_2 
REMARK    2  A    between atoms: C7_14  and  O4_4 
REMARK    3  A    between atoms: C11_18  and  O5_5 
REMARK    4  A    between atoms: C13_20  and  O6_6 
REMARK    5  A    between atoms: C15_22  and  O7_7 
REMARK    6  A    between atoms: C1_8  and  C3_10 
ROOT
HETATM    1  O1  UNK     1      16.715   7.386  32.298  1.00  0.00    -0.337 OA
HETATM    2  O3  UNK     1      19.421   9.540  34.505  1.00  0.00    -0.289 OA
HETATM    3  C1  UNK     1      17.843   6.751  32.917  1.00  0.00     0.198 C 
HETATM    4  C2  UNK     1      19.041   7.699  32.991  1.00  0.00     0.227 C 
HETATM    5  C4  UNK     1      17.246   9.368  33.618  1.00  0.00     0.079 A 
HETATM    6  C5  UNK     1      18.643   8.924  33.787  1.00  0.00     0.196 C 
HETATM    7  C6  UNK     1      16.367   8.581  32.870  1.00  0.00     0.089 A 
HETATM    8  C7  UNK     1      16.815  10.574  34.175  1.00  0.00     0.087 A 
HETATM    9  C10 UNK     1      15.061   9.021  32.650  1.00  0.00     0.074 A 
HETATM   10  C11 UNK     1      14.629  10.227  33.202  1.00  0.00     0.073 A 
HETATM   11  C12 UNK     1      15.502  10.999  33.967  1.00  0.00     0.074 A 
ENDROOT
BRANCH   3  12
HETATM   12  C3  UNK     1      18.160   5.508  32.107  1.00  0.00    -0.023 A 
HETATM   13  C8  UNK     1      17.871   4.248  32.627  1.00  0.00     0.049 A 
HETATM   14  C13 UNK     1      18.162   3.105  31.883  1.00  0.00     0.102 A 
HETATM   15  C15 UNK     1      18.742   3.224  30.620  1.00  0.00     0.101 A 
HETATM   16  C14 UNK     1      19.030   4.486  30.101  1.00  0.00     0.040 A 
HETATM   17  C9  UNK     1      18.739   5.629  30.846  1.00  0.00     0.013 A 
BRANCH  14  18
HETATM   18  O6  UNK     1      17.875   1.878  32.400  1.00  0.00    -0.353 OA
HETATM   19  C18 UNK     1      18.155   1.677  33.785  1.00  0.00     0.210 C 
ENDBRANCH  14  18
BRANCH  15  20
HETATM   20  O7  UNK     1      19.029   2.115  29.883  1.00  0.00    -0.353 OA
HETATM   21  C19 UNK     1      18.112   1.771  28.845  1.00  0.00     0.210 C 
ENDBRANCH  15  20
ENDBRANCH   3  12
BRANCH   4  22
HETATM   22  O2  UNK     1      20.122   7.070  33.657  1.00  0.00    -0.385 OA
HETATM   23  H6  UNK     1      20.687   7.771  34.025  1.00  0.00     0.210 HD
ENDBRANCH   4  22
BRANCH  10  24
HETATM   24  O5  UNK     1      13.351  10.650  32.996  1.00  0.00    -0.356 OA
HETATM   25  C17 UNK     1      13.171  12.018  32.634  1.00  0.00     0.210 C 
ENDBRANCH  10  24
BRANCH   8  26
HETATM   26  O4  UNK     1      17.630  11.377  34.915  1.00  0.00    -0.355 OA
HETATM   27  C16 UNK     1      17.847  12.702  34.432  1.00  0.00     0.210 C 
ENDBRANCH   8  26
TORSDOF 6
ENDMDL
MODEL 4
REMARK VINA RESULT:      -7.8      5.048     11.053
REMARK  6 active torsions:
REMARK  status: ('A' for Active; 'I' for Inactive)
REMARK    1  A    between atoms: C2_9  and  O2_2 
REMARK    2  A    between atoms: C7_14  and  O4_4 
REMARK    3  A    between atoms: C11_18  and  O5_5 
REMARK    4  A    between atoms: C13_20  and  O6_6 
REMARK    5  A    between atoms: C15_22  and  O7_7 
REMARK    6  A    between atoms: C1_8  and  C3_10 
ROOT
HETATM    1  O1  UNK     1      20.336  -3.350  34.834  1.00  0.00    -0.337 OA
HETATM    2  O3  UNK     1      17.722  -0.406  35.991  1.00  0.00    -0.289 OA
HETATM    3  C1  UNK     1      19.445  -3.540  35.944  1.00  0.00     0.198 C 
HETATM    4  C2  UNK     1      19.168  -2.218  36.663  1.00  0.00     0.227 C 
HETATM    5  C4  UNK     1      19.055  -1.346  34.291  1.00  0.00     0.079 A 
HETATM    6  C5  UNK     1      18.555  -1.248  35.677  1.00  0.00     0.196 C 
HETATM    7  C6  UNK     1      19.928  -2.383  33.954  1.00  0.00     0.089 A 
HETATM    8  C7  UNK     1      18.680  -0.399  33.335  1.00  0.00     0.087 A 
HETATM    9  C10 UNK     1      20.456  -2.450  32.665  1.00  0.00     0.074 A 
HETATM   10  C11 UNK     1      20.088  -1.504  31.709  1.00  0.00     0.073 A 
HETATM   11  C12 UNK     1      19.198  -0.483  32.042  1.00  0.00     0.074 A 
ENDROOT
BRANCH   3  12
HETATM   12  C3  UNK     1      20.088  -4.557  36.867  1.00  0.00    -0.023 A 
HETATM   13  C8  UNK     1      19.426  -5.747  37.158  1.00  0.00     0.049 A 
HETATM   14  C13 UNK     1      20.016  -6.684  38.006  1.00  0.00     0.102 A 
HETATM   15  C15 UNK     1      21.269  -6.426  38.564  1.00  0.00     0.101 A 
HETATM   16  C14 UNK     1      21.930  -5.234  38.272  1.00  0.00     0.040 A 
HETATM   17  C9  UNK     1      21.340  -4.298  37.423  1.00  0.00     0.013 A 
BRANCH  14  18
HETATM   18  O6  UNK     1      19.360  -7.844  38.284  1.00  0.00    -0.353 OA
HETATM   19  C18 UNK     1      19.091  -8.715  37.186  1.00  0.00     0.210 C 
ENDBRANCH  14  18
BRANCH  15  20
HETATM   20  O7  UNK     1      21.856  -7.333  39.393  1.00  0.00    -0.353 OA
HETATM   21  C19 UNK     1      23.230  -7.637  39.153  1.00  0.00     0.210 C 
ENDBRANCH  15  20
ENDBRANCH   3  12
BRANCH   4  22
HETATM   22  O2  UNK     1      18.243  -2.420  37.717  1.00  0.00    -0.385 OA
HETATM   23  H6  UNK     1      17.358  -2.206  37.376  1.00  0.00     0.210 HD
ENDBRANCH   4  22
BRANCH  10  24
HETATM   24  O5  UNK     1      20.596  -1.577  30.447  1.00  0.00    -0.356 OA
HETATM   25  C17 UNK     1      20.544  -0.390  29.657  1.00  0.00     0.210 C 
ENDBRANCH  10  24
BRANCH   8  26
HETATM   26  O4  UNK     1      17.830   0.629  33.610  1.00  0.00    -0.355 OA
HETATM   27  C16 UNK     1      18.290   1.948  33.319  1.00  0.00     0.210 C 
ENDBRANCH   8  26
TORSDOF 6
ENDMDL
MODEL 5
REMARK VINA RESULT:      -7.8      2.056      7.935
REMARK  6 active torsions:
REMARK  status: ('A' for Active; 'I' for Inactive)
REMARK    1  A    between atoms: C2_9  and  O2_2 
REMARK    2  A    between atoms: C7_14  and  O4_4 
REMARK    3  A    between atoms: C11_18  and  O5_5 
REMARK    4  A    between atoms: C13_20  and  O6_6 
REMARK    5  A    between atoms: C15_22  and  O7_7 
REMARK    6  A    between atoms: C1_8  and  C3_10 
ROOT
HETATM    1  O1  UNK     1      16.890   5.999  32.726  1.00  0.00    -0.337 OA
HETATM    2  O3  UNK     1      19.921   8.457  33.996  1.00  0.00    -0.289 OA
HETATM    3  C1  UNK     1      18.079   5.464  33.328  1.00  0.00     0.198 C 
HETATM    4  C2  UNK     1      19.296   6.339  33.021  1.00  0.00     0.227 C 
HETATM    5  C4  UNK     1      17.641   8.200  33.461  1.00  0.00     0.079 A 
HETATM    6  C5  UNK     1      19.038   7.733  33.549  1.00  0.00     0.196 C 
HETATM    7  C6  UNK     1      16.651   7.311  33.039  1.00  0.00     0.089 A 
HETATM    8  C7  UNK     1      17.317   9.525  33.768  1.00  0.00     0.087 A 
HETATM    9  C10 UNK     1      15.337   7.757  32.891  1.00  0.00     0.074 A 
HETATM   10  C11 UNK     1      15.011   9.079  33.193  1.00  0.00     0.073 A 
HETATM   11  C12 UNK     1      15.998   9.959  33.635  1.00  0.00     0.074 A 
ENDROOT
BRANCH   3  12
HETATM   12  C3  UNK     1      18.254   4.053  32.801  1.00  0.00    -0.023 A 
HETATM   13  C8  UNK     1      18.509   3.843  31.448  1.00  0.00     0.049 A 
HETATM   14  C13 UNK     1      18.671   2.546  30.963  1.00  0.00     0.102 A 
HETATM   15  C15 UNK     1      18.575   1.460  31.833  1.00  0.00     0.101 A 
HETATM   16  C14 UNK     1      18.320   1.671  33.187  1.00  0.00     0.040 A 
HETATM   17  C9  UNK     1      18.159   2.969  33.672  1.00  0.00     0.013 A 
BRANCH  14  18
HETATM   18  O6  UNK     1      18.920   2.351  29.638  1.00  0.00    -0.353 OA
HETATM   19  C18 UNK     1      17.798   2.069  28.802  1.00  0.00     0.210 C 
ENDBRANCH  14  18
BRANCH  15  20
HETATM   20  O7  UNK     1      18.732   0.187  31.371  1.00  0.00    -0.353 OA
HETATM   21  C19 UNK     1      19.002  -0.825  32.340  1.00  0.00     0.210 C 
ENDBRANCH  15  20
ENDBRANCH   3  12
BRANCH   4  22
HETATM   22  O2  UNK     1      20.445   5.824  33.673  1.00  0.00    -0.385 OA
HETATM   23  H6  UNK     1      20.408   4.855  33.609  1.00  0.00     0.210 HD
ENDBRANCH   4  22
BRANCH  10  24
HETATM   24  O5  UNK     1      13.726   9.511  33.059  1.00  0.00    -0.356 OA
HETATM   25  C17 UNK     1      13.509  10.921  33.089  1.00  0.00     0.210 C 
ENDBRANCH  10  24
BRANCH   8  26
HETATM   26  O4  UNK     1      18.243  10.432  34.186  1.00  0.00    -0.355 OA
HETATM   27  C16 UNK     1      17.853  11.804  34.187  1.00  0.00     0.210 C 
ENDBRANCH   8  26
TORSDOF 6
ENDMDL
MODEL 6
REMARK VINA RESULT:      -7.7      1.694      2.911
REMARK  6 active torsions:
REMARK  status: ('A' for Active; 'I' for Inactive)
REMARK    1  A    between atoms: C2_9  and  O2_2 
REMARK    2  A    between atoms: C7_14  and  O4_4 
REMARK    3  A    between atoms: C11_18  and  O5_5 
REMARK    4  A    between atoms: C13_20  and  O6_6 
REMARK    5  A    between atoms: C15_22  and  O7_7 
REMARK    6  A    between atoms: C1_8  and  C3_10 
ROOT
HETATM    1  O1  UNK     1      17.806   4.628  33.208  1.00  0.00    -0.337 OA
HETATM    2  O3  UNK     1      18.887   4.310  29.262  1.00  0.00    -0.289 OA
HETATM    3  C1  UNK     1      17.366   5.589  32.236  1.00  0.00     0.198 C 
HETATM    4  C2  UNK     1      18.403   5.766  31.125  1.00  0.00     0.227 C 
HETATM    5  C4  UNK     1      18.563   3.251  31.342  1.00  0.00     0.079 A 
HETATM    6  C5  UNK     1      18.631   4.429  30.455  1.00  0.00     0.196 C 
HETATM    7  C6  UNK     1      18.170   3.421  32.671  1.00  0.00     0.089 A 
HETATM    8  C7  UNK     1      18.915   1.986  30.865  1.00  0.00     0.087 A 
HETATM    9  C10 UNK     1      18.162   2.326  33.535  1.00  0.00     0.074 A 
HETATM   10  C11 UNK     1      18.517   1.062  33.064  1.00  0.00     0.073 A 
HETATM   11  C12 UNK     1      18.888   0.892  31.731  1.00  0.00     0.074 A 
ENDROOT
BRANCH   3  12
HETATM   12  C3  UNK     1      17.106   6.888  32.975  1.00  0.00    -0.023 A 
HETATM   13  C8  UNK     1      18.158   7.763  33.232  1.00  0.00     0.049 A 
HETATM   14  C13 UNK     1      17.919   8.958  33.911  1.00  0.00     0.102 A 
HETATM   15  C15 UNK     1      16.627   9.274  34.332  1.00  0.00     0.101 A 
HETATM   16  C14 UNK     1      15.575   8.396  34.073  1.00  0.00     0.040 A 
HETATM   17  C9  UNK     1      15.814   7.202  33.394  1.00  0.00     0.013 A 
BRANCH  14  18
HETATM   18  O6  UNK     1      18.954   9.808  34.158  1.00  0.00    -0.353 OA
HETATM   19  C18 UNK     1      20.224   9.218  34.437  1.00  0.00     0.210 C 
ENDBRANCH  14  18
BRANCH  15  20
HETATM   20  O7  UNK     1      16.381  10.439  34.995  1.00  0.00    -0.353 OA
HETATM   21  C19 UNK     1      15.014  10.814  35.161  1.00  0.00     0.210 C 
ENDBRANCH  15  20
ENDBRANCH   3  12
BRANCH   4  22
HETATM   22  O2  UNK     1      17.922   6.675  30.149  1.00  0.00    -0.385 OA
HETATM   23  H6  UNK     1      17.490   7.408  30.619  1.00  0.00     0.210 HD
ENDBRANCH   4  22
BRANCH  10  24
HETATM   24  O5  UNK     1      18.499  -0.008  33.906  1.00  0.00    -0.356 OA
HETATM   25  C17 UNK     1      17.306  -0.223  34.657  1.00  0.00     0.210 C 
ENDBRANCH  10  24
BRANCH   8  26
HETATM   26  O4  UNK     1      19.302   1.765  29.578  1.00  0.00    -0.355 OA
HETATM   27  C16 UNK     1      19.823   0.473  29.270  1.00  0.00     0.210 C 
ENDBRANCH   8  26
TORSDOF 6
ENDMDL
MODEL 7
REMARK VINA RESULT:      -7.5      6.651     10.355
REMARK  6 active torsions:
REMARK  status: ('A' for Active; 'I' for Inactive)
REMARK    1  A    between atoms: C2_9  and  O2_2 
REMARK    2  A    between atoms: C7_14  and  O4_4 
REMARK    3  A    between atoms: C11_18  and  O5_5 
REMARK    4  A    between atoms: C13_20  and  O6_6 
REMARK    5  A    between atoms: C15_22  and  O7_7 
REMARK    6  A    between atoms: C1_8  and  C3_10 
ROOT
HETATM    1  O1  UNK     1      21.064  -4.615  37.313  1.00  0.00    -0.337 OA
HETATM    2  O3  UNK     1      18.391  -7.708  37.665  1.00  0.00    -0.289 OA
HETATM    3  C1  UNK     1      19.648  -4.377  37.331  1.00  0.00     0.198 C 
HETATM    4  C2  UNK     1      18.882  -5.546  36.711  1.00  0.00     0.227 C 
HETATM    5  C4  UNK     1      20.576  -6.901  38.011  1.00  0.00     0.079 A 
HETATM    6  C5  UNK     1      19.199  -6.804  37.491  1.00  0.00     0.196 C 
HETATM    7  C6  UNK     1      21.434  -5.807  37.878  1.00  0.00     0.089 A 
HETATM    8  C7  UNK     1      21.026  -8.083  38.605  1.00  0.00     0.087 A 
HETATM    9  C10 UNK     1      22.757  -5.908  38.310  1.00  0.00     0.074 A 
HETATM   10  C11 UNK     1      23.210  -7.088  38.899  1.00  0.00     0.073 A 
HETATM   11  C12 UNK     1      22.345  -8.172  39.051  1.00  0.00     0.074 A 
ENDROOT
BRANCH   3  12
HETATM   12  C3  UNK     1      19.401  -3.081  36.582  1.00  0.00    -0.023 A 
HETATM   13  C8  UNK     1      19.826  -2.951  35.262  1.00  0.00     0.049 A 
HETATM   14  C13 UNK     1      19.598  -1.760  34.572  1.00  0.00     0.102 A 
HETATM   15  C15 UNK     1      18.947  -0.702  35.205  1.00  0.00     0.101 A 
HETATM   16  C14 UNK     1      18.522  -0.834  36.526  1.00  0.00     0.040 A 
HETATM   17  C9  UNK     1      18.750  -2.025  37.216  1.00  0.00     0.013 A 
BRANCH  14  18
HETATM   18  O6  UNK     1      20.017  -1.643  33.281  1.00  0.00    -0.353 OA
HETATM   19  C18 UNK     1      20.973  -2.597  32.821  1.00  0.00     0.210 C 
ENDBRANCH  14  18
BRANCH  15  20
HETATM   20  O7  UNK     1      18.718   0.466  34.541  1.00  0.00    -0.353 OA
HETATM   21  C19 UNK     1      18.644   1.655  35.327  1.00  0.00     0.210 C 
ENDBRANCH  15  20
ENDBRANCH   3  12
BRANCH   4  22
HETATM   22  O2  UNK     1      17.486  -5.314  36.793  1.00  0.00    -0.385 OA
HETATM   23  H6  UNK     1      17.200  -5.560  37.689  1.00  0.00     0.210 HD
ENDBRANCH   4  22
BRANCH  10  24
HETATM   24  O5  UNK     1      24.499  -7.183  39.330  1.00  0.00    -0.356 OA
HETATM   25  C17 UNK     1      25.327  -8.153  38.691  1.00  0.00     0.210 C 
ENDBRANCH  10  24
BRANCH   8  26
HETATM   26  O4  UNK     1      20.231  -9.178  38.762  1.00  0.00    -0.355 OA
HETATM   27  C16 UNK     1      20.542 -10.324  37.973  1.00  0.00     0.210 C 
ENDBRANCH   8  26
TORSDOF 6
ENDMDL
MODEL 8
REMARK VINA RESULT:      -7.5      1.474      2.178
REMARK  6 active torsions:
REMARK  status: ('A' for Active; 'I' for Inactive)
REMARK    1  A    between atoms: C2_9  and  O2_2 
REMARK    2  A    between atoms: C7_14  and  O4_4 
REMARK    3  A    between atoms: C11_18  and  O5_5 
REMARK    4  A    between atoms: C13_20  and  O6_6 
REMARK    5  A    between atoms: C15_22  and  O7_7 
REMARK    6  A    between atoms: C1_8  and  C3_10 
ROOT
HETATM    1  O1  UNK     1      18.134   4.927  33.169  1.00  0.00    -0.337 OA
HETATM    2  O3  UNK     1      18.812   4.150  29.197  1.00  0.00    -0.289 OA
HETATM    3  C1  UNK     1      17.708   5.842  32.148  1.00  0.00     0.198 C 
HETATM    4  C2  UNK     1      18.652   5.807  30.944  1.00  0.00     0.227 C 
HETATM    5  C4  UNK     1      18.573   3.318  31.388  1.00  0.00     0.079 A 
HETATM    6  C5  UNK     1      18.679   4.400  30.389  1.00  0.00     0.196 C 
HETATM    7  C6  UNK     1      18.322   3.645  32.722  1.00  0.00     0.089 A 
HETATM    8  C7  UNK     1      18.748   1.985  31.008  1.00  0.00     0.087 A 
HETATM    9  C10 UNK     1      18.282   2.637  33.686  1.00  0.00     0.074 A 
HETATM   10  C11 UNK     1      18.460   1.305  33.311  1.00  0.00     0.073 A 
HETATM   11  C12 UNK     1      18.689   0.980  31.974  1.00  0.00     0.074 A 
ENDROOT
BRANCH   3  12
HETATM   12  C3  UNK     1      17.651   7.221  32.777  1.00  0.00    -0.023 A 
HETATM   13  C8  UNK     1      16.462   7.947  32.752  1.00  0.00     0.049 A 
HETATM   14  C13 UNK     1      16.408   9.215  33.330  1.00  0.00     0.102 A 
HETATM   15  C15 UNK     1      17.545   9.755  33.932  1.00  0.00     0.101 A 
HETATM   16  C14 UNK     1      18.734   9.028  33.956  1.00  0.00     0.040 A 
HETATM   17  C9  UNK     1      18.788   7.759  33.378  1.00  0.00     0.013 A 
BRANCH  14  18
HETATM   18  O6  UNK     1      15.241   9.916  33.301  1.00  0.00    -0.353 OA
HETATM   19  C18 UNK     1      14.052   9.183  33.007  1.00  0.00     0.210 C 
ENDBRANCH  14  18
BRANCH  15  20
HETATM   20  O7  UNK     1      17.504  10.992  34.501  1.00  0.00    -0.353 OA
HETATM   21  C19 UNK     1      18.408  11.971  33.989  1.00  0.00     0.210 C 
ENDBRANCH  15  20
ENDBRANCH   3  12
BRANCH   4  22
HETATM   22  O2  UNK     1      18.179   6.675  29.928  1.00  0.00    -0.385 OA
HETATM   23  H6  UNK     1      17.869   7.489  30.359  1.00  0.00     0.210 HD
ENDBRANCH   4  22
BRANCH  10  24
HETATM   24  O5  UNK     1      18.410   0.321  34.250  1.00  0.00    -0.356 OA
HETATM   25  C17 UNK     1      18.598   0.711  35.610  1.00  0.00     0.210 C 
ENDBRANCH  10  24
BRANCH   8  26
HETATM   26  O4  UNK     1      18.992   1.612  29.721  1.00  0.00    -0.355 OA
HETATM   27  C16 UNK     1      19.843   0.484  29.523  1.00  0.00     0.210 C 
ENDBRANCH   8  26
TORSDOF 6
ENDMDL
MODEL 9
REMARK VINA RESULT:      -7.2      2.542      8.585
REMARK  6 active torsions:
REMARK  status: ('A' for Active; 'I' for Inactive)
REMARK    1  A    between atoms: C2_9  and  O2_2 
REMARK    2  A    between atoms: C7_14  and  O4_4 
REMARK    3  A    between atoms: C11_18  and  O5_5 
REMARK    4  A    between atoms: C13_20  and  O6_6 
REMARK    5  A    between atoms: C15_22  and  O7_7 
REMARK    6  A    between atoms: C1_8  and  C3_10 
ROOT
HETATM    1  O1  UNK     1      17.721   8.595  32.894  1.00  0.00    -0.337 OA
HETATM    2  O3  UNK     1      13.660   9.160  33.067  1.00  0.00    -0.289 OA
HETATM    3  C1  UNK     1      16.835   7.904  32.001  1.00  0.00     0.198 C 
HETATM    4  C2  UNK     1      15.483   7.631  32.664  1.00  0.00     0.227 C 
HETATM    5  C4  UNK     1      15.818   9.983  33.530  1.00  0.00     0.079 A 
HETATM    6  C5  UNK     1      14.867   8.951  33.074  1.00  0.00     0.196 C 
HETATM    7  C6  UNK     1      17.190   9.739  33.428  1.00  0.00     0.089 A 
HETATM    8  C7  UNK     1      15.353  11.179  34.083  1.00  0.00     0.087 A 
HETATM    9  C10 UNK     1      18.098  10.681  33.913  1.00  0.00     0.074 A 
HETATM   10  C11 UNK     1      17.636  11.874  34.469  1.00  0.00     0.073 A 
HETATM   11  C12 UNK     1      16.267  12.124  34.550  1.00  0.00     0.074 A 
ENDROOT
BRANCH   3  12
HETATM   12  C3  UNK     1      17.527   6.619  31.586  1.00  0.00    -0.023 A 
HETATM   13  C8  UNK     1      17.413   5.481  32.380  1.00  0.00     0.049 A 
HETATM   14  C13 UNK     1      18.049   4.300  31.999  1.00  0.00     0.102 A 
HETATM   15  C15 UNK     1      18.799   4.261  30.823  1.00  0.00     0.101 A 
HETATM   16  C14 UNK     1      18.912   5.401  30.029  1.00  0.00     0.040 A 
HETATM   17  C9  UNK     1      18.276   6.582  30.411  1.00  0.00     0.013 A 
BRANCH  14  18
HETATM   18  O6  UNK     1      17.932   3.192  32.783  1.00  0.00    -0.353 OA
HETATM   19  C18 UNK     1      18.288   3.331  34.158  1.00  0.00     0.210 C 
ENDBRANCH  14  18
BRANCH  15  20
HETATM   20  O7  UNK     1      19.424   3.112  30.440  1.00  0.00    -0.353 OA
HETATM   21  C19 UNK     1      18.720   2.262  29.535  1.00  0.00     0.210 C 
ENDBRANCH  15  20
ENDBRANCH   3  12
BRANCH   4  22
HETATM   22  O2  UNK     1      14.607   7.000  31.745  1.00  0.00    -0.385 OA
HETATM   23  H6  UNK     1      13.698   7.172  32.043  1.00  0.00     0.210 HD
ENDBRANCH   4  22
BRANCH  10  24
HETATM   24  O5  UNK     1      18.523  12.797  34.933  1.00  0.00    -0.356 OA
HETATM   25  C17 UNK     1      18.442  14.110  34.382  1.00  0.00     0.210 C 
ENDBRANCH  10  24
BRANCH   8  26
HETATM   26  O4  UNK     1      14.027  11.468  34.203  1.00  0.00    -0.355 OA
HETATM   27  C16 UNK     1      13.547  11.780  35.509  1.00  0.00     0.210 C 
ENDBRANCH   8  26
TORSDOF 6
ENDMDL
MODEL 10
REMARK VINA RESULT:      -7.1     15.530     19.076
REMARK  6 active torsions:
REMARK  status: ('A' for Active; 'I' for Inactive)
REMARK    1  A    between atoms: C2_9  and  O2_2 
REMARK    2  A    between atoms: C7_14  and  O4_4 
REMARK    3  A    between atoms: C11_18  and  O5_5 
REMARK    4  A    between atoms: C13_20  and  O6_6 
REMARK    5  A    between atoms: C15_22  and  O7_7 
REMARK    6  A    between atoms: C1_8  and  C3_10 
ROOT
HETATM    1  O1  UNK     1      18.904  -1.255  17.543  1.00  0.00    -0.337 OA
HETATM    2  O3  UNK     1      19.648   2.072  15.259  1.00  0.00    -0.289 OA
HETATM    3  C1  UNK     1      19.506  -1.363  16.245  1.00  0.00     0.198 C 
HETATM    4  C2  UNK     1      19.014  -0.256  15.311  1.00  0.00     0.227 C 
HETATM    5  C4  UNK     1      19.282   1.151  17.396  1.00  0.00     0.079 A 
HETATM    6  C5  UNK     1      19.356   1.085  15.924  1.00  0.00     0.196 C 
HETATM    7  C6  UNK     1      19.045  -0.020  18.120  1.00  0.00     0.089 A 
HETATM    8  C7  UNK     1      19.420   2.374  18.058  1.00  0.00     0.087 A 
HETATM    9  C10 UNK     1      18.910   0.039  19.507  1.00  0.00     0.074 A 
HETATM   10  C11 UNK     1      19.043   1.259  20.170  1.00  0.00     0.073 A 
HETATM   11  C12 UNK     1      19.302   2.423  19.447  1.00  0.00     0.074 A 
ENDROOT
BRANCH   3  12
HETATM   12  C3  UNK     1      19.172  -2.742  15.707  1.00  0.00    -0.023 A 
HETATM   13  C8  UNK     1      20.195  -3.597  15.305  1.00  0.00     0.049 A 
HETATM   14  C13 UNK     1      19.888  -4.865  14.811  1.00  0.00     0.102 A 
HETATM   15  C15 UNK     1      18.557  -5.274  14.719  1.00  0.00     0.101 A 
HETATM   16  C14 UNK     1      17.535  -4.416  15.123  1.00  0.00     0.040 A 
HETATM   17  C9  UNK     1      17.842  -3.148  15.617  1.00  0.00     0.013 A 
BRANCH  14  18
HETATM   18  O6  UNK     1      20.895  -5.694  14.421  1.00  0.00    -0.353 OA
HETATM   19  C18 UNK     1      21.618  -6.366  15.452  1.00  0.00     0.210 C 
ENDBRANCH  14  18
BRANCH  15  20
HETATM   20  O7  UNK     1      18.245  -6.510  14.240  1.00  0.00    -0.353 OA
HETATM   21  C19 UNK     1      16.868  -6.771  13.969  1.00  0.00     0.210 C 
ENDBRANCH  15  20
ENDBRANCH   3  12
BRANCH   4  22
HETATM   22  O2  UNK     1      19.665  -0.349  14.056  1.00  0.00    -0.385 OA
HETATM   23  H6  UNK     1      20.618  -0.441  14.226  1.00  0.00     0.210 HD
ENDBRANCH   4  22
BRANCH  10  24
HETATM   24  O5  UNK     1      18.922   1.314  21.525  1.00  0.00    -0.356 OA
HETATM   25  C17 UNK     1      19.734   2.266  22.211  1.00  0.00     0.210 C 
ENDBRANCH  10  24
BRANCH   8  26
HETATM   26  O4  UNK     1      19.656   3.544  17.400  1.00  0.00    -0.355 OA
HETATM   27  C16 UNK     1      20.437   4.524  18.081  1.00  0.00     0.210 C 
ENDBRANCH   8  26
TORSDOF 6
ENDMDL
