MODEL 1
REMARK VINA RESULT:      -8.4      0.000      0.000
REMARK  4 active torsions:
REMARK  status: ('A' for Active; 'I' for Inactive)
REMARK    1  A    between atoms: C5_10  and  O2_2 
REMARK    2  A    between atoms: C9_14  and  O4_4 
REMARK    3  A    between atoms: C15_20  and  O5_5 
REMARK    4  A    between atoms: C2_7  and  C4_9 
ROOT
HETATM    1  O1  UNK     1      19.047  -0.123  32.747  1.00  0.00    -0.306 OA
HETATM    2  O3  UNK     1      18.699   2.820  29.950  1.00  0.00    -0.284 OA
HETATM    3  C1  UNK     1      19.372   0.618  30.458  1.00  0.00     0.051 A 
HETATM    4  C2  UNK     1      18.496   1.110  33.059  1.00  0.00     0.123 A 
HETATM    5  C3  UNK     1      19.466  -0.345  31.460  1.00  0.00     0.093 A 
HETATM    6  C5  UNK     1      18.357   2.127  32.189  1.00  0.00     0.152 A 
HETATM    7  C6  UNK     1      18.801   1.933  30.786  1.00  0.00     0.220 A 
HETATM    8  C7  UNK     1      19.816   0.336  29.164  1.00  0.00     0.021 A 
HETATM    9  C8  UNK     1      20.005  -1.599  31.174  1.00  0.00     0.074 A 
HETATM   10  C9  UNK     1      20.450  -1.886  29.883  1.00  0.00     0.068 A 
HETATM   11  C12 UNK     1      20.356  -0.920  28.881  1.00  0.00     0.037 A 
ENDROOT
BRANCH   4  12
HETATM   12  C4  UNK     1      18.089   1.217  34.471  1.00  0.00     0.001 A 
HETATM   13  C10 UNK     1      16.902   0.624  34.903  1.00  0.00     0.017 A 
HETATM   14  C13 UNK     1      16.517   0.724  36.240  1.00  0.00     0.037 A 
HETATM   15  C15 UNK     1      17.320   1.416  37.146  1.00  0.00     0.065 A 
HETATM   16  C14 UNK     1      18.507   2.008  36.715  1.00  0.00     0.037 A 
HETATM   17  C11 UNK     1      18.891   1.909  35.379  1.00  0.00     0.017 A 
BRANCH  15  18
HETATM   18  O5  UNK     1      16.945   1.514  38.451  1.00  0.00    -0.361 OA
HETATM   19  H10 UNK     1      16.020   1.814  38.491  1.00  0.00     0.217 HD
ENDBRANCH  15  18
ENDBRANCH   4  12
BRANCH   6  20
HETATM   20  O2  UNK     1      17.836   3.352  32.540  1.00  0.00    -0.355 OA
HETATM   21  H8  UNK     1      17.984   3.991  31.825  1.00  0.00     0.218 HD
ENDBRANCH   6  20
BRANCH  10  22
HETATM   22  O4  UNK     1      20.977  -3.109  29.602  1.00  0.00    -0.361 OA
HETATM   23  H9  UNK     1      21.927  -3.008  29.423  1.00  0.00     0.217 HD
ENDBRANCH  10  22
TORSDOF 4
ENDMDL
MODEL 2
REMARK VINA RESULT:      -8.2     12.692     17.028
REMARK  4 active torsions:
REMARK  status: ('A' for Active; 'I' for Inactive)
REMARK    1  A    between atoms: C5_10  and  O2_2 
REMARK    2  A    between atoms: C9_14  and  O4_4 
REMARK    3  A    between atoms: C15_20  and  O5_5 
REMARK    4  A    between atoms: C2_7  and  C4_9 
ROOT
HETATM    1  O1  UNK     1      19.040  -0.981  17.757  1.00  0.00    -0.306 OA
HETATM    2  O3  UNK     1      19.346   2.270  15.320  1.00  0.00    -0.284 OA
HETATM    3  C1  UNK     1      19.151   1.431  17.515  1.00  0.00     0.051 A 
HETATM    4  C2  UNK     1      19.153  -1.116  16.382  1.00  0.00     0.123 A 
HETATM    5  C3  UNK     1      19.048   0.280  18.293  1.00  0.00     0.093 A 
HETATM    6  C5  UNK     1      19.250  -0.088  15.520  1.00  0.00     0.152 A 
HETATM    7  C6  UNK     1      19.258   1.295  16.055  1.00  0.00     0.220 A 
HETATM    8  C7  UNK     1      19.153   2.692  18.117  1.00  0.00     0.021 A 
HETATM    9  C8  UNK     1      18.944   0.383  19.680  1.00  0.00     0.074 A 
HETATM   10  C9  UNK     1      18.945   1.640  20.286  1.00  0.00     0.068 A 
HETATM   11  C12 UNK     1      19.048   2.792  19.505  1.00  0.00     0.037 A 
ENDROOT
BRANCH   4  12
HETATM   12  C4  UNK     1      19.131  -2.521  15.938  1.00  0.00     0.001 A 
HETATM   13  C10 UNK     1      20.310  -3.268  15.925  1.00  0.00     0.017 A 
HETATM   14  C13 UNK     1      20.289  -4.598  15.506  1.00  0.00     0.037 A 
HETATM   15  C15 UNK     1      19.090  -5.183  15.101  1.00  0.00     0.065 A 
HETATM   16  C14 UNK     1      17.911  -4.437  15.115  1.00  0.00     0.037 A 
HETATM   17  C11 UNK     1      17.932  -3.107  15.533  1.00  0.00     0.017 A 
BRANCH  15  18
HETATM   18  O5  UNK     1      19.069  -6.481  14.693  1.00  0.00    -0.361 OA
HETATM   19  H10 UNK     1      18.396  -6.581  13.997  1.00  0.00     0.217 HD
ENDBRANCH  15  18
ENDBRANCH   4  12
BRANCH   6  20
HETATM   20  O2  UNK     1      19.328  -0.256  14.154  1.00  0.00    -0.355 OA
HETATM   21  H8  UNK     1      20.069  -0.842  13.935  1.00  0.00     0.218 HD
ENDBRANCH   6  20
BRANCH  10  22
HETATM   22  O4  UNK     1      18.843   1.743  21.639  1.00  0.00    -0.361 OA
HETATM   23  H9  UNK     1      19.374   1.038  22.049  1.00  0.00     0.217 HD
ENDBRANCH  10  22
TORSDOF 4
ENDMDL
MODEL 3
REMARK VINA RESULT:      -8.2      3.423      4.367
REMARK  4 active torsions:
REMARK  status: ('A' for Active; 'I' for Inactive)
REMARK    1  A    between atoms: C5_10  and  O2_2 
REMARK    2  A    between atoms: C9_14  and  O4_4 
REMARK    3  A    between atoms: C15_20  and  O5_5 
REMARK    4  A    between atoms: C2_7  and  C4_9 
ROOT
HETATM    1  O1  UNK     1      19.535   1.354  31.301  1.00  0.00    -0.306 OA
HETATM    2  O3  UNK     1      18.832  -0.062  27.546  1.00  0.00    -0.284 OA
HETATM    3  C1  UNK     1      19.639  -0.485  29.721  1.00  0.00     0.051 A 
HETATM    4  C2  UNK     1      18.958   2.151  30.324  1.00  0.00     0.123 A 
HETATM    5  C3  UNK     1      19.855   0.060  30.984  1.00  0.00     0.093 A 
HETATM    6  C5  UNK     1      18.705   1.751  29.065  1.00  0.00     0.152 A 
HETATM    7  C6  UNK     1      19.041   0.360  28.676  1.00  0.00     0.220 A 
HETATM    8  C7  UNK     1      19.987  -1.811  29.454  1.00  0.00     0.021 A 
HETATM    9  C8  UNK     1      20.423  -0.720  31.992  1.00  0.00     0.074 A 
HETATM   10  C9  UNK     1      20.773  -2.046  31.731  1.00  0.00     0.068 A 
HETATM   11  C12 UNK     1      20.555  -2.589  30.464  1.00  0.00     0.037 A 
ENDROOT
BRANCH   4  12
HETATM   12  C4  UNK     1      18.665   3.516  30.795  1.00  0.00     0.001 A 
HETATM   13  C10 UNK     1      17.937   3.707  31.971  1.00  0.00     0.017 A 
HETATM   14  C13 UNK     1      17.660   4.999  32.418  1.00  0.00     0.037 A 
HETATM   15  C15 UNK     1      18.110   6.100  31.690  1.00  0.00     0.065 A 
HETATM   16  C14 UNK     1      18.838   5.909  30.515  1.00  0.00     0.037 A 
HETATM   17  C11 UNK     1      19.114   4.618  30.068  1.00  0.00     0.017 A 
BRANCH  15  18
HETATM   18  O5  UNK     1      17.840   7.361  32.125  1.00  0.00    -0.361 OA
HETATM   19  H10 UNK     1      18.233   7.999  31.505  1.00  0.00     0.217 HD
ENDBRANCH  15  18
ENDBRANCH   4  12
BRANCH   6  20
HETATM   20  O2  UNK     1      18.162   2.579  28.108  1.00  0.00    -0.355 OA
HETATM   21  H8  UNK     1      18.079   3.480  28.459  1.00  0.00     0.218 HD
ENDBRANCH   6  20
BRANCH  10  22
HETATM   22  O4  UNK     1      21.327  -2.809  32.712  1.00  0.00    -0.361 OA
HETATM   23  H9  UNK     1      21.982  -2.275  33.193  1.00  0.00     0.217 HD
ENDBRANCH  10  22
TORSDOF 4
ENDMDL
MODEL 4
REMARK VINA RESULT:      -7.9     23.880     26.015
REMARK  4 active torsions:
REMARK  status: ('A' for Active; 'I' for Inactive)
REMARK    1  A    between atoms: C5_10  and  O2_2 
REMARK    2  A    between atoms: C9_14  and  O4_4 
REMARK    3  A    between atoms: C15_20  and  O5_5 
REMARK    4  A    between atoms: C2_7  and  C4_9 
ROOT
HETATM    1  O1  UNK     1      13.333   7.689   8.737  1.00  0.00    -0.306 OA
HETATM    2  O3  UNK     1      15.229   4.197   9.638  1.00  0.00    -0.284 OA
HETATM    3  C1  UNK     1      15.323   6.551   9.534  1.00  0.00     0.051 A 
HETATM    4  C2  UNK     1      12.699   6.464   8.595  1.00  0.00     0.123 A 
HETATM    5  C3  UNK     1      14.621   7.708   9.206  1.00  0.00     0.093 A 
HETATM    6  C5  UNK     1      13.266   5.276   8.866  1.00  0.00     0.152 A 
HETATM    7  C6  UNK     1      14.661   5.248   9.372  1.00  0.00     0.220 A 
HETATM    8  C7  UNK     1      16.635   6.631  10.007  1.00  0.00     0.021 A 
HETATM    9  C8  UNK     1      15.227   8.957   9.349  1.00  0.00     0.074 A 
HETATM   10  C9  UNK     1      16.538   9.041   9.821  1.00  0.00     0.068 A 
HETATM   11  C12 UNK     1      17.240   7.881  10.149  1.00  0.00     0.037 A 
ENDROOT
BRANCH   4  12
HETATM   12  C4  UNK     1      11.322   6.586   8.083  1.00  0.00     0.001 A 
HETATM   13  C10 UNK     1      10.293   6.986   8.936  1.00  0.00     0.017 A 
HETATM   14  C13 UNK     1       8.990   7.101   8.451  1.00  0.00     0.037 A 
HETATM   15  C15 UNK     1       8.716   6.818   7.113  1.00  0.00     0.065 A 
HETATM   16  C14 UNK     1       9.746   6.420   6.260  1.00  0.00     0.037 A 
HETATM   17  C11 UNK     1      11.048   6.303   6.745  1.00  0.00     0.017 A 
BRANCH  15  18
HETATM   18  O5  UNK     1       7.445   6.932   6.640  1.00  0.00    -0.361 OA
HETATM   19  H10 UNK     1       6.836   7.026   7.392  1.00  0.00     0.217 HD
ENDBRANCH  15  18
ENDBRANCH   4  12
BRANCH   6  20
HETATM   20  O2  UNK     1      12.619   4.073   8.682  1.00  0.00    -0.355 OA
HETATM   21  H8  UNK     1      11.660   4.200   8.759  1.00  0.00     0.218 HD
ENDBRANCH   6  20
BRANCH  10  22
HETATM   22  O4  UNK     1      17.132  10.258   9.962  1.00  0.00    -0.361 OA
HETATM   23  H9  UNK     1      17.577  10.489   9.128  1.00  0.00     0.217 HD
ENDBRANCH  10  22
TORSDOF 4
ENDMDL
MODEL 5
REMARK VINA RESULT:      -7.8      1.822      3.310
REMARK  4 active torsions:
REMARK  status: ('A' for Active; 'I' for Inactive)
REMARK    1  A    between atoms: C5_10  and  O2_2 
REMARK    2  A    between atoms: C9_14  and  O4_4 
REMARK    3  A    between atoms: C15_20  and  O5_5 
REMARK    4  A    between atoms: C2_7  and  C4_9 
ROOT
HETATM    1  O1  UNK     1      18.642   0.016  32.806  1.00  0.00    -0.306 OA
HETATM    2  O3  UNK     1      20.778  -3.410  33.355  1.00  0.00    -0.284 OA
HETATM    3  C1  UNK     1      20.054  -1.724  31.874  1.00  0.00     0.051 A 
HETATM    4  C2  UNK     1      18.731  -0.589  34.050  1.00  0.00     0.123 A 
HETATM    5  C3  UNK     1      19.306  -0.555  31.752  1.00  0.00     0.093 A 
HETATM    6  C5  UNK     1      19.411  -1.723  34.300  1.00  0.00     0.152 A 
HETATM    7  C6  UNK     1      20.140  -2.379  33.188  1.00  0.00     0.220 A 
HETATM    8  C7  UNK     1      20.709  -2.262  30.763  1.00  0.00     0.021 A 
HETATM    9  C8  UNK     1      19.207   0.084  30.515  1.00  0.00     0.074 A 
HETATM   10  C9  UNK     1      19.859  -0.450  29.404  1.00  0.00     0.068 A 
HETATM   11  C12 UNK     1      20.608  -1.621  29.528  1.00  0.00     0.037 A 
ENDROOT
BRANCH   4  12
HETATM   12  C4  UNK     1      17.973   0.125  35.092  1.00  0.00     0.001 A 
HETATM   13  C10 UNK     1      18.619   1.047  35.918  1.00  0.00     0.017 A 
HETATM   14  C13 UNK     1      17.901   1.724  36.904  1.00  0.00     0.037 A 
HETATM   15  C15 UNK     1      16.537   1.480  37.065  1.00  0.00     0.065 A 
HETATM   16  C14 UNK     1      15.891   0.560  36.239  1.00  0.00     0.037 A 
HETATM   17  C11 UNK     1      16.609  -0.118  35.254  1.00  0.00     0.017 A 
BRANCH  15  18
HETATM   18  O5  UNK     1      15.837   2.141  38.026  1.00  0.00    -0.361 OA
HETATM   19  H10 UNK     1      15.931   3.099  37.883  1.00  0.00     0.217 HD
ENDBRANCH  15  18
ENDBRANCH   4  12
BRANCH   6  20
HETATM   20  O2  UNK     1      19.451  -2.317  35.542  1.00  0.00    -0.355 OA
HETATM   21  H8  UNK     1      18.669  -2.061  36.056  1.00  0.00     0.218 HD
ENDBRANCH   6  20
BRANCH  10  22
HETATM   22  O4  UNK     1      19.764   0.171  28.196  1.00  0.00    -0.361 OA
HETATM   23  H9  UNK     1      19.256  -0.394  27.591  1.00  0.00     0.217 HD
ENDBRANCH  10  22
TORSDOF 4
ENDMDL
MODEL 6
REMARK VINA RESULT:      -7.7      3.177      5.047
REMARK  4 active torsions:
REMARK  status: ('A' for Active; 'I' for Inactive)
REMARK    1  A    between atoms: C5_10  and  O2_2 
REMARK    2  A    between atoms: C9_14  and  O4_4 
REMARK    3  A    between atoms: C15_20  and  O5_5 
REMARK    4  A    between atoms: C2_7  and  C4_9 
ROOT
HETATM    1  O1  UNK     1      18.143   3.084  33.177  1.00  0.00    -0.306 OA
HETATM    2  O3  UNK     1      19.282   1.574  29.568  1.00  0.00    -0.284 OA
HETATM    3  C1  UNK     1      18.719   1.156  31.820  1.00  0.00     0.051 A 
HETATM    4  C2  UNK     1      18.333   3.906  32.077  1.00  0.00     0.123 A 
HETATM    5  C3  UNK     1      18.332   1.735  33.026  1.00  0.00     0.093 A 
HETATM    6  C5  UNK     1      18.715   3.476  30.861  1.00  0.00     0.152 A 
HETATM    7  C6  UNK     1      18.936   2.024  30.653  1.00  0.00     0.220 A 
HETATM    8  C7  UNK     1      18.898  -0.226  31.725  1.00  0.00     0.021 A 
HETATM    9  C8  UNK     1      18.122   0.933  34.149  1.00  0.00     0.074 A 
HETATM   10  C9  UNK     1      18.299  -0.448  34.058  1.00  0.00     0.068 A 
HETATM   11  C12 UNK     1      18.688  -1.026  32.849  1.00  0.00     0.037 A 
ENDROOT
BRANCH   4  12
HETATM   12  C4  UNK     1      18.098   5.329  32.376  1.00  0.00     0.001 A 
HETATM   13  C10 UNK     1      19.143   6.126  32.843  1.00  0.00     0.017 A 
HETATM   14  C13 UNK     1      18.921   7.474  33.126  1.00  0.00     0.037 A 
HETATM   15  C15 UNK     1      17.654   8.026  32.940  1.00  0.00     0.065 A 
HETATM   16  C14 UNK     1      16.609   7.229  32.472  1.00  0.00     0.037 A 
HETATM   17  C11 UNK     1      16.830   5.882  32.190  1.00  0.00     0.017 A 
BRANCH  15  18
HETATM   18  O5  UNK     1      17.437   9.341  33.215  1.00  0.00    -0.361 OA
HETATM   19  H10 UNK     1      16.510   9.457  33.489  1.00  0.00     0.217 HD
ENDBRANCH  15  18
ENDBRANCH   4  12
BRANCH   6  20
HETATM   20  O2  UNK     1      18.928   4.324  29.796  1.00  0.00    -0.355 OA
HETATM   21  H8  UNK     1      18.135   4.357  29.237  1.00  0.00     0.218 HD
ENDBRANCH   6  20
BRANCH  10  22
HETATM   22  O4  UNK     1      18.095  -1.233  35.152  1.00  0.00    -0.361 OA
HETATM   23  H9  UNK     1      18.460  -0.784  35.934  1.00  0.00     0.217 HD
ENDBRANCH  10  22
TORSDOF 4
ENDMDL
MODEL 7
REMARK VINA RESULT:      -7.5      5.852      9.092
REMARK  4 active torsions:
REMARK  status: ('A' for Active; 'I' for Inactive)
REMARK    1  A    between atoms: C5_10  and  O2_2 
REMARK    2  A    between atoms: C9_14  and  O4_4 
REMARK    3  A    between atoms: C15_20  and  O5_5 
REMARK    4  A    between atoms: C2_7  and  C4_9 
ROOT
HETATM    1  O1  UNK     1      16.835   7.339  32.086  1.00  0.00    -0.306 OA
HETATM    2  O3  UNK     1      19.461   9.267  34.534  1.00  0.00    -0.284 OA
HETATM    3  C1  UNK     1      17.317   9.212  33.553  1.00  0.00     0.051 A 
HETATM    4  C2  UNK     1      18.103   6.834  32.328  1.00  0.00     0.123 A 
HETATM    5  C3  UNK     1      16.468   8.506  32.704  1.00  0.00     0.093 A 
HETATM    6  C5  UNK     1      19.021   7.421  33.117  1.00  0.00     0.152 A 
HETATM    7  C6  UNK     1      18.669   8.688  33.802  1.00  0.00     0.220 A 
HETATM    8  C7  UNK     1      16.889  10.398  34.154  1.00  0.00     0.021 A 
HETATM    9  C8  UNK     1      15.181   8.983  32.450  1.00  0.00     0.074 A 
HETATM   10  C9  UNK     1      14.749  10.167  33.049  1.00  0.00     0.068 A 
HETATM   11  C12 UNK     1      15.602  10.873  33.898  1.00  0.00     0.037 A 
ENDROOT
BRANCH   4  12
HETATM   12  C4  UNK     1      18.369   5.578  31.603  1.00  0.00     0.001 A 
HETATM   13  C10 UNK     1      18.058   4.353  32.193  1.00  0.00     0.017 A 
HETATM   14  C13 UNK     1      18.309   3.164  31.508  1.00  0.00     0.037 A 
HETATM   15  C15 UNK     1      18.870   3.200  30.232  1.00  0.00     0.065 A 
HETATM   16  C14 UNK     1      19.180   4.426  29.641  1.00  0.00     0.037 A 
HETATM   17  C11 UNK     1      18.931   5.614  30.327  1.00  0.00     0.017 A 
BRANCH  15  18
HETATM   18  O5  UNK     1      19.114   2.041  29.562  1.00  0.00    -0.361 OA
HETATM   19  H10 UNK     1      19.498   2.254  28.694  1.00  0.00     0.217 HD
ENDBRANCH  15  18
ENDBRANCH   4  12
BRANCH   6  20
HETATM   20  O2  UNK     1      20.285   6.909  33.309  1.00  0.00    -0.355 OA
HETATM   21  H8  UNK     1      20.619   7.174  34.181  1.00  0.00     0.218 HD
ENDBRANCH   6  20
BRANCH  10  22
HETATM   22  O4  UNK     1      13.495  10.635  32.802  1.00  0.00    -0.361 OA
HETATM   23  H9  UNK     1      12.878   9.884  32.782  1.00  0.00     0.217 HD
ENDBRANCH  10  22
TORSDOF 4
ENDMDL
MODEL 8
REMARK VINA RESULT:      -7.5     23.604     26.192
REMARK  4 active torsions:
REMARK  status: ('A' for Active; 'I' for Inactive)
REMARK    1  A    between atoms: C5_10  and  O2_2 
REMARK    2  A    between atoms: C9_14  and  O4_4 
REMARK    3  A    between atoms: C15_20  and  O5_5 
REMARK    4  A    between atoms: C2_7  and  C4_9 
ROOT
HETATM    1  O1  UNK     1      11.739   6.304   9.241  1.00  0.00    -0.306 OA
HETATM    2  O3  UNK     1      11.043   6.395   5.227  1.00  0.00    -0.284 OA
HETATM    3  C1  UNK     1      10.158   6.184   7.403  1.00  0.00     0.051 A 
HETATM    4  C2  UNK     1      12.769   6.493   8.333  1.00  0.00     0.123 A 
HETATM    5  C3  UNK     1      10.463   6.160   8.762  1.00  0.00     0.093 A 
HETATM    6  C5  UNK     1      12.612   6.527   6.997  1.00  0.00     0.152 A 
HETATM    7  C6  UNK     1      11.249   6.371   6.434  1.00  0.00     0.220 A 
HETATM    8  C7  UNK     1       8.838   6.032   6.972  1.00  0.00     0.021 A 
HETATM    9  C8  UNK     1       9.447   5.983   9.701  1.00  0.00     0.074 A 
HETATM   10  C9  UNK     1       8.127   5.830   9.276  1.00  0.00     0.068 A 
HETATM   11  C12 UNK     1       7.824   5.854   7.914  1.00  0.00     0.037 A 
ENDROOT
BRANCH   4  12
HETATM   12  C4  UNK     1      14.087   6.632   8.978  1.00  0.00     0.001 A 
HETATM   13  C10 UNK     1      14.889   5.507   9.175  1.00  0.00     0.017 A 
HETATM   14  C13 UNK     1      16.137   5.639   9.786  1.00  0.00     0.037 A 
HETATM   15  C15 UNK     1      16.582   6.894  10.199  1.00  0.00     0.065 A 
HETATM   16  C14 UNK     1      15.780   8.018  10.001  1.00  0.00     0.037 A 
HETATM   17  C11 UNK     1      14.533   7.887   9.392  1.00  0.00     0.017 A 
BRANCH  15  18
HETATM   18  O5  UNK     1      17.799   7.022  10.795  1.00  0.00    -0.361 OA
HETATM   19  H10 UNK     1      18.377   7.551  10.218  1.00  0.00     0.217 HD
ENDBRANCH  15  18
ENDBRANCH   4  12
BRANCH   6  20
HETATM   20  O2  UNK     1      13.662   6.683   6.120  1.00  0.00    -0.355 OA
HETATM   21  H8  UNK     1      13.845   7.627   5.989  1.00  0.00     0.218 HD
ENDBRANCH   6  20
BRANCH  10  22
HETATM   22  O4  UNK     1       7.133   5.657  10.190  1.00  0.00    -0.361 OA
HETATM   23  H9  UNK     1       7.448   5.963  11.058  1.00  0.00     0.217 HD
ENDBRANCH  10  22
TORSDOF 4
ENDMDL
MODEL 9
REMARK VINA RESULT:      -7.5     23.770     26.061
REMARK  4 active torsions:
REMARK  status: ('A' for Active; 'I' for Inactive)
REMARK    1  A    between atoms: C5_10  and  O2_2 
REMARK    2  A    between atoms: C9_14  and  O4_4 
REMARK    3  A    between atoms: C15_20  and  O5_5 
REMARK    4  A    between atoms: C2_7  and  C4_9 
ROOT
HETATM    1  O1  UNK     1      13.166   8.681   8.572  1.00  0.00    -0.306 OA
HETATM    2  O3  UNK     1      15.200   6.019  10.891  1.00  0.00    -0.284 OA
HETATM    3  C1  UNK     1      15.223   8.052   9.697  1.00  0.00     0.051 A 
HETATM    4  C2  UNK     1      12.561   7.530   9.051  1.00  0.00     0.123 A 
HETATM    5  C3  UNK     1      14.474   8.921   8.907  1.00  0.00     0.093 A 
HETATM    6  C5  UNK     1      13.174   6.607   9.814  1.00  0.00     0.152 A 
HETATM    7  C6  UNK     1      14.591   6.822  10.197  1.00  0.00     0.220 A 
HETATM    8  C7  UNK     1      16.553   8.348  10.006  1.00  0.00     0.021 A 
HETATM    9  C8  UNK     1      15.051  10.093   8.418  1.00  0.00     0.074 A 
HETATM   10  C9  UNK     1      16.379  10.392   8.724  1.00  0.00     0.068 A 
HETATM   11  C12 UNK     1      17.128   9.521   9.516  1.00  0.00     0.037 A 
ENDROOT
BRANCH   4  12
HETATM   12  C4  UNK     1      11.159   7.394   8.617  1.00  0.00     0.001 A 
HETATM   13  C10 UNK     1      10.849   6.641   7.484  1.00  0.00     0.017 A 
HETATM   14  C13 UNK     1       9.522   6.512   7.073  1.00  0.00     0.037 A 
HETATM   15  C15 UNK     1       8.505   7.135   7.796  1.00  0.00     0.065 A 
HETATM   16  C14 UNK     1       8.815   7.887   8.930  1.00  0.00     0.037 A 
HETATM   17  C11 UNK     1      10.142   8.017   9.340  1.00  0.00     0.017 A 
BRANCH  15  18
HETATM   18  O5  UNK     1       7.210   7.009   7.396  1.00  0.00    -0.361 OA
HETATM   19  H10 UNK     1       7.133   6.226   6.823  1.00  0.00     0.217 HD
ENDBRANCH  15  18
ENDBRANCH   4  12
BRANCH   6  20
HETATM   20  O2  UNK     1      12.553   5.455  10.247  1.00  0.00    -0.355 OA
HETATM   21  H8  UNK     1      13.096   5.023  10.925  1.00  0.00     0.218 HD
ENDBRANCH   6  20
BRANCH  10  22
HETATM   22  O4  UNK     1      16.945  11.536   8.249  1.00  0.00    -0.361 OA
HETATM   23  H9  UNK     1      16.242  12.124   7.926  1.00  0.00     0.217 HD
ENDBRANCH  10  22
TORSDOF 4
ENDMDL
MODEL 10
REMARK VINA RESULT:      -7.4     25.062     26.826
REMARK  4 active torsions:
REMARK  status: ('A' for Active; 'I' for Inactive)
REMARK    1  A    between atoms: C5_10  and  O2_2 
REMARK    2  A    between atoms: C9_14  and  O4_4 
REMARK    3  A    between atoms: C15_20  and  O5_5 
REMARK    4  A    between atoms: C2_7  and  C4_9 
ROOT
HETATM    1  O1  UNK     1       7.938   7.225   9.997  1.00  0.00    -0.306 OA
HETATM    2  O3  UNK     1       6.193   3.868  11.510  1.00  0.00    -0.284 OA
HETATM    3  C1  UNK     1       6.386   6.218  11.569  1.00  0.00     0.051 A 
HETATM    4  C2  UNK     1       8.239   5.966   9.500  1.00  0.00     0.123 A 
HETATM    5  C3  UNK     1       7.019   7.326  11.010  1.00  0.00     0.093 A 
HETATM    6  C5  UNK     1       7.707   4.818   9.956  1.00  0.00     0.152 A 
HETATM    7  C6  UNK     1       6.712   4.879  11.055  1.00  0.00     0.220 A 
HETATM    8  C7  UNK     1       5.459   6.380  12.600  1.00  0.00     0.021 A 
HETATM    9  C8  UNK     1       6.729   8.606  11.481  1.00  0.00     0.074 A 
HETATM   10  C9  UNK     1       5.803   8.773  12.511  1.00  0.00     0.068 A 
HETATM   11  C12 UNK     1       5.170   7.662  13.070  1.00  0.00     0.037 A 
ENDROOT
BRANCH   4  12
HETATM   12  C4  UNK     1       9.239   6.000   8.418  1.00  0.00     0.001 A 
HETATM   13  C10 UNK     1       8.831   6.188   7.097  1.00  0.00     0.017 A 
HETATM   14  C13 UNK     1       9.777   6.221   6.072  1.00  0.00     0.037 A 
HETATM   15  C15 UNK     1      11.131   6.067   6.368  1.00  0.00     0.065 A 
HETATM   16  C14 UNK     1      11.539   5.880   7.689  1.00  0.00     0.037 A 
HETATM   17  C11 UNK     1      10.593   5.846   8.713  1.00  0.00     0.017 A 
BRANCH  15  18
HETATM   18  O5  UNK     1      12.054   6.099   5.369  1.00  0.00    -0.361 OA
HETATM   19  H10 UNK     1      12.424   5.207   5.253  1.00  0.00     0.217 HD
ENDBRANCH  15  18
ENDBRANCH   4  12
BRANCH   6  20
HETATM   20  O2  UNK     1       8.054   3.580   9.463  1.00  0.00    -0.355 OA
HETATM   21  H8  UNK     1       7.550   2.889   9.921  1.00  0.00     0.218 HD
ENDBRANCH   6  20
BRANCH  10  22
HETATM   22  O4  UNK     1       5.518  10.022  12.973  1.00  0.00    -0.361 OA
HETATM   23  H9  UNK     1       4.565  10.080  13.155  1.00  0.00     0.217 HD
ENDBRANCH  10  22
TORSDOF 4
ENDMDL
