MODEL 1
REMARK VINA RESULT:      -6.8      0.000      0.000
REMARK  2 active torsions:
REMARK  status: ('A' for Active; 'I' for Inactive)
REMARK    1  A    between atoms: C3_8  and  O2_2 
REMARK    2  A    between atoms: C4_9  and  N1_5 
ROOT
HETATM    1  O1  UNK     1      19.144   1.735  30.792  1.00  0.00    -0.308 OA
HETATM    2  C1  UNK     1      19.443  -0.579  31.489  1.00  0.00     0.034 A 
HETATM    3  C2  UNK     1      19.588   0.455  30.556  1.00  0.00     0.089 A 
HETATM    4  C3  UNK     1      18.789  -0.286  32.772  1.00  0.00     0.114 A 
HETATM    5  C4  UNK     1      18.363   0.974  32.975  1.00  0.00     0.169 A 
HETATM    6  C5  UNK     1      18.515   2.046  32.003  1.00  0.00     0.102 A 
HETATM    7  C6  UNK     1      19.928  -1.852  31.155  1.00  0.00     0.017 A 
HETATM    8  C7  UNK     1      20.201   0.230  29.320  1.00  0.00     0.038 A 
HETATM    9  C8  UNK     1      20.542  -2.079  29.921  1.00  0.00     0.001 A 
HETATM   10  C9  UNK     1      20.678  -1.039  29.004  1.00  0.00     0.003 A 
HETATM   11  C10 UNK     1      18.105   3.312  32.165  1.00  0.00     0.054 C 
ENDROOT
BRANCH   5  12
HETATM   12  N1  UNK     1      17.727   1.236  34.229  1.00  0.00    -0.110 N 
HETATM   13  O3  UNK     1      16.541   0.906  34.333  1.00  0.00    -0.532 OA
HETATM   14  O4  UNK     1      18.416   1.769  35.104  1.00  0.00    -0.532 OA
ENDBRANCH   5  12
BRANCH   4  15
HETATM   15  O2  UNK     1      18.689  -1.354  33.634  1.00  0.00    -0.357 OA
HETATM   16  H7  UNK     1      19.388  -1.996  33.429  1.00  0.00     0.217 HD
ENDBRANCH   4  15
TORSDOF 2
ENDMDL
MODEL 2
REMARK VINA RESULT:      -6.7      1.511      1.770
REMARK  2 active torsions:
REMARK  status: ('A' for Active; 'I' for Inactive)
REMARK    1  A    between atoms: C3_8  and  O2_2 
REMARK    2  A    between atoms: C4_9  and  N1_5 
ROOT
HETATM    1  O1  UNK     1      18.729   1.150  31.849  1.00  0.00    -0.308 OA
HETATM    2  C1  UNK     1      19.668  -1.082  31.590  1.00  0.00     0.034 A 
HETATM    3  C2  UNK     1      19.317   0.173  31.079  1.00  0.00     0.089 A 
HETATM    4  C3  UNK     1      19.397  -1.369  33.006  1.00  0.00     0.114 A 
HETATM    5  C4  UNK     1      18.819  -0.396  33.734  1.00  0.00     0.169 A 
HETATM    6  C5  UNK     1      18.456   0.906  33.200  1.00  0.00     0.102 A 
HETATM    7  C6  UNK     1      20.263  -2.012  30.725  1.00  0.00     0.017 A 
HETATM    8  C7  UNK     1      19.552   0.498  29.740  1.00  0.00     0.038 A 
HETATM    9  C8  UNK     1      20.499  -1.690  29.387  1.00  0.00     0.001 A 
HETATM   10  C9  UNK     1      20.144  -0.436  28.894  1.00  0.00     0.003 A 
HETATM   11  C10 UNK     1      17.879   1.901  33.890  1.00  0.00     0.054 C 
ENDROOT
BRANCH   5  12
HETATM   12  N1  UNK     1      18.562  -0.699  35.108  1.00  0.00    -0.110 N 
HETATM   13  O3  UNK     1      19.511  -0.589  35.891  1.00  0.00    -0.532 OA
HETATM   14  O4  UNK     1      17.412  -1.044  35.398  1.00  0.00    -0.532 OA
ENDBRANCH   5  12
BRANCH   4  15
HETATM   15  O2  UNK     1      19.775  -2.623  33.430  1.00  0.00    -0.357 OA
HETATM   16  H7  UNK     1      18.985  -3.180  33.525  1.00  0.00     0.217 HD
ENDBRANCH   4  15
TORSDOF 2
ENDMDL
MODEL 3
REMARK VINA RESULT:      -6.6      1.702      2.917
REMARK  2 active torsions:
REMARK  status: ('A' for Active; 'I' for Inactive)
REMARK    1  A    between atoms: C3_8  and  O2_2 
REMARK    2  A    between atoms: C4_9  and  N1_5 
ROOT
HETATM    1  O1  UNK     1      18.834   0.173  32.830  1.00  0.00    -0.308 OA
HETATM    2  C1  UNK     1      19.409   0.884  30.573  1.00  0.00     0.034 A 
HETATM    3  C2  UNK     1      19.319  -0.094  31.570  1.00  0.00     0.089 A 
HETATM    4  C3  UNK     1      18.969   2.252  30.882  1.00  0.00     0.114 A 
HETATM    5  C4  UNK     1      18.501   2.484  32.122  1.00  0.00     0.169 A 
HETATM    6  C5  UNK     1      18.409   1.466  33.156  1.00  0.00     0.102 A 
HETATM    7  C6  UNK     1      19.919   0.514  29.319  1.00  0.00     0.017 A 
HETATM    8  C7  UNK     1      19.725  -1.409  31.330  1.00  0.00     0.038 A 
HETATM    9  C8  UNK     1      20.324  -0.801  29.076  1.00  0.00     0.001 A 
HETATM   10  C9  UNK     1      20.228  -1.762  30.080  1.00  0.00     0.003 A 
HETATM   11  C10 UNK     1      17.950   1.656  34.401  1.00  0.00     0.054 C 
ENDROOT
BRANCH   5  12
HETATM   12  N1  UNK     1      18.081   3.823  32.401  1.00  0.00    -0.110 N 
HETATM   13  O3  UNK     1      17.171   4.280  31.703  1.00  0.00    -0.532 OA
HETATM   14  O4  UNK     1      18.662   4.410  33.318  1.00  0.00    -0.532 OA
ENDBRANCH   5  12
BRANCH   4  15
HETATM   15  O2  UNK     1      19.087   3.151  29.847  1.00  0.00    -0.357 OA
HETATM   16  H7  UNK     1      18.445   2.926  29.154  1.00  0.00     0.217 HD
ENDBRANCH   4  15
TORSDOF 2
ENDMDL
MODEL 4
REMARK VINA RESULT:      -6.6      1.011      2.608
REMARK  2 active torsions:
REMARK  status: ('A' for Active; 'I' for Inactive)
REMARK    1  A    between atoms: C3_8  and  O2_2 
REMARK    2  A    between atoms: C4_9  and  N1_5 
ROOT
HETATM    1  O1  UNK     1      19.575  -1.731  32.949  1.00  0.00    -0.308 OA
HETATM    2  C1  UNK     1      19.386  -0.026  31.220  1.00  0.00     0.034 A 
HETATM    3  C2  UNK     1      19.801  -1.287  31.667  1.00  0.00     0.089 A 
HETATM    4  C3  UNK     1      18.681   0.859  32.158  1.00  0.00     0.114 A 
HETATM    5  C4  UNK     1      18.476   0.399  33.406  1.00  0.00     0.169 A 
HETATM    6  C5  UNK     1      18.908  -0.911  33.866  1.00  0.00     0.102 A 
HETATM    7  C6  UNK     1      19.664   0.337  29.894  1.00  0.00     0.017 A 
HETATM    8  C7  UNK     1      20.476  -2.167  30.817  1.00  0.00     0.038 A 
HETATM    9  C8  UNK     1      20.338  -0.542  29.042  1.00  0.00     0.001 A 
HETATM   10  C9  UNK     1      20.744  -1.793  29.503  1.00  0.00     0.003 A 
HETATM   11  C10 UNK     1      18.724  -1.406  35.099  1.00  0.00     0.054 C 
ENDROOT
BRANCH   5  12
HETATM   12  N1  UNK     1      17.791   1.279  34.302  1.00  0.00    -0.110 N 
HETATM   13  O3  UNK     1      16.564   1.159  34.372  1.00  0.00    -0.532 OA
HETATM   14  O4  UNK     1      18.483   2.084  34.932  1.00  0.00    -0.532 OA
ENDBRANCH   5  12
BRANCH   4  15
HETATM   15  O2  UNK     1      18.305   2.077  31.640  1.00  0.00    -0.357 OA
HETATM   16  H7  UNK     1      18.384   2.756  32.330  1.00  0.00     0.217 HD
ENDBRANCH   4  15
TORSDOF 2
ENDMDL
MODEL 5
REMARK VINA RESULT:      -6.5     22.991     24.106
REMARK  2 active torsions:
REMARK  status: ('A' for Active; 'I' for Inactive)
REMARK    1  A    between atoms: C3_8  and  O2_2 
REMARK    2  A    between atoms: C4_9  and  N1_5 
ROOT
HETATM    1  O1  UNK     1      13.461   8.448   9.006  1.00  0.00    -0.308 OA
HETATM    2  C1  UNK     1      15.083   6.808   9.786  1.00  0.00     0.034 A 
HETATM    3  C2  UNK     1      14.730   8.111   9.417  1.00  0.00     0.089 A 
HETATM    4  C3  UNK     1      14.057   5.756   9.733  1.00  0.00     0.114 A 
HETATM    5  C4  UNK     1      12.826   6.114   9.326  1.00  0.00     0.169 A 
HETATM    6  C5  UNK     1      12.463   7.469   8.942  1.00  0.00     0.102 A 
HETATM    7  C6  UNK     1      16.404   6.563  10.191  1.00  0.00     0.017 A 
HETATM    8  C7  UNK     1      15.667   9.148   9.448  1.00  0.00     0.038 A 
HETATM    9  C8  UNK     1      17.342   7.598  10.224  1.00  0.00     0.001 A 
HETATM   10  C9  UNK     1      16.974   8.889   9.852  1.00  0.00     0.003 A 
HETATM   11  C10 UNK     1      11.251   7.867   8.531  1.00  0.00     0.054 C 
ENDROOT
BRANCH   5  12
HETATM   12  N1  UNK     1      11.845   5.074   9.279  1.00  0.00    -0.110 N 
HETATM   13  O3  UNK     1      11.904   4.294   8.323  1.00  0.00    -0.532 OA
HETATM   14  O4  UNK     1      11.021   5.041  10.198  1.00  0.00    -0.532 OA
ENDBRANCH   5  12
BRANCH   4  15
HETATM   15  O2  UNK     1      14.484   4.505  10.115  1.00  0.00    -0.357 OA
HETATM   16  H7  UNK     1      13.792   4.081  10.649  1.00  0.00     0.217 HD
ENDBRANCH   4  15
TORSDOF 2
ENDMDL
MODEL 6
REMARK VINA RESULT:      -6.5     24.421     25.989
REMARK  2 active torsions:
REMARK  status: ('A' for Active; 'I' for Inactive)
REMARK    1  A    between atoms: C3_8  and  O2_2 
REMARK    2  A    between atoms: C4_9  and  N1_5 
ROOT
HETATM    1  O1  UNK     1      11.499   6.305   6.475  1.00  0.00    -0.308 OA
HETATM    2  C1  UNK     1      11.676   5.642   8.811  1.00  0.00     0.034 A 
HETATM    3  C2  UNK     1      12.250   6.010   7.588  1.00  0.00     0.089 A 
HETATM    4  C3  UNK     1      10.211   5.568   8.909  1.00  0.00     0.114 A 
HETATM    5  C4  UNK     1       9.502   5.861   7.804  1.00  0.00     0.169 A 
HETATM    6  C5  UNK     1      10.102   6.242   6.536  1.00  0.00     0.102 A 
HETATM    7  C6  UNK     1      12.526   5.358   9.890  1.00  0.00     0.017 A 
HETATM    8  C7  UNK     1      13.637   6.094   7.440  1.00  0.00     0.038 A 
HETATM    9  C8  UNK     1      13.913   5.442   9.744  1.00  0.00     0.001 A 
HETATM   10  C9  UNK     1      14.468   5.810   8.520  1.00  0.00     0.003 A 
HETATM   11  C10 UNK     1       9.433   6.541   5.412  1.00  0.00     0.054 C 
ENDROOT
BRANCH   5  12
HETATM   12  N1  UNK     1       8.079   5.779   7.922  1.00  0.00    -0.110 N 
HETATM   13  O3  UNK     1       7.462   6.847   7.987  1.00  0.00    -0.532 OA
HETATM   14  O4  UNK     1       7.584   4.648   7.948  1.00  0.00    -0.532 OA
ENDBRANCH   5  12
BRANCH   4  15
HETATM   15  O2  UNK     1       9.726   5.203  10.145  1.00  0.00    -0.357 OA
HETATM   16  H7  UNK     1      10.434   5.293  10.804  1.00  0.00     0.217 HD
ENDBRANCH   4  15
TORSDOF 2
ENDMDL
MODEL 7
REMARK VINA RESULT:      -6.4     23.064     24.755
REMARK  2 active torsions:
REMARK  status: ('A' for Active; 'I' for Inactive)
REMARK    1  A    between atoms: C3_8  and  O2_2 
REMARK    2  A    between atoms: C4_9  and  N1_5 
ROOT
HETATM    1  O1  UNK     1      12.566   8.274  10.151  1.00  0.00    -0.308 OA
HETATM    2  C1  UNK     1      14.562   7.033   9.514  1.00  0.00     0.034 A 
HETATM    3  C2  UNK     1      13.889   7.946  10.336  1.00  0.00     0.089 A 
HETATM    4  C3  UNK     1      13.826   6.401   8.410  1.00  0.00     0.114 A 
HETATM    5  C4  UNK     1      12.535   6.743   8.252  1.00  0.00     0.169 A 
HETATM    6  C5  UNK     1      11.839   7.691   9.107  1.00  0.00     0.102 A 
HETATM    7  C6  UNK     1      15.912   6.763   9.783  1.00  0.00     0.017 A 
HETATM    8  C7  UNK     1      14.541   8.576  11.399  1.00  0.00     0.038 A 
HETATM    9  C8  UNK     1      16.566   7.392  10.845  1.00  0.00     0.001 A 
HETATM   10  C9  UNK     1      15.881   8.297  11.653  1.00  0.00     0.003 A 
HETATM   11  C10 UNK     1      10.555   8.059   8.984  1.00  0.00     0.054 C 
ENDROOT
BRANCH   5  12
HETATM   12  N1  UNK     1      11.840   6.118   7.169  1.00  0.00    -0.110 N 
HETATM   13  O3  UNK     1      11.068   5.197   7.458  1.00  0.00    -0.532 OA
HETATM   14  O4  UNK     1      12.067   6.550   6.036  1.00  0.00    -0.532 OA
ENDBRANCH   5  12
BRANCH   4  15
HETATM   15  O2  UNK     1      14.558   5.514   7.653  1.00  0.00    -0.357 OA
HETATM   16  H7  UNK     1      14.218   5.515   6.743  1.00  0.00     0.217 HD
ENDBRANCH   4  15
TORSDOF 2
ENDMDL
MODEL 8
REMARK VINA RESULT:      -6.4      8.434      9.910
REMARK  2 active torsions:
REMARK  status: ('A' for Active; 'I' for Inactive)
REMARK    1  A    between atoms: C3_8  and  O2_2 
REMARK    2  A    between atoms: C4_9  and  N1_5 
ROOT
HETATM    1  O1  UNK     1      21.216  -5.631  37.268  1.00  0.00    -0.308 OA
HETATM    2  C1  UNK     1      20.567  -7.688  38.399  1.00  0.00     0.034 A 
HETATM    3  C2  UNK     1      21.469  -6.642  38.166  1.00  0.00     0.089 A 
HETATM    4  C3  UNK     1      19.300  -7.707  37.654  1.00  0.00     0.114 A 
HETATM    5  C4  UNK     1      19.081  -6.707  36.782  1.00  0.00     0.169 A 
HETATM    6  C5  UNK     1      20.020  -5.622  36.542  1.00  0.00     0.102 A 
HETATM    7  C6  UNK     1      20.916  -8.673  39.335  1.00  0.00     0.017 A 
HETATM    8  C7  UNK     1      22.688  -6.576  38.846  1.00  0.00     0.038 A 
HETATM    9  C8  UNK     1      22.133  -8.609  40.016  1.00  0.00     0.001 A 
HETATM   10  C9  UNK     1      23.019  -7.562  39.772  1.00  0.00     0.003 A 
HETATM   11  C10 UNK     1      19.840  -4.609  35.683  1.00  0.00     0.054 C 
ENDROOT
BRANCH   5  12
HETATM   12  N1  UNK     1      17.843  -6.748  36.066  1.00  0.00    -0.110 N 
HETATM   13  O3  UNK     1      16.874  -6.195  36.596  1.00  0.00    -0.532 OA
HETATM   14  O4  UNK     1      17.846  -7.331  34.978  1.00  0.00    -0.532 OA
ENDBRANCH   5  12
BRANCH   4  15
HETATM   15  O2  UNK     1      18.469  -8.765  37.944  1.00  0.00    -0.357 OA
HETATM   16  H7  UNK     1      18.230  -8.735  38.885  1.00  0.00     0.217 HD
ENDBRANCH   4  15
TORSDOF 2
ENDMDL
MODEL 9
REMARK VINA RESULT:      -6.4      2.485      4.419
REMARK  2 active torsions:
REMARK  status: ('A' for Active; 'I' for Inactive)
REMARK    1  A    between atoms: C3_8  and  O2_2 
REMARK    2  A    between atoms: C4_9  and  N1_5 
ROOT
HETATM    1  O1  UNK     1      18.483   1.852  31.645  1.00  0.00    -0.308 OA
HETATM    2  C1  UNK     1      19.009  -0.422  32.337  1.00  0.00     0.034 A 
HETATM    3  C2  UNK     1      18.551   0.873  32.608  1.00  0.00     0.089 A 
HETATM    4  C3  UNK     1      19.435  -0.750  30.968  1.00  0.00     0.114 A 
HETATM    5  C4  UNK     1      19.358   0.229  30.048  1.00  0.00     0.169 A 
HETATM    6  C5  UNK     1      18.883   1.573  30.333  1.00  0.00     0.102 A 
HETATM    7  C6  UNK     1      19.043  -1.352  33.387  1.00  0.00     0.017 A 
HETATM    8  C7  UNK     1      18.136   1.236  33.892  1.00  0.00     0.038 A 
HETATM    9  C8  UNK     1      18.628  -0.991  34.671  1.00  0.00     0.001 A 
HETATM   10  C9  UNK     1      18.175   0.302  34.924  1.00  0.00     0.003 A 
HETATM   11  C10 UNK     1      18.792   2.575  29.446  1.00  0.00     0.054 C 
ENDROOT
BRANCH   5  12
HETATM   12  N1  UNK     1      19.780  -0.111  28.724  1.00  0.00    -0.110 N 
HETATM   13  O3  UNK     1      20.954  -0.471  28.588  1.00  0.00    -0.532 OA
HETATM   14  O4  UNK     1      18.937  -0.017  27.827  1.00  0.00    -0.532 OA
ENDBRANCH   5  12
BRANCH   4  15
HETATM   15  O2  UNK     1      19.867  -2.043  30.785  1.00  0.00    -0.357 OA
HETATM   16  H7  UNK     1      19.201  -2.533  30.277  1.00  0.00     0.217 HD
ENDBRANCH   4  15
TORSDOF 2
ENDMDL
MODEL 10
REMARK VINA RESULT:      -6.3      6.258      7.613
REMARK  2 active torsions:
REMARK  status: ('A' for Active; 'I' for Inactive)
REMARK    1  A    between atoms: C3_8  and  O2_2 
REMARK    2  A    between atoms: C4_9  and  N1_5 
ROOT
HETATM    1  O1  UNK     1      18.540   6.914  33.907  1.00  0.00    -0.308 OA
HETATM    2  C1  UNK     1      18.156   6.993  31.504  1.00  0.00     0.034 A 
HETATM    3  C2  UNK     1      18.905   6.598  32.619  1.00  0.00     0.089 A 
HETATM    4  C3  UNK     1      16.931   7.778  31.717  1.00  0.00     0.114 A 
HETATM    5  C4  UNK     1      16.600   8.073  32.988  1.00  0.00     0.169 A 
HETATM    6  C5  UNK     1      17.381   7.662  34.143  1.00  0.00     0.102 A 
HETATM    7  C6  UNK     1      18.610   6.623  30.230  1.00  0.00     0.017 A 
HETATM    8  C7  UNK     1      20.078   5.853  32.473  1.00  0.00     0.038 A 
HETATM    9  C8  UNK     1      19.782   5.877  30.081  1.00  0.00     0.001 A 
HETATM   10  C9  UNK     1      20.515   5.492  31.201  1.00  0.00     0.003 A 
HETATM   11  C10 UNK     1      17.087   7.935  35.423  1.00  0.00     0.054 C 
ENDROOT
BRANCH   5  12
HETATM   12  N1  UNK     1      15.406   8.839  33.171  1.00  0.00    -0.110 N 
HETATM   13  O3  UNK     1      14.408   8.230  33.567  1.00  0.00    -0.532 OA
HETATM   14  O4  UNK     1      15.473  10.046  32.920  1.00  0.00    -0.532 OA
ENDBRANCH   5  12
BRANCH   4  15
HETATM   15  O2  UNK     1      16.252   8.122  30.571  1.00  0.00    -0.357 OA
HETATM   16  H7  UNK     1      16.424   9.055  30.366  1.00  0.00     0.217 HD
ENDBRANCH   4  15
TORSDOF 2
ENDMDL
