MODEL 1
REMARK VINA RESULT:      -8.1      0.000      0.000
REMARK  4 active torsions:
REMARK  status: ('A' for Active; 'I' for Inactive)
REMARK    1  A    between atoms: C13_20  and  O3_4 
REMARK    2  A    between atoms: C19_26  and  O3_4 
REMARK    3  A    between atoms: C1_8  and  C10_17 
REMARK    4  A    between atoms: C13_20  and  C6_13 
ROOT
HETATM    1  O1  UNK     1      32.574  -8.713  34.940  1.00  0.00    -0.293 OA
HETATM    2  N1  UNK     1      30.558  -6.239  38.441  1.00  0.00    -0.362 N 
HETATM    3  C1  UNK     1      30.115  -8.025  36.281  1.00  0.00     0.104 C 
HETATM    4  C2  UNK     1      31.480  -7.435  36.615  1.00  0.00     0.024 C 
HETATM    5  C3  UNK     1      31.635  -6.570  37.640  1.00  0.00     0.020 C 
HETATM    6  C4  UNK     1      32.949  -5.919  37.983  1.00  0.00     0.058 C 
HETATM    7  C5  UNK     1      33.919  -5.930  36.810  1.00  0.00     0.014 C 
HETATM    8  C6  UNK     1      29.053  -7.690  37.331  1.00  0.00     0.052 C 
HETATM    9  C7  UNK     1      34.035  -7.323  36.216  1.00  0.00     0.084 C 
HETATM   10  C8  UNK     1      32.678  -7.873  35.833  1.00  0.00     0.158 C 
HETATM   11  C9  UNK     1      29.301  -6.813  38.331  1.00  0.00     0.018 C 
HETATM   12  C12 UNK     1      28.313  -6.379  39.380  1.00  0.00     0.069 C 
HETATM   13  H8  UNK     1      30.716  -5.589  39.202  1.00  0.00     0.165 HD
ENDROOT
BRANCH   3  14
HETATM   14  C10 UNK     1      29.666  -7.559  34.921  1.00  0.00     0.029 A 
HETATM   15  C11 UNK     1      29.323  -8.580  33.900  1.00  0.00     0.194 A 
HETATM   16  O4  UNK     1      29.392  -9.781  34.130  1.00  0.00    -0.287 OA
HETATM   17  C15 UNK     1      28.891  -8.071  32.585  1.00  0.00     0.050 A 
HETATM   18  C16 UNK     1      28.830  -6.692  32.379  1.00  0.00     0.089 A 
HETATM   19  C17 UNK     1      28.546  -8.952  31.557  1.00  0.00     0.042 A 
HETATM   20  O2  UNK     1      29.156  -5.782  33.353  1.00  0.00    -0.321 OA
HETATM   21  C18 UNK     1      28.423  -6.188  31.144  1.00  0.00     0.040 A 
HETATM   22  C14 UNK     1      29.556  -6.271  34.571  1.00  0.00     0.154 A 
HETATM   23  C21 UNK     1      28.078  -7.065  30.116  1.00  0.00     0.026 A 
HETATM   24  C20 UNK     1      28.140  -8.445  30.323  1.00  0.00     0.035 A 
HETATM   25 Cl1  UNK     1      27.712  -9.522  29.050  1.00  0.00    -0.084 Cl
ENDBRANCH   3  14
BRANCH   8  26
HETATM   26  C13 UNK     1      27.773  -8.410  37.223  1.00  0.00     0.292 C 
HETATM   27  O5  UNK     1      26.763  -7.908  36.766  1.00  0.00    -0.259 OA
BRANCH  26  28
HETATM   28  O3  UNK     1      27.945  -9.663  37.704  1.00  0.00    -0.318 OA
BRANCH  28  29
HETATM   29  C19 UNK     1      27.051 -10.037  38.758  1.00  0.00     0.174 C 
HETATM   30  C22 UNK     1      27.803 -10.021  40.072  1.00  0.00     0.034 C 
ENDBRANCH  28  29
ENDBRANCH  26  28
ENDBRANCH   8  26
TORSDOF 4
ENDMDL
MODEL 2
REMARK VINA RESULT:      -7.9      1.993      4.420
REMARK  4 active torsions:
REMARK  status: ('A' for Active; 'I' for Inactive)
REMARK    1  A    between atoms: C13_20  and  O3_4 
REMARK    2  A    between atoms: C19_26  and  O3_4 
REMARK    3  A    between atoms: C1_8  and  C10_17 
REMARK    4  A    between atoms: C13_20  and  C6_13 
ROOT
HETATM    1  O1  UNK     1      30.481  -3.761  37.309  1.00  0.00    -0.293 OA
HETATM    2  N1  UNK     1      29.852  -8.359  38.258  1.00  0.00    -0.362 N 
HETATM    3  C1  UNK     1      31.295  -6.464  36.716  1.00  0.00     0.104 C 
HETATM    4  C2  UNK     1      30.162  -6.086  37.665  1.00  0.00     0.024 C 
HETATM    5  C3  UNK     1      29.490  -7.029  38.359  1.00  0.00     0.020 C 
HETATM    6  C4  UNK     1      28.333  -6.718  39.271  1.00  0.00     0.058 C 
HETATM    7  C5  UNK     1      27.696  -5.372  38.953  1.00  0.00     0.014 C 
HETATM    8  C6  UNK     1      31.681  -7.941  36.815  1.00  0.00     0.052 C 
HETATM    9  C7  UNK     1      28.749  -4.282  38.867  1.00  0.00     0.084 C 
HETATM   10  C8  UNK     1      29.836  -4.641  37.877  1.00  0.00     0.158 C 
HETATM   11  C9  UNK     1      30.949  -8.815  37.543  1.00  0.00     0.018 C 
HETATM   12  C12 UNK     1      31.214 -10.292  37.663  1.00  0.00     0.069 C 
HETATM   13  H8  UNK     1      29.325  -9.036  38.798  1.00  0.00     0.165 HD
ENDROOT
BRANCH   3  14
HETATM   14  C10 UNK     1      30.922  -6.117  35.299  1.00  0.00     0.029 A 
HETATM   15  C11 UNK     1      29.653  -6.654  34.748  1.00  0.00     0.194 A 
HETATM   16  O4  UNK     1      28.905  -7.363  35.409  1.00  0.00    -0.287 OA
HETATM   17  C15 UNK     1      29.337  -6.286  33.356  1.00  0.00     0.050 A 
HETATM   18  C16 UNK     1      30.227  -5.474  32.650  1.00  0.00     0.089 A 
HETATM   19  C17 UNK     1      28.165  -6.740  32.746  1.00  0.00     0.042 A 
HETATM   20  O2  UNK     1      31.391  -4.999  33.199  1.00  0.00    -0.321 OA
HETATM   21  C18 UNK     1      29.948  -5.113  31.332  1.00  0.00     0.040 A 
HETATM   22  C14 UNK     1      31.672  -5.351  34.497  1.00  0.00     0.154 A 
HETATM   23  C21 UNK     1      28.779  -5.565  30.721  1.00  0.00     0.026 A 
HETATM   24  C20 UNK     1      27.889  -6.377  31.427  1.00  0.00     0.035 A 
HETATM   25 Cl1  UNK     1      26.447  -6.932  30.668  1.00  0.00    -0.084 Cl
ENDBRANCH   3  14
BRANCH   8  26
HETATM   26  C13 UNK     1      32.914  -8.345  36.119  1.00  0.00     0.292 C 
HETATM   27  O5  UNK     1      32.924  -9.085  35.154  1.00  0.00    -0.259 OA
BRANCH  26  28
HETATM   28  O3  UNK     1      33.966  -7.756  36.737  1.00  0.00    -0.318 OA
BRANCH  28  29
HETATM   29  C19 UNK     1      34.844  -7.025  35.875  1.00  0.00     0.174 C 
HETATM   30  C22 UNK     1      35.050  -5.637  36.444  1.00  0.00     0.034 C 
ENDBRANCH  28  29
ENDBRANCH  26  28
ENDBRANCH   8  26
TORSDOF 4
ENDMDL
MODEL 3
REMARK VINA RESULT:      -7.8      3.380      6.775
REMARK  4 active torsions:
REMARK  status: ('A' for Active; 'I' for Inactive)
REMARK    1  A    between atoms: C13_20  and  O3_4 
REMARK    2  A    between atoms: C19_26  and  O3_4 
REMARK    3  A    between atoms: C1_8  and  C10_17 
REMARK    4  A    between atoms: C13_20  and  C6_13 
ROOT
HETATM    1  O1  UNK     1      32.330  -9.095  34.561  1.00  0.00    -0.293 OA
HETATM    2  N1  UNK     1      28.914 -10.048  31.421  1.00  0.00    -0.362 N 
HETATM    3  C1  UNK     1      29.998  -8.106  33.183  1.00  0.00     0.104 C 
HETATM    4  C2  UNK     1      30.538  -9.527  33.066  1.00  0.00     0.024 C 
HETATM    5  C3  UNK     1      29.972 -10.422  32.229  1.00  0.00     0.020 C 
HETATM    6  C4  UNK     1      30.432 -11.851  32.110  1.00  0.00     0.058 C 
HETATM    7  C5  UNK     1      31.217 -12.305  33.333  1.00  0.00     0.014 C 
HETATM    8  C6  UNK     1      28.931  -7.790  32.133  1.00  0.00     0.052 C 
HETATM    9  C7  UNK     1      32.312 -11.310  33.672  1.00  0.00     0.084 C 
HETATM   10  C8  UNK     1      31.755  -9.914  33.846  1.00  0.00     0.158 C 
HETATM   11  C9  UNK     1      28.424  -8.754  31.330  1.00  0.00     0.018 C 
HETATM   12  C12 UNK     1      27.340  -8.558  30.304  1.00  0.00     0.069 C 
HETATM   13  H8  UNK     1      28.519 -10.748  30.804  1.00  0.00     0.165 HD
ENDROOT
BRANCH   3  14
HETATM   14  C10 UNK     1      29.452  -7.869  34.566  1.00  0.00     0.029 A 
HETATM   15  C11 UNK     1      29.891  -6.659  35.305  1.00  0.00     0.194 A 
HETATM   16  O4  UNK     1      30.678  -5.853  34.824  1.00  0.00    -0.287 OA
HETATM   17  C15 UNK     1      29.328  -6.476  36.655  1.00  0.00     0.050 A 
HETATM   18  C16 UNK     1      28.436  -7.427  37.152  1.00  0.00     0.089 A 
HETATM   19  C17 UNK     1      29.679  -5.368  37.431  1.00  0.00     0.042 A 
HETATM   20  O2  UNK     1      28.055  -8.533  36.434  1.00  0.00    -0.321 OA
HETATM   21  C18 UNK     1      27.889  -7.274  38.427  1.00  0.00     0.040 A 
HETATM   22  C14 UNK     1      28.589  -8.689  35.179  1.00  0.00     0.154 A 
HETATM   23  C21 UNK     1      28.239  -6.169  39.203  1.00  0.00     0.026 A 
HETATM   24  C20 UNK     1      29.132  -5.218  38.705  1.00  0.00     0.035 A 
HETATM   25 Cl1  UNK     1      29.558  -3.856  39.667  1.00  0.00    -0.084 Cl
ENDBRANCH   3  14
BRANCH   8  26
HETATM   26  C13 UNK     1      28.526  -6.380  32.012  1.00  0.00     0.292 C 
HETATM   27  O5  UNK     1      27.575  -5.906  32.605  1.00  0.00    -0.259 OA
BRANCH  26  28
HETATM   28  O3  UNK     1      29.378  -5.762  31.160  1.00  0.00    -0.318 OA
BRANCH  28  29
HETATM   29  C19 UNK     1      29.909  -4.518  31.630  1.00  0.00     0.174 C 
HETATM   30  C22 UNK     1      30.030  -3.562  30.462  1.00  0.00     0.034 C 
ENDBRANCH  28  29
ENDBRANCH  26  28
ENDBRANCH   8  26
TORSDOF 4
ENDMDL
MODEL 4
REMARK VINA RESULT:      -7.4      2.876      6.181
REMARK  4 active torsions:
REMARK  status: ('A' for Active; 'I' for Inactive)
REMARK    1  A    between atoms: C13_20  and  O3_4 
REMARK    2  A    between atoms: C19_26  and  O3_4 
REMARK    3  A    between atoms: C1_8  and  C10_17 
REMARK    4  A    between atoms: C13_20  and  C6_13 
ROOT
HETATM    1  O1  UNK     1      31.375  -9.352  33.952  1.00  0.00    -0.293 OA
HETATM    2  N1  UNK     1      31.309  -4.651  34.533  1.00  0.00    -0.362 N 
HETATM    3  C1  UNK     1      31.895  -7.151  35.742  1.00  0.00     0.104 C 
HETATM    4  C2  UNK     1      31.287  -7.013  34.350  1.00  0.00     0.024 C 
HETATM    5  C3  UNK     1      31.004  -5.801  33.829  1.00  0.00     0.020 C 
HETATM    6  C4  UNK     1      30.359  -5.609  32.482  1.00  0.00     0.058 C 
HETATM    7  C5  UNK     1      29.623  -6.857  32.014  1.00  0.00     0.014 C 
HETATM    8  C6  UNK     1      32.312  -5.806  36.340  1.00  0.00     0.052 C 
HETATM    9  C7  UNK     1      30.512  -8.082  32.124  1.00  0.00     0.084 C 
HETATM   10  C8  UNK     1      31.060  -8.242  33.526  1.00  0.00     0.158 C 
HETATM   11  C9  UNK     1      31.989  -4.636  35.742  1.00  0.00     0.018 C 
HETATM   12  C12 UNK     1      32.307  -3.264  36.272  1.00  0.00     0.069 C 
HETATM   13  H8  UNK     1      31.084  -3.760  34.106  1.00  0.00     0.165 HD
ENDROOT
BRANCH   3  14
HETATM   14  C10 UNK     1      30.933  -7.853  36.662  1.00  0.00     0.029 A 
HETATM   15  C11 UNK     1      29.547  -7.332  36.771  1.00  0.00     0.194 A 
HETATM   16  O4  UNK     1      29.167  -6.356  36.138  1.00  0.00    -0.287 OA
HETATM   17  C15 UNK     1      28.647  -8.056  37.688  1.00  0.00     0.050 A 
HETATM   18  C16 UNK     1      29.134  -9.162  38.384  1.00  0.00     0.089 A 
HETATM   19  C17 UNK     1      27.323  -7.644  37.860  1.00  0.00     0.042 A 
HETATM   20  O2  UNK     1      30.424  -9.611  38.254  1.00  0.00    -0.321 OA
HETATM   21  C18 UNK     1      28.300  -9.863  39.256  1.00  0.00     0.040 A 
HETATM   22  C14 UNK     1      31.251  -8.927  37.397  1.00  0.00     0.154 A 
HETATM   23  C21 UNK     1      26.978  -9.453  39.430  1.00  0.00     0.026 A 
HETATM   24  C20 UNK     1      26.491  -8.346  38.732  1.00  0.00     0.035 A 
HETATM   25 Cl1  UNK     1      24.858  -7.846  38.951  1.00  0.00    -0.084 Cl
ENDBRANCH   3  14
BRANCH   8  26
HETATM   26  C13 UNK     1      33.122  -5.857  37.568  1.00  0.00     0.292 C 
HETATM   27  O5  UNK     1      32.749  -5.401  38.633  1.00  0.00    -0.259 OA
BRANCH  26  28
HETATM   28  O3  UNK     1      34.291  -6.479  37.284  1.00  0.00    -0.318 OA
BRANCH  28  29
HETATM   29  C19 UNK     1      35.238  -5.687  36.558  1.00  0.00     0.174 C 
HETATM   30  C22 UNK     1      35.766  -6.496  35.393  1.00  0.00     0.034 C 
ENDBRANCH  28  29
ENDBRANCH  26  28
ENDBRANCH   8  26
TORSDOF 4
ENDMDL
MODEL 5
REMARK VINA RESULT:      -7.4      3.885      7.198
REMARK  4 active torsions:
REMARK  status: ('A' for Active; 'I' for Inactive)
REMARK    1  A    between atoms: C13_20  and  O3_4 
REMARK    2  A    between atoms: C19_26  and  O3_4 
REMARK    3  A    between atoms: C1_8  and  C10_17 
REMARK    4  A    between atoms: C13_20  and  C6_13 
ROOT
HETATM    1  O1  UNK     1      32.645 -10.852  33.178  1.00  0.00    -0.293 OA
HETATM    2  N1  UNK     1      29.589 -11.651  29.648  1.00  0.00    -0.362 N 
HETATM    3  C1  UNK     1      30.788  -9.685  31.305  1.00  0.00     0.104 C 
HETATM    4  C2  UNK     1      31.034 -11.181  31.466  1.00  0.00     0.024 C 
HETATM    5  C3  UNK     1      30.420 -12.079  30.666  1.00  0.00     0.020 C 
HETATM    6  C4  UNK     1      30.588 -13.568  30.813  1.00  0.00     0.058 C 
HETATM    7  C5  UNK     1      31.080 -13.957  32.200  1.00  0.00     0.014 C 
HETATM    8  C6  UNK     1      29.970  -9.351  30.056  1.00  0.00     0.052 C 
HETATM    9  C7  UNK     1      32.297 -13.139  32.591  1.00  0.00     0.084 C 
HETATM   10  C8  UNK     1      32.021 -11.655  32.486  1.00  0.00     0.158 C 
HETATM   11  C9  UNK     1      29.395 -10.321  29.308  1.00  0.00     0.018 C 
HETATM   12  C12 UNK     1      28.532 -10.096  28.096  1.00  0.00     0.069 C 
HETATM   13  H8  UNK     1      29.150 -12.356  29.067  1.00  0.00     0.165 HD
ENDROOT
BRANCH   3  14
HETATM   14  C10 UNK     1      30.111  -9.134  32.532  1.00  0.00     0.029 A 
HETATM   15  C11 UNK     1      30.731  -7.977  33.224  1.00  0.00     0.194 A 
HETATM   16  O4  UNK     1      31.768  -7.460  32.828  1.00  0.00    -0.287 OA
HETATM   17  C15 UNK     1      30.029  -7.478  34.421  1.00  0.00     0.050 A 
HETATM   18  C16 UNK     1      28.850  -8.106  34.827  1.00  0.00     0.089 A 
HETATM   19  C17 UNK     1      30.532  -6.392  35.143  1.00  0.00     0.042 A 
HETATM   20  O2  UNK     1      28.311  -9.174  34.156  1.00  0.00    -0.321 OA
HETATM   21  C18 UNK     1      28.168  -7.650  35.956  1.00  0.00     0.040 A 
HETATM   22  C14 UNK     1      28.976  -9.627  33.044  1.00  0.00     0.154 A 
HETATM   23  C21 UNK     1      28.669  -6.566  36.678  1.00  0.00     0.026 A 
HETATM   24  C20 UNK     1      29.848  -5.939  36.271  1.00  0.00     0.035 A 
HETATM   25 Cl1  UNK     1      30.460  -4.602  37.167  1.00  0.00    -0.084 Cl
ENDBRANCH   3  14
BRANCH   8  26
HETATM   26  C13 UNK     1      29.886  -7.928  29.687  1.00  0.00     0.292 C 
HETATM   27  O5  UNK     1      30.824  -7.301  29.230  1.00  0.00    -0.259 OA
BRANCH  26  28
HETATM   28  O3  UNK     1      28.630  -7.493  29.944  1.00  0.00    -0.318 OA
BRANCH  28  29
HETATM   29  C19 UNK     1      28.551  -6.280  30.701  1.00  0.00     0.174 C 
HETATM   30  C22 UNK     1      27.512  -6.446  31.789  1.00  0.00     0.034 C 
ENDBRANCH  28  29
ENDBRANCH  26  28
ENDBRANCH   8  26
TORSDOF 4
ENDMDL
MODEL 6
REMARK VINA RESULT:      -7.4      2.812      5.813
REMARK  4 active torsions:
REMARK  status: ('A' for Active; 'I' for Inactive)
REMARK    1  A    between atoms: C13_20  and  O3_4 
REMARK    2  A    between atoms: C19_26  and  O3_4 
REMARK    3  A    between atoms: C1_8  and  C10_17 
REMARK    4  A    between atoms: C13_20  and  C6_13 
ROOT
HETATM    1  O1  UNK     1      31.193  -5.417  36.199  1.00  0.00    -0.293 OA
HETATM    2  N1  UNK     1      34.020  -8.864  34.597  1.00  0.00    -0.362 N 
HETATM    3  C1  UNK     1      31.336  -8.022  34.970  1.00  0.00     0.104 C 
HETATM    4  C2  UNK     1      32.541  -7.224  35.457  1.00  0.00     0.024 C 
HETATM    5  C3  UNK     1      33.798  -7.680  35.276  1.00  0.00     0.020 C 
HETATM    6  C4  UNK     1      35.021  -6.958  35.779  1.00  0.00     0.058 C 
HETATM    7  C5  UNK     1      34.691  -5.983  36.901  1.00  0.00     0.014 C 
HETATM    8  C6  UNK     1      31.732  -9.227  34.114  1.00  0.00     0.052 C 
HETATM    9  C7  UNK     1      33.535  -5.080  36.510  1.00  0.00     0.084 C 
HETATM   10  C8  UNK     1      32.325  -5.884  36.087  1.00  0.00     0.158 C 
HETATM   11  C9  UNK     1      33.023  -9.608  33.985  1.00  0.00     0.018 C 
HETATM   12  C12 UNK     1      33.511 -10.803  33.211  1.00  0.00     0.069 C 
HETATM   13  H8  UNK     1      34.979  -9.170  34.480  1.00  0.00     0.165 HD
ENDROOT
BRANCH   3  14
HETATM   14  C10 UNK     1      30.500  -8.467  36.140  1.00  0.00     0.029 A 
HETATM   15  C11 UNK     1      29.093  -8.002  36.224  1.00  0.00     0.194 A 
HETATM   16  O4  UNK     1      28.596  -7.274  35.374  1.00  0.00    -0.287 OA
HETATM   17  C15 UNK     1      28.319  -8.466  37.390  1.00  0.00     0.050 A 
HETATM   18  C16 UNK     1      28.937  -9.295  38.327  1.00  0.00     0.089 A 
HETATM   19  C17 UNK     1      26.986  -8.083  37.560  1.00  0.00     0.042 A 
HETATM   20  O2  UNK     1      30.242  -9.702  38.211  1.00  0.00    -0.321 OA
HETATM   21  C18 UNK     1      28.224  -9.747  39.438  1.00  0.00     0.040 A 
HETATM   22  C14 UNK     1      30.949  -9.262  37.119  1.00  0.00     0.154 A 
HETATM   23  C21 UNK     1      26.893  -9.366  39.610  1.00  0.00     0.026 A 
HETATM   24  C20 UNK     1      26.275  -8.536  38.671  1.00  0.00     0.035 A 
HETATM   25 Cl1  UNK     1      24.632  -8.071  38.888  1.00  0.00    -0.084 Cl
ENDBRANCH   3  14
BRANCH   8  26
HETATM   26  C13 UNK     1      30.640  -9.914  33.404  1.00  0.00     0.292 C 
HETATM   27  O5  UNK     1      30.219 -11.009  33.727  1.00  0.00    -0.259 OA
BRANCH  26  28
HETATM   28  O3  UNK     1      30.229  -9.124  32.384  1.00  0.00    -0.318 OA
BRANCH  28  29
HETATM   29  C19 UNK     1      28.839  -9.227  32.059  1.00  0.00     0.174 C 
HETATM   30  C22 UNK     1      28.255  -7.834  31.942  1.00  0.00     0.034 C 
ENDBRANCH  28  29
ENDBRANCH  26  28
ENDBRANCH   8  26
TORSDOF 4
ENDMDL
MODEL 7
REMARK VINA RESULT:      -7.4      2.393      5.291
REMARK  4 active torsions:
REMARK  status: ('A' for Active; 'I' for Inactive)
REMARK    1  A    between atoms: C13_20  and  O3_4 
REMARK    2  A    between atoms: C19_26  and  O3_4 
REMARK    3  A    between atoms: C1_8  and  C10_17 
REMARK    4  A    between atoms: C13_20  and  C6_13 
ROOT
HETATM    1  O1  UNK     1      27.104  -8.693  36.068  1.00  0.00    -0.293 OA
HETATM    2  N1  UNK     1      30.405  -5.562  37.389  1.00  0.00    -0.362 N 
HETATM    3  C1  UNK     1      29.491  -7.263  35.309  1.00  0.00     0.104 C 
HETATM    4  C2  UNK     1      28.843  -7.201  36.688  1.00  0.00     0.024 C 
HETATM    5  C3  UNK     1      29.330  -6.391  37.652  1.00  0.00     0.020 C 
HETATM    6  C4  UNK     1      28.760  -6.327  39.045  1.00  0.00     0.058 C 
HETATM    7  C5  UNK     1      27.955  -7.571  39.394  1.00  0.00     0.014 C 
HETATM    8  C6  UNK     1      30.568  -6.194  35.114  1.00  0.00     0.052 C 
HETATM    9  C7  UNK     1      26.943  -7.883  38.307  1.00  0.00     0.084 C 
HETATM   10  C8  UNK     1      27.608  -8.003  36.953  1.00  0.00     0.158 C 
HETATM   11  C9  UNK     1      30.992  -5.422  36.141  1.00  0.00     0.018 C 
HETATM   12  C12 UNK     1      32.077  -4.381  36.065  1.00  0.00     0.069 C 
HETATM   13  H8  UNK     1      30.739  -4.968  38.138  1.00  0.00     0.165 HD
ENDROOT
BRANCH   3  14
HETATM   14  C10 UNK     1      30.068  -8.632  35.068  1.00  0.00     0.029 A 
HETATM   15  C11 UNK     1      29.735  -9.328  33.799  1.00  0.00     0.194 A 
HETATM   16  O4  UNK     1      29.012  -8.823  32.950  1.00  0.00    -0.287 OA
HETATM   17  C15 UNK     1      30.325 -10.667  33.614  1.00  0.00     0.050 A 
HETATM   18  C16 UNK     1      31.142 -11.193  34.615  1.00  0.00     0.089 A 
HETATM   19  C17 UNK     1      30.072 -11.403  32.453  1.00  0.00     0.042 A 
HETATM   20  O2  UNK     1      31.424 -10.515  35.774  1.00  0.00    -0.321 OA
HETATM   21  C18 UNK     1      31.711 -12.457  34.461  1.00  0.00     0.040 A 
HETATM   22  C14 UNK     1      30.868  -9.269  35.932  1.00  0.00     0.154 A 
HETATM   23  C21 UNK     1      31.460 -13.194  33.303  1.00  0.00     0.026 A 
HETATM   24  C20 UNK     1      30.642 -12.667  32.301  1.00  0.00     0.035 A 
HETATM   25 Cl1  UNK     1      30.337 -13.581  30.875  1.00  0.00    -0.084 Cl
ENDBRANCH   3  14
BRANCH   8  26
HETATM   26  C13 UNK     1      31.079  -6.020  33.744  1.00  0.00     0.292 C 
HETATM   27  O5  UNK     1      32.198  -6.353  33.402  1.00  0.00    -0.259 OA
BRANCH  26  28
HETATM   28  O3  UNK     1      30.106  -5.452  32.994  1.00  0.00    -0.318 OA
BRANCH  28  29
HETATM   29  C19 UNK     1      30.151  -5.770  31.598  1.00  0.00     0.174 C 
HETATM   30  C22 UNK     1      28.739  -5.801  31.053  1.00  0.00     0.034 C 
ENDBRANCH  28  29
ENDBRANCH  26  28
ENDBRANCH   8  26
TORSDOF 4
ENDMDL
MODEL 8
REMARK VINA RESULT:      -7.3      1.580      2.160
REMARK  4 active torsions:
REMARK  status: ('A' for Active; 'I' for Inactive)
REMARK    1  A    between atoms: C13_20  and  O3_4 
REMARK    2  A    between atoms: C19_26  and  O3_4 
REMARK    3  A    between atoms: C1_8  and  C10_17 
REMARK    4  A    between atoms: C13_20  and  C6_13 
ROOT
HETATM    1  O1  UNK     1      32.929  -8.959  35.924  1.00  0.00    -0.293 OA
HETATM    2  N1  UNK     1      30.420  -5.822  38.436  1.00  0.00    -0.362 N 
HETATM    3  C1  UNK     1      30.299  -8.025  36.651  1.00  0.00     0.104 C 
HETATM    4  C2  UNK     1      31.604  -7.367  37.083  1.00  0.00     0.024 C 
HETATM    5  C3  UNK     1      31.607  -6.305  37.917  1.00  0.00     0.020 C 
HETATM    6  C4  UNK     1      32.862  -5.586  38.337  1.00  0.00     0.058 C 
HETATM    7  C5  UNK     1      34.016  -5.835  37.376  1.00  0.00     0.014 C 
HETATM    8  C6  UNK     1      29.085  -7.487  37.411  1.00  0.00     0.052 C 
HETATM    9  C7  UNK     1      34.191  -7.320  37.113  1.00  0.00     0.084 C 
HETATM   10  C8  UNK     1      32.904  -7.950  36.626  1.00  0.00     0.158 C 
HETATM   11  C9  UNK     1      29.184  -6.417  38.233  1.00  0.00     0.018 C 
HETATM   12  C12 UNK     1      28.045  -5.781  38.984  1.00  0.00     0.069 C 
HETATM   13  H8  UNK     1      30.465  -5.026  39.060  1.00  0.00     0.165 HD
ENDROOT
BRANCH   3  14
HETATM   14  C10 UNK     1      30.099  -7.859  35.168  1.00  0.00     0.029 A 
HETATM   15  C11 UNK     1      30.213  -6.498  34.585  1.00  0.00     0.194 A 
HETATM   16  O4  UNK     1      30.464  -5.516  35.271  1.00  0.00    -0.287 OA
HETATM   17  C15 UNK     1      30.007  -6.391  33.129  1.00  0.00     0.050 A 
HETATM   18  C16 UNK     1      29.723  -7.545  32.398  1.00  0.00     0.089 A 
HETATM   19  C17 UNK     1      30.093  -5.154  32.485  1.00  0.00     0.042 A 
HETATM   20  O2  UNK     1      29.627  -8.785  32.977  1.00  0.00    -0.321 OA
HETATM   21  C18 UNK     1      29.526  -7.468  31.019  1.00  0.00     0.040 A 
HETATM   22  C14 UNK     1      29.822  -8.869  34.334  1.00  0.00     0.154 A 
HETATM   23  C21 UNK     1      29.612  -6.234  30.374  1.00  0.00     0.026 A 
HETATM   24  C20 UNK     1      29.895  -5.079  31.107  1.00  0.00     0.035 A 
HETATM   25 Cl1  UNK     1      30.000  -3.560  30.305  1.00  0.00    -0.084 Cl
ENDBRANCH   3  14
BRANCH   8  26
HETATM   26  C13 UNK     1      27.822  -8.223  37.237  1.00  0.00     0.292 C 
HETATM   27  O5  UNK     1      26.903  -7.819  36.548  1.00  0.00    -0.259 OA
BRANCH  26  28
HETATM   28  O3  UNK     1      27.893  -9.369  37.955  1.00  0.00    -0.318 OA
BRANCH  28  29
HETATM   29  C19 UNK     1      27.014  -9.434  39.083  1.00  0.00     0.174 C 
HETATM   30  C22 UNK     1      27.742 -10.086  40.239  1.00  0.00     0.034 C 
ENDBRANCH  28  29
ENDBRANCH  26  28
ENDBRANCH   8  26
TORSDOF 4
ENDMDL
MODEL 9
REMARK VINA RESULT:      -7.3      3.480      5.892
REMARK  4 active torsions:
REMARK  status: ('A' for Active; 'I' for Inactive)
REMARK    1  A    between atoms: C13_20  and  O3_4 
REMARK    2  A    between atoms: C19_26  and  O3_4 
REMARK    3  A    between atoms: C1_8  and  C10_17 
REMARK    4  A    between atoms: C13_20  and  C6_13 
ROOT
HETATM    1  O1  UNK     1      32.425 -10.522  34.721  1.00  0.00    -0.293 OA
HETATM    2  N1  UNK     1      33.972  -6.252  33.375  1.00  0.00    -0.362 N 
HETATM    3  C1  UNK     1      32.956  -7.803  35.523  1.00  0.00     0.104 C 
HETATM    4  C2  UNK     1      33.103  -8.333  34.101  1.00  0.00     0.024 C 
HETATM    5  C3  UNK     1      33.570  -7.547  33.108  1.00  0.00     0.020 C 
HETATM    6  C4  UNK     1      33.688  -8.003  31.677  1.00  0.00     0.058 C 
HETATM    7  C5  UNK     1      32.795  -9.199  31.380  1.00  0.00     0.014 C 
HETATM    8  C6  UNK     1      33.573  -6.414  35.702  1.00  0.00     0.052 C 
HETATM    9  C7  UNK     1      32.992 -10.293  32.414  1.00  0.00     0.084 C 
HETATM   10  C8  UNK     1      32.784  -9.768  33.818  1.00  0.00     0.158 C 
HETATM   11  C9  UNK     1      34.022  -5.699  34.646  1.00  0.00     0.018 C 
HETATM   12  C12 UNK     1      34.596  -4.309  34.709  1.00  0.00     0.069 C 
HETATM   13  H8  UNK     1      34.320  -5.695  32.603  1.00  0.00     0.165 HD
ENDROOT
BRANCH   3  14
HETATM   14  C10 UNK     1      31.505  -7.784  35.924  1.00  0.00     0.029 A 
HETATM   15  C11 UNK     1      31.084  -8.585  37.100  1.00  0.00     0.194 A 
HETATM   16  O4  UNK     1      31.877  -9.254  37.749  1.00  0.00    -0.287 OA
HETATM   17  C15 UNK     1      29.652  -8.533  37.448  1.00  0.00     0.050 A 
HETATM   18  C16 UNK     1      28.794  -7.752  36.672  1.00  0.00     0.089 A 
HETATM   19  C17 UNK     1      29.156  -9.252  38.539  1.00  0.00     0.042 A 
HETATM   20  O2  UNK     1      29.226  -7.026  35.591  1.00  0.00    -0.321 OA
HETATM   21  C18 UNK     1      27.435  -7.687  36.983  1.00  0.00     0.040 A 
HETATM   22  C14 UNK     1      30.562  -7.085  35.280  1.00  0.00     0.154 A 
HETATM   23  C21 UNK     1      26.938  -8.404  38.072  1.00  0.00     0.026 A 
HETATM   24  C20 UNK     1      27.797  -9.184  38.848  1.00  0.00     0.035 A 
HETATM   25 Cl1  UNK     1      27.177 -10.066  40.190  1.00  0.00    -0.084 Cl
ENDBRANCH   3  14
BRANCH   8  26
HETATM   26  C13 UNK     1      33.694  -5.924  37.085  1.00  0.00     0.292 C 
HETATM   27  O5  UNK     1      34.553  -6.309  37.857  1.00  0.00    -0.259 OA
BRANCH  26  28
HETATM   28  O3  UNK     1      32.716  -5.013  37.304  1.00  0.00    -0.318 OA
BRANCH  28  29
HETATM   29  C19 UNK     1      31.961  -5.210  38.504  1.00  0.00     0.174 C 
HETATM   30  C22 UNK     1      30.528  -4.786  38.260  1.00  0.00     0.034 C 
ENDBRANCH  28  29
ENDBRANCH  26  28
ENDBRANCH   8  26
TORSDOF 4
ENDMDL
MODEL 10
REMARK VINA RESULT:      -7.3      2.679      3.510
REMARK  4 active torsions:
REMARK  status: ('A' for Active; 'I' for Inactive)
REMARK    1  A    between atoms: C13_20  and  O3_4 
REMARK    2  A    between atoms: C19_26  and  O3_4 
REMARK    3  A    between atoms: C1_8  and  C10_17 
REMARK    4  A    between atoms: C13_20  and  C6_13 
ROOT
HETATM    1  O1  UNK     1      32.797  -7.172  37.346  1.00  0.00    -0.293 OA
HETATM    2  N1  UNK     1      28.689  -4.894  37.965  1.00  0.00    -0.362 N 
HETATM    3  C1  UNK     1      29.960  -7.426  37.802  1.00  0.00     0.104 C 
HETATM    4  C2  UNK     1      30.688  -6.106  37.575  1.00  0.00     0.024 C 
HETATM    5  C3  UNK     1      30.033  -4.928  37.640  1.00  0.00     0.020 C 
HETATM    6  C4  UNK     1      30.691  -3.599  37.377  1.00  0.00     0.058 C 
HETATM    7  C5  UNK     1      31.972  -3.743  36.567  1.00  0.00     0.014 C 
HETATM    8  C6  UNK     1      28.524  -7.233  38.293  1.00  0.00     0.052 C 
HETATM    9  C7  UNK     1      32.882  -4.793  37.177  1.00  0.00     0.084 C 
HETATM   10  C8  UNK     1      32.166  -6.116  37.340  1.00  0.00     0.158 C 
HETATM   11  C9  UNK     1      27.949  -6.009  38.330  1.00  0.00     0.018 C 
HETATM   12  C12 UNK     1      26.532  -5.718  38.747  1.00  0.00     0.069 C 
HETATM   13  H8  UNK     1      28.235  -3.990  38.007  1.00  0.00     0.165 HD
ENDROOT
BRANCH   3  14
HETATM   14  C10 UNK     1      29.972  -8.250  36.541  1.00  0.00     0.029 A 
HETATM   15  C11 UNK     1      30.724  -9.529  36.537  1.00  0.00     0.194 A 
HETATM   16  O4  UNK     1      31.329  -9.932  37.522  1.00  0.00    -0.287 OA
HETATM   17  C15 UNK     1      30.705 -10.295  35.277  1.00  0.00     0.050 A 
HETATM   18  C16 UNK     1      29.998  -9.788  34.186  1.00  0.00     0.089 A 
HETATM   19  C17 UNK     1      31.382 -11.512  35.172  1.00  0.00     0.042 A 
HETATM   20  O2  UNK     1      29.315  -8.599  34.233  1.00  0.00    -0.321 OA
HETATM   21  C18 UNK     1      29.965 -10.496  32.984  1.00  0.00     0.040 A 
HETATM   22  C14 UNK     1      29.342  -7.897  35.413  1.00  0.00     0.154 A 
HETATM   23  C21 UNK     1      30.641 -11.712  32.877  1.00  0.00     0.026 A 
HETATM   24  C20 UNK     1      31.348 -12.218  33.969  1.00  0.00     0.035 A 
HETATM   25 Cl1  UNK     1      32.179 -13.719  33.830  1.00  0.00    -0.084 Cl
ENDBRANCH   3  14
BRANCH   8  26
HETATM   26  C13 UNK     1      27.824  -8.438  38.766  1.00  0.00     0.292 C 
HETATM   27  O5  UNK     1      28.033  -8.948  39.851  1.00  0.00    -0.259 OA
BRANCH  26  28
HETATM   28  O3  UNK     1      26.955  -8.833  37.806  1.00  0.00    -0.318 OA
BRANCH  28  29
HETATM   29  C19 UNK     1      26.864 -10.249  37.615  1.00  0.00     0.174 C 
HETATM   30  C22 UNK     1      25.913 -10.533  36.472  1.00  0.00     0.034 C 
ENDBRANCH  28  29
ENDBRANCH  26  28
ENDBRANCH   8  26
TORSDOF 4
ENDMDL
