MODEL 1
REMARK VINA RESULT:      -8.7      0.000      0.000
REMARK  7 active torsions:
REMARK  status: ('A' for Active; 'I' for Inactive)
REMARK    1  A    between atoms: C14_21  and  O3_3 
REMARK    2  A    between atoms: C20_27  and  O3_3 
REMARK    3  A    between atoms: C24_31  and  O6_6 
REMARK    4  A    between atoms: C25_32  and  O6_6 
REMARK    5  A    between atoms: C12_19  and  C6_13 
REMARK    6  A    between atoms: C10_17  and  C14_21 
REMARK    7  A    between atoms: C20_27  and  C24_31 
ROOT
HETATM    1  O1  UNK     1      29.904  -9.652  33.785  1.00  0.00    -0.293 OA
HETATM    2  N1  UNK     1      31.187  -5.094  33.799  1.00  0.00    -0.362 N 
HETATM    3  C1  UNK     1      30.277  -7.405  30.962  1.00  0.00    -0.036 C 
HETATM    4  C2  UNK     1      30.285  -6.069  31.733  1.00  0.00     0.067 C 
HETATM    5  C3  UNK     1      29.487  -8.447  31.766  1.00  0.00     0.092 C 
HETATM    6  C4  UNK     1      30.642  -6.208  33.191  1.00  0.00     0.021 C 
HETATM    7  C5  UNK     1      30.490  -7.355  33.887  1.00  0.00     0.024 C 
HETATM    8  C6  UNK     1      30.864  -7.438  35.366  1.00  0.00     0.104 C 
HETATM    9  C7  UNK     1      29.973  -8.575  33.194  1.00  0.00     0.159 C 
HETATM   10  C8  UNK     1      31.719  -7.898  30.714  1.00  0.00     0.015 C 
HETATM   11  C9  UNK     1      29.602  -7.197  29.595  1.00  0.00     0.015 C 
HETATM   12  C10 UNK     1      31.632  -6.201  35.841  1.00  0.00     0.052 C 
HETATM   13  C11 UNK     1      31.731  -5.092  35.073  1.00  0.00     0.018 C 
HETATM   14  C13 UNK     1      32.410  -3.810  35.473  1.00  0.00     0.069 C 
HETATM   15  H12 UNK     1      31.285  -4.250  33.244  1.00  0.00     0.165 HD
ENDROOT
BRANCH  12  16
HETATM   16  C14 UNK     1      32.303  -6.302  37.148  1.00  0.00     0.292 C 
HETATM   17  O4  UNK     1      31.852  -5.817  38.170  1.00  0.00    -0.259 OA
BRANCH  16  18
HETATM   18  O3  UNK     1      33.453  -7.000  36.987  1.00  0.00    -0.316 OA
BRANCH  18  19
HETATM   19  C20 UNK     1      34.632  -6.345  37.465  1.00  0.00     0.205 C 
BRANCH  19  20
HETATM   20  C24 UNK     1      35.281  -5.593  36.320  1.00  0.00     0.202 C 
BRANCH  20  21
HETATM   21  O6  UNK     1      36.283  -6.415  35.733  1.00  0.00    -0.349 OA
BRANCH  21  22
HETATM   22  C25 UNK     1      36.016  -6.919  34.488  1.00  0.00     0.068 A 
HETATM   23  C27 UNK     1      34.906  -6.463  33.785  1.00  0.00     0.037 A 
HETATM   24  C29 UNK     1      34.635  -6.976  32.516  1.00  0.00     0.003 A 
HETATM   25  C30 UNK     1      35.474  -7.942  31.961  1.00  0.00     0.000 A 
HETATM   26  C28 UNK     1      36.584  -8.394  32.672  1.00  0.00     0.003 A 
HETATM   27  C26 UNK     1      36.855  -7.882  33.941  1.00  0.00     0.037 A 
ENDBRANCH  21  22
ENDBRANCH  20  21
ENDBRANCH  19  20
ENDBRANCH  18  19
ENDBRANCH  16  18
ENDBRANCH  12  16
BRANCH   8  28
HETATM   28  C12 UNK     1      29.632  -7.642  36.213  1.00  0.00     0.029 A 
HETATM   29  C15 UNK     1      29.649  -8.713  37.242  1.00  0.00     0.194 A 
HETATM   30  O5  UNK     1      30.625  -9.428  37.421  1.00  0.00    -0.287 OA
HETATM   31  C17 UNK     1      28.419  -8.871  38.040  1.00  0.00     0.048 A 
HETATM   32  C18 UNK     1      27.335  -8.027  37.792  1.00  0.00     0.089 A 
HETATM   33  C19 UNK     1      28.335  -9.851  39.033  1.00  0.00     0.018 A 
HETATM   34  O2  UNK     1      27.363  -7.050  36.831  1.00  0.00    -0.321 OA
HETATM   35  C21 UNK     1      26.163  -8.159  38.536  1.00  0.00     0.038 A 
HETATM   36  C16 UNK     1      28.515  -6.914  36.094  1.00  0.00     0.154 A 
HETATM   37  C23 UNK     1      26.076  -9.137  39.528  1.00  0.00     0.003 A 
HETATM   38  C22 UNK     1      27.160  -9.980  39.775  1.00  0.00     0.001 A 
ENDBRANCH   8  28
TORSDOF 7
ENDMDL
MODEL 2
REMARK VINA RESULT:      -8.6      3.320      5.101
REMARK  7 active torsions:
REMARK  status: ('A' for Active; 'I' for Inactive)
REMARK    1  A    between atoms: C14_21  and  O3_3 
REMARK    2  A    between atoms: C20_27  and  O3_3 
REMARK    3  A    between atoms: C24_31  and  O6_6 
REMARK    4  A    between atoms: C25_32  and  O6_6 
REMARK    5  A    between atoms: C12_19  and  C6_13 
REMARK    6  A    between atoms: C10_17  and  C14_21 
REMARK    7  A    between atoms: C20_27  and  C24_31 
ROOT
HETATM    1  O1  UNK     1      31.858 -10.442  35.331  1.00  0.00    -0.293 OA
HETATM    2  N1  UNK     1      29.062 -10.368  31.509  1.00  0.00    -0.362 N 
HETATM    3  C1  UNK     1      31.737 -12.800  32.578  1.00  0.00    -0.036 C 
HETATM    4  C2  UNK     1      30.375 -12.389  31.984  1.00  0.00     0.067 C 
HETATM    5  C3  UNK     1      31.754 -12.472  34.077  1.00  0.00     0.092 C 
HETATM    6  C4  UNK     1      29.933 -11.001  32.375  1.00  0.00     0.021 C 
HETATM    7  C5  UNK     1      30.375 -10.364  33.480  1.00  0.00     0.024 C 
HETATM    8  C6  UNK     1      29.889  -8.959  33.830  1.00  0.00     0.104 C 
HETATM    9  C7  UNK     1      31.379 -11.033  34.364  1.00  0.00     0.159 C 
HETATM   10  C8  UNK     1      32.889 -12.071  31.854  1.00  0.00     0.015 C 
HETATM   11  C9  UNK     1      31.936 -14.314  32.387  1.00  0.00     0.015 C 
HETATM   12  C10 UNK     1      29.095  -8.317  32.689  1.00  0.00     0.052 C 
HETATM   13  C11 UNK     1      28.692  -9.037  31.616  1.00  0.00     0.018 C 
HETATM   14  C13 UNK     1      27.860  -8.515  30.477  1.00  0.00     0.069 C 
HETATM   15  H12 UNK     1      28.752 -10.879  30.689  1.00  0.00     0.165 HD
ENDROOT
BRANCH  12  16
HETATM   16  C14 UNK     1      28.843  -6.870  32.791  1.00  0.00     0.292 C 
HETATM   17  O4  UNK     1      27.737  -6.396  32.976  1.00  0.00    -0.259 OA
BRANCH  16  18
HETATM   18  O3  UNK     1      30.022  -6.219  32.644  1.00  0.00    -0.316 OA
BRANCH  18  19
HETATM   19  C20 UNK     1      29.951  -4.998  31.903  1.00  0.00     0.205 C 
BRANCH  19  20
HETATM   20  C24 UNK     1      29.800  -5.320  30.429  1.00  0.00     0.202 C 
BRANCH  20  21
HETATM   21  O6  UNK     1      31.072  -5.673  29.898  1.00  0.00    -0.349 OA
BRANCH  21  22
HETATM   22  C25 UNK     1      31.291  -7.003  29.654  1.00  0.00     0.068 A 
HETATM   23  C27 UNK     1      32.103  -7.735  30.514  1.00  0.00     0.037 A 
HETATM   24  C29 UNK     1      32.325  -9.089  30.267  1.00  0.00     0.003 A 
HETATM   25  C30 UNK     1      31.736  -9.703  29.161  1.00  0.00     0.000 A 
HETATM   26  C28 UNK     1      30.924  -8.962  28.303  1.00  0.00     0.003 A 
HETATM   27  C26 UNK     1      30.702  -7.607  28.550  1.00  0.00     0.037 A 
ENDBRANCH  21  22
ENDBRANCH  20  21
ENDBRANCH  19  20
ENDBRANCH  18  19
ENDBRANCH  16  18
ENDBRANCH  12  16
BRANCH   8  28
HETATM   28  C12 UNK     1      29.060  -8.984  35.091  1.00  0.00     0.029 A 
HETATM   29  C15 UNK     1      29.423  -8.063  36.197  1.00  0.00     0.194 A 
HETATM   30  O5  UNK     1      30.368  -7.289  36.116  1.00  0.00    -0.287 OA
HETATM   31  C17 UNK     1      28.581  -8.129  37.406  1.00  0.00     0.048 A 
HETATM   32  C18 UNK     1      27.517  -9.031  37.443  1.00  0.00     0.089 A 
HETATM   33  C19 UNK     1      28.842  -7.303  38.502  1.00  0.00     0.018 A 
HETATM   34  O2  UNK     1      27.216  -9.865  36.397  1.00  0.00    -0.321 OA
HETATM   35  C21 UNK     1      26.708  -9.110  38.577  1.00  0.00     0.038 A 
HETATM   36  C16 UNK     1      28.009  -9.793  35.277  1.00  0.00     0.154 A 
HETATM   37  C23 UNK     1      26.966  -8.286  39.672  1.00  0.00     0.003 A 
HETATM   38  C22 UNK     1      28.030  -7.385  39.634  1.00  0.00     0.001 A 
ENDBRANCH   8  28
TORSDOF 7
ENDMDL
MODEL 3
REMARK VINA RESULT:      -8.6      3.283      5.635
REMARK  7 active torsions:
REMARK  status: ('A' for Active; 'I' for Inactive)
REMARK    1  A    between atoms: C14_21  and  O3_3 
REMARK    2  A    between atoms: C20_27  and  O3_3 
REMARK    3  A    between atoms: C24_31  and  O6_6 
REMARK    4  A    between atoms: C25_32  and  O6_6 
REMARK    5  A    between atoms: C12_19  and  C6_13 
REMARK    6  A    between atoms: C10_17  and  C14_21 
REMARK    7  A    between atoms: C20_27  and  C24_31 
ROOT
HETATM    1  O1  UNK     1      32.471  -9.154  35.201  1.00  0.00    -0.293 OA
HETATM    2  N1  UNK     1      28.953  -9.902  32.119  1.00  0.00    -0.362 N 
HETATM    3  C1  UNK     1      31.531 -12.248  33.556  1.00  0.00    -0.036 C 
HETATM    4  C2  UNK     1      30.123 -11.836  33.081  1.00  0.00     0.067 C 
HETATM    5  C3  UNK     1      31.898 -11.439  34.808  1.00  0.00     0.092 C 
HETATM    6  C4  UNK     1      29.917 -10.344  33.004  1.00  0.00     0.021 C 
HETATM    7  C5  UNK     1      30.645  -9.456  33.714  1.00  0.00     0.024 C 
HETATM    8  C6  UNK     1      30.390  -7.954  33.601  1.00  0.00     0.104 C 
HETATM    9  C7  UNK     1      31.740  -9.947  34.607  1.00  0.00     0.159 C 
HETATM   10  C8  UNK     1      32.572 -12.014  32.441  1.00  0.00     0.015 C 
HETATM   11  C9  UNK     1      31.530 -13.747  33.901  1.00  0.00     0.015 C 
HETATM   12  C10 UNK     1      29.443  -7.611  32.448  1.00  0.00     0.052 C 
HETATM   13  C11 UNK     1      28.751  -8.571  31.792  1.00  0.00     0.018 C 
HETATM   14  C13 UNK     1      27.754  -8.331  30.690  1.00  0.00     0.069 C 
HETATM   15  H12 UNK     1      28.426 -10.599  31.604  1.00  0.00     0.165 HD
ENDROOT
BRANCH  12  16
HETATM   16  C14 UNK     1      29.367  -6.194  32.054  1.00  0.00     0.292 C 
HETATM   17  O4  UNK     1      28.400  -5.489  32.279  1.00  0.00    -0.259 OA
BRANCH  16  18
HETATM   18  O3  UNK     1      30.522  -5.861  31.430  1.00  0.00    -0.316 OA
BRANCH  18  19
HETATM   19  C20 UNK     1      30.401  -5.605  30.027  1.00  0.00     0.205 C 
BRANCH  19  20
HETATM   20  C24 UNK     1      31.548  -6.279  29.299  1.00  0.00     0.202 C 
BRANCH  20  21
HETATM   21  O6  UNK     1      31.021  -7.159  28.314  1.00  0.00    -0.349 OA
BRANCH  21  22
HETATM   22  C25 UNK     1      30.936  -8.483  28.653  1.00  0.00     0.068 A 
HETATM   23  C27 UNK     1      29.895  -9.257  28.149  1.00  0.00     0.037 A 
HETATM   24  C29 UNK     1      29.809 -10.606  28.492  1.00  0.00     0.003 A 
HETATM   25  C30 UNK     1      30.763 -11.172  29.338  1.00  0.00     0.000 A 
HETATM   26  C28 UNK     1      31.803 -10.391  29.838  1.00  0.00     0.003 A 
HETATM   27  C26 UNK     1      31.889  -9.041  29.496  1.00  0.00     0.037 A 
ENDBRANCH  21  22
ENDBRANCH  20  21
ENDBRANCH  19  20
ENDBRANCH  18  19
ENDBRANCH  16  18
ENDBRANCH  12  16
BRANCH   8  28
HETATM   28  C12 UNK     1      29.848  -7.409  34.899  1.00  0.00     0.029 A 
HETATM   29  C15 UNK     1      30.489  -6.205  35.486  1.00  0.00     0.194 A 
HETATM   30  O5  UNK     1      31.436  -5.646  34.950  1.00  0.00    -0.287 OA
HETATM   31  C17 UNK     1      29.921  -5.716  36.756  1.00  0.00     0.048 A 
HETATM   32  C18 UNK     1      28.840  -6.394  37.322  1.00  0.00     0.089 A 
HETATM   33  C19 UNK     1      30.455  -4.589  37.388  1.00  0.00     0.018 A 
HETATM   34  O2  UNK     1      28.278  -7.504  36.745  1.00  0.00    -0.321 OA
HETATM   35  C21 UNK     1      28.288  -5.948  38.523  1.00  0.00     0.038 A 
HETATM   36  C16 UNK     1      28.817  -7.949  35.563  1.00  0.00     0.154 A 
HETATM   37  C23 UNK     1      28.818  -4.824  39.156  1.00  0.00     0.003 A 
HETATM   38  C22 UNK     1      29.899  -4.147  38.589  1.00  0.00     0.001 A 
ENDBRANCH   8  28
TORSDOF 7
ENDMDL
MODEL 4
REMARK VINA RESULT:      -8.4      2.126      6.058
REMARK  7 active torsions:
REMARK  status: ('A' for Active; 'I' for Inactive)
REMARK    1  A    between atoms: C14_21  and  O3_3 
REMARK    2  A    between atoms: C20_27  and  O3_3 
REMARK    3  A    between atoms: C24_31  and  O6_6 
REMARK    4  A    between atoms: C25_32  and  O6_6 
REMARK    5  A    between atoms: C12_19  and  C6_13 
REMARK    6  A    between atoms: C10_17  and  C14_21 
REMARK    7  A    between atoms: C20_27  and  C24_31 
ROOT
HETATM    1  O1  UNK     1      26.860  -7.467  36.157  1.00  0.00    -0.293 OA
HETATM    2  N1  UNK     1      31.188  -8.694  37.639  1.00  0.00    -0.362 N 
HETATM    3  C1  UNK     1      27.793  -9.232  39.187  1.00  0.00    -0.036 C 
HETATM    4  C2  UNK     1      29.229  -9.628  38.788  1.00  0.00     0.067 C 
HETATM    5  C3  UNK     1      26.941  -9.078  37.919  1.00  0.00     0.092 C 
HETATM    6  C4  UNK     1      29.811  -8.782  37.683  1.00  0.00     0.021 C 
HETATM    7  C5  UNK     1      29.058  -8.101  36.793  1.00  0.00     0.024 C 
HETATM    8  C6  UNK     1      29.701  -7.263  35.690  1.00  0.00     0.104 C 
HETATM    9  C7  UNK     1      27.566  -8.144  36.904  1.00  0.00     0.159 C 
HETATM   10  C8  UNK     1      27.796  -7.917  39.995  1.00  0.00     0.015 C 
HETATM   11  C9  UNK     1      27.191 -10.336  40.073  1.00  0.00     0.015 C 
HETATM   12  C10 UNK     1      31.210  -7.100  35.890  1.00  0.00     0.052 C 
HETATM   13  C11 UNK     1      31.884  -7.829  36.809  1.00  0.00     0.018 C 
HETATM   14  C13 UNK     1      33.371  -7.786  37.038  1.00  0.00     0.069 C 
HETATM   15  H12 UNK     1      31.721  -9.220  38.324  1.00  0.00     0.165 HD
ENDROOT
BRANCH  12  16
HETATM   16  C14 UNK     1      31.878  -6.073  35.072  1.00  0.00     0.292 C 
HETATM   17  O4  UNK     1      32.035  -4.924  35.442  1.00  0.00    -0.259 OA
BRANCH  16  18
HETATM   18  O3  UNK     1      32.256  -6.638  33.901  1.00  0.00    -0.316 OA
BRANCH  18  19
HETATM   19  C20 UNK     1      33.651  -6.531  33.599  1.00  0.00     0.205 C 
BRANCH  19  20
HETATM   20  C24 UNK     1      33.968  -7.406  32.402  1.00  0.00     0.202 C 
BRANCH  20  21
HETATM   21  O6  UNK     1      32.843  -8.227  32.116  1.00  0.00    -0.349 OA
BRANCH  21  22
HETATM   22  C25 UNK     1      32.292  -8.105  30.867  1.00  0.00     0.068 A 
HETATM   23  C27 UNK     1      32.406  -9.152  29.960  1.00  0.00     0.037 A 
HETATM   24  C29 UNK     1      31.844  -9.028  28.689  1.00  0.00     0.003 A 
HETATM   25  C30 UNK     1      31.172  -7.858  28.335  1.00  0.00     0.000 A 
HETATM   26  C28 UNK     1      31.062  -6.813  29.250  1.00  0.00     0.003 A 
HETATM   27  C26 UNK     1      31.625  -6.936  30.520  1.00  0.00     0.037 A 
ENDBRANCH  21  22
ENDBRANCH  20  21
ENDBRANCH  19  20
ENDBRANCH  18  19
ENDBRANCH  16  18
ENDBRANCH  12  16
BRANCH   8  28
HETATM   28  C12 UNK     1      29.417  -7.863  34.335  1.00  0.00     0.029 A 
HETATM   29  C15 UNK     1      28.602  -7.082  33.370  1.00  0.00     0.194 A 
HETATM   30  O5  UNK     1      28.158  -5.975  33.640  1.00  0.00    -0.287 OA
HETATM   31  C17 UNK     1      28.353  -7.716  32.062  1.00  0.00     0.048 A 
HETATM   32  C18 UNK     1      28.883  -8.982  31.809  1.00  0.00     0.089 A 
HETATM   33  C19 UNK     1      27.597  -7.061  31.086  1.00  0.00     0.018 A 
HETATM   34  O2  UNK     1      29.632  -9.668  32.730  1.00  0.00    -0.321 OA
HETATM   35  C21 UNK     1      28.660  -9.599  30.578  1.00  0.00     0.038 A 
HETATM   36  C16 UNK     1      29.855  -9.067  33.944  1.00  0.00     0.154 A 
HETATM   37  C23 UNK     1      27.906  -8.948  29.602  1.00  0.00     0.003 A 
HETATM   38  C22 UNK     1      27.376  -7.682  29.856  1.00  0.00     0.001 A 
ENDBRANCH   8  28
TORSDOF 7
ENDMDL
MODEL 5
REMARK VINA RESULT:      -8.4      1.731      2.865
REMARK  7 active torsions:
REMARK  status: ('A' for Active; 'I' for Inactive)
REMARK    1  A    between atoms: C14_21  and  O3_3 
REMARK    2  A    between atoms: C20_27  and  O3_3 
REMARK    3  A    between atoms: C24_31  and  O6_6 
REMARK    4  A    between atoms: C25_32  and  O6_6 
REMARK    5  A    between atoms: C12_19  and  C6_13 
REMARK    6  A    between atoms: C10_17  and  C14_21 
REMARK    7  A    between atoms: C20_27  and  C24_31 
ROOT
HETATM    1  O1  UNK     1      28.865  -9.205  33.510  1.00  0.00    -0.293 OA
HETATM    2  N1  UNK     1      30.968  -4.962  33.502  1.00  0.00    -0.362 N 
HETATM    3  C1  UNK     1      28.695  -6.607  30.984  1.00  0.00    -0.036 C 
HETATM    4  C2  UNK     1      29.235  -5.433  31.826  1.00  0.00     0.067 C 
HETATM    5  C3  UNK     1      28.034  -7.634  31.914  1.00  0.00     0.092 C 
HETATM    6  C4  UNK     1      30.035  -5.864  33.031  1.00  0.00     0.021 C 
HETATM    7  C5  UNK     1      29.903  -7.073  33.617  1.00  0.00     0.024 C 
HETATM    8  C6  UNK     1      30.735  -7.455  34.839  1.00  0.00     0.104 C 
HETATM    9  C7  UNK     1      28.944  -8.069  33.044  1.00  0.00     0.159 C 
HETATM   10  C8  UNK     1      29.833  -7.267  30.176  1.00  0.00     0.015 C 
HETATM   11  C9  UNK     1      27.649  -6.075  29.989  1.00  0.00     0.015 C 
HETATM   12  C10 UNK     1      31.853  -6.446  35.119  1.00  0.00     0.052 C 
HETATM   13  C11 UNK     1      31.904  -5.253  34.482  1.00  0.00     0.018 C 
HETATM   14  C13 UNK     1      32.922  -4.174  34.729  1.00  0.00     0.069 C 
HETATM   15  H12 UNK     1      31.038  -4.063  33.037  1.00  0.00     0.165 HD
ENDROOT
BRANCH  12  16
HETATM   16  C14 UNK     1      32.896  -6.862  36.072  1.00  0.00     0.292 C 
HETATM   17  O4  UNK     1      33.195  -6.215  37.058  1.00  0.00    -0.259 OA
BRANCH  16  18
HETATM   18  O3  UNK     1      33.417  -8.038  35.648  1.00  0.00    -0.316 OA
BRANCH  18  19
HETATM   19  C20 UNK     1      34.345  -7.933  34.563  1.00  0.00     0.205 C 
BRANCH  19  20
HETATM   20  C24 UNK     1      34.214  -9.157  33.678  1.00  0.00     0.202 C 
BRANCH  20  21
HETATM   21  O6  UNK     1      33.178  -9.989  34.187  1.00  0.00    -0.349 OA
BRANCH  21  22
HETATM   22  C25 UNK     1      32.286 -10.490  33.276  1.00  0.00     0.068 A 
HETATM   23  C27 UNK     1      32.147  -9.873  32.038  1.00  0.00     0.037 A 
HETATM   24  C29 UNK     1      31.241 -10.384  31.110  1.00  0.00     0.003 A 
HETATM   25  C30 UNK     1      30.477 -11.508  31.426  1.00  0.00     0.000 A 
HETATM   26  C28 UNK     1      30.622 -12.121  32.669  1.00  0.00     0.003 A 
HETATM   27  C26 UNK     1      31.529 -11.610  33.598  1.00  0.00     0.037 A 
ENDBRANCH  21  22
ENDBRANCH  20  21
ENDBRANCH  19  20
ENDBRANCH  18  19
ENDBRANCH  16  18
ENDBRANCH  12  16
BRANCH   8  28
HETATM   28  C12 UNK     1      29.854  -7.606  36.054  1.00  0.00     0.029 A 
HETATM   29  C15 UNK     1      29.959  -8.850  36.857  1.00  0.00     0.194 A 
HETATM   30  O5  UNK     1      30.734  -9.750  36.563  1.00  0.00    -0.287 OA
HETATM   31  C17 UNK     1      29.074  -8.947  38.033  1.00  0.00     0.048 A 
HETATM   32  C18 UNK     1      28.209  -7.890  38.320  1.00  0.00     0.089 A 
HETATM   33  C19 UNK     1      29.098 -10.079  38.852  1.00  0.00     0.018 A 
HETATM   34  O2  UNK     1      28.145  -6.756  37.551  1.00  0.00    -0.321 OA
HETATM   35  C21 UNK     1      27.364  -7.960  39.427  1.00  0.00     0.038 A 
HETATM   36  C16 UNK     1      28.974  -6.680  36.458  1.00  0.00     0.154 A 
HETATM   37  C23 UNK     1      27.386  -9.089  40.246  1.00  0.00     0.003 A 
HETATM   38  C22 UNK     1      28.251 -10.145  39.959  1.00  0.00     0.001 A 
ENDBRANCH   8  28
TORSDOF 7
ENDMDL
MODEL 6
REMARK VINA RESULT:      -8.4      1.254      1.792
REMARK  7 active torsions:
REMARK  status: ('A' for Active; 'I' for Inactive)
REMARK    1  A    between atoms: C14_21  and  O3_3 
REMARK    2  A    between atoms: C20_27  and  O3_3 
REMARK    3  A    between atoms: C24_31  and  O6_6 
REMARK    4  A    between atoms: C25_32  and  O6_6 
REMARK    5  A    between atoms: C12_19  and  C6_13 
REMARK    6  A    between atoms: C10_17  and  C14_21 
REMARK    7  A    between atoms: C20_27  and  C24_31 
ROOT
HETATM    1  O1  UNK     1      29.136  -9.104  33.518  1.00  0.00    -0.293 OA
HETATM    2  N1  UNK     1      31.121  -4.806  33.635  1.00  0.00    -0.362 N 
HETATM    3  C1  UNK     1      28.985  -6.480  31.018  1.00  0.00    -0.036 C 
HETATM    4  C2  UNK     1      29.463  -5.303  31.892  1.00  0.00     0.067 C 
HETATM    5  C3  UNK     1      28.320  -7.536  31.912  1.00  0.00     0.092 C 
HETATM    6  C4  UNK     1      30.230  -5.727  33.120  1.00  0.00     0.021 C 
HETATM    7  C5  UNK     1      30.110  -6.946  33.686  1.00  0.00     0.024 C 
HETATM    8  C6  UNK     1      30.909  -7.321  34.934  1.00  0.00     0.104 C 
HETATM    9  C7  UNK     1      29.200  -7.960  33.068  1.00  0.00     0.159 C 
HETATM   10  C8  UNK     1      30.169  -7.099  30.244  1.00  0.00     0.015 C 
HETATM   11  C9  UNK     1      27.961  -5.964  29.992  1.00  0.00     0.015 C 
HETATM   12  C10 UNK     1      31.988  -6.286  35.265  1.00  0.00     0.052 C 
HETATM   13  C11 UNK     1      32.030  -5.085  34.644  1.00  0.00     0.018 C 
HETATM   14  C13 UNK     1      33.009  -3.982  34.940  1.00  0.00     0.069 C 
HETATM   15  H12 UNK     1      31.183  -3.900  33.182  1.00  0.00     0.165 HD
ENDROOT
BRANCH  12  16
HETATM   16  C14 UNK     1      33.007  -6.686  36.250  1.00  0.00     0.292 C 
HETATM   17  O4  UNK     1      32.980  -6.341  37.417  1.00  0.00    -0.259 OA
BRANCH  16  18
HETATM   18  O3  UNK     1      33.922  -7.465  35.625  1.00  0.00    -0.316 OA
BRANCH  18  19
HETATM   19  C20 UNK     1      35.234  -6.902  35.530  1.00  0.00     0.205 C 
BRANCH  19  20
HETATM   20  C24 UNK     1      35.759  -7.102  34.122  1.00  0.00     0.202 C 
BRANCH  20  21
HETATM   21  O6  UNK     1      34.860  -6.494  33.201  1.00  0.00    -0.349 OA
BRANCH  21  22
HETATM   22  C25 UNK     1      34.441  -7.265  32.149  1.00  0.00     0.068 A 
HETATM   23  C27 UNK     1      35.068  -7.144  30.914  1.00  0.00     0.037 A 
HETATM   24  C29 UNK     1      34.642  -7.930  29.844  1.00  0.00     0.003 A 
HETATM   25  C30 UNK     1      33.590  -8.830  30.014  1.00  0.00     0.000 A 
HETATM   26  C28 UNK     1      32.966  -8.945  31.255  1.00  0.00     0.003 A 
HETATM   27  C26 UNK     1      33.392  -8.160  32.326  1.00  0.00     0.037 A 
ENDBRANCH  21  22
ENDBRANCH  20  21
ENDBRANCH  19  20
ENDBRANCH  18  19
ENDBRANCH  16  18
ENDBRANCH  12  16
BRANCH   8  28
HETATM   28  C12 UNK     1      29.989  -7.510  36.115  1.00  0.00     0.029 A 
HETATM   29  C15 UNK     1      30.093  -8.766  36.900  1.00  0.00     0.194 A 
HETATM   30  O5  UNK     1      30.896  -9.645  36.619  1.00  0.00    -0.287 OA
HETATM   31  C17 UNK     1      29.170  -8.901  38.042  1.00  0.00     0.048 A 
HETATM   32  C18 UNK     1      28.273  -7.866  38.316  1.00  0.00     0.089 A 
HETATM   33  C19 UNK     1      29.189 -10.046  38.843  1.00  0.00     0.018 A 
HETATM   34  O2  UNK     1      28.212  -6.721  37.564  1.00  0.00    -0.321 OA
HETATM   35  C21 UNK     1      27.392  -7.973  39.392  1.00  0.00     0.038 A 
HETATM   36  C16 UNK     1      29.077  -6.610  36.502  1.00  0.00     0.154 A 
HETATM   37  C23 UNK     1      27.409  -9.115  40.192  1.00  0.00     0.003 A 
HETATM   38  C22 UNK     1      28.305 -10.148  39.918  1.00  0.00     0.001 A 
ENDBRANCH   8  28
TORSDOF 7
ENDMDL
MODEL 7
REMARK VINA RESULT:      -8.4      2.926      4.973
REMARK  7 active torsions:
REMARK  status: ('A' for Active; 'I' for Inactive)
REMARK    1  A    between atoms: C14_21  and  O3_3 
REMARK    2  A    between atoms: C20_27  and  O3_3 
REMARK    3  A    between atoms: C24_31  and  O6_6 
REMARK    4  A    between atoms: C25_32  and  O6_6 
REMARK    5  A    between atoms: C12_19  and  C6_13 
REMARK    6  A    between atoms: C10_17  and  C14_21 
REMARK    7  A    between atoms: C20_27  and  C24_31 
ROOT
HETATM    1  O1  UNK     1      31.829 -10.901  35.502  1.00  0.00    -0.293 OA
HETATM    2  N1  UNK     1      29.368 -10.779  31.457  1.00  0.00    -0.362 N 
HETATM    3  C1  UNK     1      31.802 -13.324  32.803  1.00  0.00    -0.036 C 
HETATM    4  C2  UNK     1      30.520 -12.855  32.086  1.00  0.00     0.067 C 
HETATM    5  C3  UNK     1      31.713 -12.956  34.290  1.00  0.00     0.092 C 
HETATM    6  C4  UNK     1      30.127 -11.435  32.407  1.00  0.00     0.021 C 
HETATM    7  C5  UNK     1      30.511 -10.793  33.531  1.00  0.00     0.024 C 
HETATM    8  C6  UNK     1      30.078  -9.354  33.808  1.00  0.00     0.104 C 
HETATM    9  C7  UNK     1      31.398 -11.491  34.512  1.00  0.00     0.159 C 
HETATM   10  C8  UNK     1      33.050 -12.678  32.163  1.00  0.00     0.015 C 
HETATM   11  C9  UNK     1      31.930 -14.851  32.663  1.00  0.00     0.015 C 
HETATM   12  C10 UNK     1      29.420  -8.701  32.589  1.00  0.00     0.052 C 
HETATM   13  C11 UNK     1      29.067  -9.427  31.503  1.00  0.00     0.018 C 
HETATM   14  C13 UNK     1      28.363  -8.891  30.285  1.00  0.00     0.069 C 
HETATM   15  H12 UNK     1      29.099 -11.294  30.626  1.00  0.00     0.165 HD
ENDROOT
BRANCH  12  16
HETATM   16  C14 UNK     1      29.243  -7.240  32.636  1.00  0.00     0.292 C 
HETATM   17  O4  UNK     1      28.186  -6.704  32.913  1.00  0.00    -0.259 OA
BRANCH  16  18
HETATM   18  O3  UNK     1      30.426  -6.656  32.328  1.00  0.00    -0.316 OA
BRANCH  18  19
HETATM   19  C20 UNK     1      30.727  -5.470  33.070  1.00  0.00     0.205 C 
BRANCH  19  20
HETATM   20  C24 UNK     1      32.051  -5.655  33.785  1.00  0.00     0.202 C 
BRANCH  20  21
HETATM   21  O6  UNK     1      32.266  -4.553  34.658  1.00  0.00    -0.349 OA
BRANCH  21  22
HETATM   22  C25 UNK     1      32.185  -4.805  36.002  1.00  0.00     0.068 A 
HETATM   23  C27 UNK     1      31.050  -4.421  36.707  1.00  0.00     0.037 A 
HETATM   24  C29 UNK     1      30.967  -4.679  38.075  1.00  0.00     0.003 A 
HETATM   25  C30 UNK     1      32.020  -5.319  38.729  1.00  0.00     0.000 A 
HETATM   26  C28 UNK     1      33.155  -5.701  38.015  1.00  0.00     0.003 A 
HETATM   27  C26 UNK     1      33.238  -5.443  36.647  1.00  0.00     0.037 A 
ENDBRANCH  21  22
ENDBRANCH  20  21
ENDBRANCH  19  20
ENDBRANCH  18  19
ENDBRANCH  16  18
ENDBRANCH  12  16
BRANCH   8  28
HETATM   28  C12 UNK     1      29.147  -9.299  34.993  1.00  0.00     0.029 A 
HETATM   29  C15 UNK     1      29.542  -8.480  36.168  1.00  0.00     0.194 A 
HETATM   30  O5  UNK     1      30.592  -7.854  36.200  1.00  0.00    -0.287 OA
HETATM   31  C17 UNK     1      28.598  -8.463  37.300  1.00  0.00     0.048 A 
HETATM   32  C18 UNK     1      27.414  -9.198  37.208  1.00  0.00     0.089 A 
HETATM   33  C19 UNK     1      28.878  -7.722  38.451  1.00  0.00     0.018 A 
HETATM   34  O2  UNK     1      27.089  -9.941  36.103  1.00  0.00    -0.321 OA
HETATM   35  C21 UNK     1      26.506  -9.195  38.267  1.00  0.00     0.038 A 
HETATM   36  C16 UNK     1      27.978  -9.949  35.056  1.00  0.00     0.154 A 
HETATM   37  C23 UNK     1      26.784  -8.456  39.417  1.00  0.00     0.003 A 
HETATM   38  C22 UNK     1      27.968  -7.722  39.508  1.00  0.00     0.001 A 
ENDBRANCH   8  28
TORSDOF 7
ENDMDL
MODEL 8
REMARK VINA RESULT:      -8.3      3.151      6.750
REMARK  7 active torsions:
REMARK  status: ('A' for Active; 'I' for Inactive)
REMARK    1  A    between atoms: C14_21  and  O3_3 
REMARK    2  A    between atoms: C20_27  and  O3_3 
REMARK    3  A    between atoms: C24_31  and  O6_6 
REMARK    4  A    between atoms: C25_32  and  O6_6 
REMARK    5  A    between atoms: C12_19  and  C6_13 
REMARK    6  A    between atoms: C10_17  and  C14_21 
REMARK    7  A    between atoms: C20_27  and  C24_31 
ROOT
HETATM    1  O1  UNK     1      28.077  -9.573  34.795  1.00  0.00    -0.293 OA
HETATM    2  N1  UNK     1      31.962  -8.013  37.009  1.00  0.00    -0.362 N 
HETATM    3  C1  UNK     1      28.363  -8.153  38.121  1.00  0.00    -0.036 C 
HETATM    4  C2  UNK     1      29.889  -8.287  38.297  1.00  0.00     0.067 C 
HETATM    5  C3  UNK     1      27.869  -9.236  37.151  1.00  0.00     0.092 C 
HETATM    6  C4  UNK     1      30.643  -8.422  36.998  1.00  0.00     0.021 C 
HETATM    7  C5  UNK     1      30.082  -8.874  35.856  1.00  0.00     0.024 C 
HETATM    8  C6  UNK     1      30.895  -8.995  34.569  1.00  0.00     0.104 C 
HETATM    9  C7  UNK     1      28.631  -9.237  35.842  1.00  0.00     0.159 C 
HETATM   10  C8  UNK     1      27.997  -6.750  37.593  1.00  0.00     0.015 C 
HETATM   11  C9  UNK     1      27.678  -8.344  39.486  1.00  0.00     0.015 C 
HETATM   12  C10 UNK     1      32.267  -8.323  34.683  1.00  0.00     0.052 C 
HETATM   13  C11 UNK     1      32.750  -7.901  35.874  1.00  0.00     0.018 C 
HETATM   14  C13 UNK     1      34.105  -7.287  36.099  1.00  0.00     0.069 C 
HETATM   15  H12 UNK     1      32.349  -7.680  37.885  1.00  0.00     0.165 HD
ENDROOT
BRANCH  12  16
HETATM   16  C14 UNK     1      33.005  -8.110  33.427  1.00  0.00     0.292 C 
HETATM   17  O4  UNK     1      33.952  -8.795  33.084  1.00  0.00    -0.259 OA
BRANCH  16  18
HETATM   18  O3  UNK     1      32.448  -7.062  32.776  1.00  0.00    -0.316 OA
BRANCH  18  19
HETATM   19  C20 UNK     1      32.167  -7.289  31.391  1.00  0.00     0.205 C 
BRANCH  19  20
HETATM   20  C24 UNK     1      30.858  -6.614  31.033  1.00  0.00     0.202 C 
BRANCH  20  21
HETATM   21  O6  UNK     1      30.629  -6.755  29.636  1.00  0.00    -0.349 OA
BRANCH  21  22
HETATM   22  C25 UNK     1      29.934  -7.865  29.234  1.00  0.00     0.068 A 
HETATM   23  C27 UNK     1      28.634  -8.063  29.686  1.00  0.00     0.037 A 
HETATM   24  C29 UNK     1      27.925  -9.192  29.276  1.00  0.00     0.003 A 
HETATM   25  C30 UNK     1      28.522 -10.117  28.417  1.00  0.00     0.000 A 
HETATM   26  C28 UNK     1      29.826  -9.911  27.969  1.00  0.00     0.003 A 
HETATM   27  C26 UNK     1      30.534  -8.782  28.379  1.00  0.00     0.037 A 
ENDBRANCH  21  22
ENDBRANCH  20  21
ENDBRANCH  19  20
ENDBRANCH  18  19
ENDBRANCH  16  18
ENDBRANCH  12  16
BRANCH   8  28
HETATM   28  C12 UNK     1      31.056 -10.443  34.178  1.00  0.00     0.029 A 
HETATM   29  C15 UNK     1      30.644 -10.859  32.813  1.00  0.00     0.194 A 
HETATM   30  O5  UNK     1      30.183 -10.067  32.003  1.00  0.00    -0.287 OA
HETATM   31  C17 UNK     1      30.821 -12.286  32.484  1.00  0.00     0.048 A 
HETATM   32  C18 UNK     1      31.352 -13.144  33.448  1.00  0.00     0.089 A 
HETATM   33  C19 UNK     1      30.463 -12.776  31.225  1.00  0.00     0.018 A 
HETATM   34  O2  UNK     1      31.720 -12.717  34.698  1.00  0.00    -0.321 OA
HETATM   35  C21 UNK     1      31.528 -14.497  33.157  1.00  0.00     0.038 A 
HETATM   36  C16 UNK     1      31.549 -11.386  34.991  1.00  0.00     0.154 A 
HETATM   37  C23 UNK     1      31.172 -14.989  31.901  1.00  0.00     0.003 A 
HETATM   38  C22 UNK     1      30.640 -14.131  30.938  1.00  0.00     0.001 A 
ENDBRANCH   8  28
TORSDOF 7
ENDMDL
MODEL 9
REMARK VINA RESULT:      -8.3      1.887      5.762
REMARK  7 active torsions:
REMARK  status: ('A' for Active; 'I' for Inactive)
REMARK    1  A    between atoms: C14_21  and  O3_3 
REMARK    2  A    between atoms: C20_27  and  O3_3 
REMARK    3  A    between atoms: C24_31  and  O6_6 
REMARK    4  A    between atoms: C25_32  and  O6_6 
REMARK    5  A    between atoms: C12_19  and  C6_13 
REMARK    6  A    between atoms: C10_17  and  C14_21 
REMARK    7  A    between atoms: C20_27  and  C24_31 
ROOT
HETATM    1  O1  UNK     1      27.677  -6.750  35.402  1.00  0.00    -0.293 OA
HETATM    2  N1  UNK     1      31.696  -8.017  37.564  1.00  0.00    -0.362 N 
HETATM    3  C1  UNK     1      28.107  -8.189  38.705  1.00  0.00    -0.036 C 
HETATM    4  C2  UNK     1      29.551  -8.705  38.544  1.00  0.00     0.067 C 
HETATM    5  C3  UNK     1      27.431  -8.143  37.327  1.00  0.00     0.092 C 
HETATM    6  C4  UNK     1      30.321  -8.027  37.437  1.00  0.00     0.021 C 
HETATM    7  C5  UNK     1      29.731  -7.418  36.387  1.00  0.00     0.024 C 
HETATM    8  C6  UNK     1      30.561  -6.752  35.291  1.00  0.00     0.104 C 
HETATM    9  C7  UNK     1      28.238  -7.370  36.306  1.00  0.00     0.159 C 
HETATM   10  C8  UNK     1      28.098  -6.789  39.355  1.00  0.00     0.015 C 
HETATM   11  C9  UNK     1      27.327  -9.147  39.622  1.00  0.00     0.015 C 
HETATM   12  C10 UNK     1      32.042  -6.646  35.667  1.00  0.00     0.052 C 
HETATM   13  C11 UNK     1      32.546  -7.295  36.741  1.00  0.00     0.018 C 
HETATM   14  C13 UNK     1      33.992  -7.303  37.157  1.00  0.00     0.069 C 
HETATM   15  H12 UNK     1      32.103  -8.485  38.367  1.00  0.00     0.165 HD
ENDROOT
BRANCH  12  16
HETATM   16  C14 UNK     1      32.873  -5.760  34.835  1.00  0.00     0.292 C 
HETATM   17  O4  UNK     1      32.846  -4.546  34.920  1.00  0.00    -0.259 OA
BRANCH  16  18
HETATM   18  O3  UNK     1      33.625  -6.528  34.011  1.00  0.00    -0.316 OA
BRANCH  18  19
HETATM   19  C20 UNK     1      34.942  -6.031  33.753  1.00  0.00     0.205 C 
BRANCH  19  20
HETATM   20  C24 UNK     1      35.858  -7.197  33.434  1.00  0.00     0.202 C 
BRANCH  20  21
HETATM   21  O6  UNK     1      36.201  -7.154  32.054  1.00  0.00    -0.349 OA
BRANCH  21  22
HETATM   22  C25 UNK     1      35.257  -7.605  31.170  1.00  0.00     0.068 A 
HETATM   23  C27 UNK     1      34.913  -6.824  30.073  1.00  0.00     0.037 A 
HETATM   24  C29 UNK     1      33.953  -7.284  29.171  1.00  0.00     0.003 A 
HETATM   25  C30 UNK     1      33.342  -8.521  29.374  1.00  0.00     0.000 A 
HETATM   26  C28 UNK     1      33.692  -9.299  30.477  1.00  0.00     0.003 A 
HETATM   27  C26 UNK     1      34.651  -8.839  31.379  1.00  0.00     0.037 A 
ENDBRANCH  21  22
ENDBRANCH  20  21
ENDBRANCH  19  20
ENDBRANCH  18  19
ENDBRANCH  16  18
ENDBRANCH  12  16
BRANCH   8  28
HETATM   28  C12 UNK     1      30.407  -7.493  33.985  1.00  0.00     0.029 A 
HETATM   29  C15 UNK     1      30.165  -6.708  32.749  1.00  0.00     0.194 A 
HETATM   30  O5  UNK     1      30.087  -5.487  32.758  1.00  0.00    -0.287 OA
HETATM   31  C17 UNK     1      30.020  -7.482  31.501  1.00  0.00     0.048 A 
HETATM   32  C18 UNK     1      30.118  -8.873  31.551  1.00  0.00     0.089 A 
HETATM   33  C19 UNK     1      29.789  -6.835  30.284  1.00  0.00     0.018 A 
HETATM   34  O2  UNK     1      30.343  -9.559  32.716  1.00  0.00    -0.321 OA
HETATM   35  C21 UNK     1      29.985  -9.624  30.383  1.00  0.00     0.038 A 
HETATM   36  C16 UNK     1      30.475  -8.826  33.870  1.00  0.00     0.154 A 
HETATM   37  C23 UNK     1      29.754  -8.981  29.167  1.00  0.00     0.003 A 
HETATM   38  C22 UNK     1      29.656  -7.590  29.118  1.00  0.00     0.001 A 
ENDBRANCH   8  28
TORSDOF 7
ENDMDL
MODEL 10
REMARK VINA RESULT:      -8.2      3.021      6.828
REMARK  7 active torsions:
REMARK  status: ('A' for Active; 'I' for Inactive)
REMARK    1  A    between atoms: C14_21  and  O3_3 
REMARK    2  A    between atoms: C20_27  and  O3_3 
REMARK    3  A    between atoms: C24_31  and  O6_6 
REMARK    4  A    between atoms: C25_32  and  O6_6 
REMARK    5  A    between atoms: C12_19  and  C6_13 
REMARK    6  A    between atoms: C10_17  and  C14_21 
REMARK    7  A    between atoms: C20_27  and  C24_31 
ROOT
HETATM    1  O1  UNK     1      27.503  -9.888  35.450  1.00  0.00    -0.293 OA
HETATM    2  N1  UNK     1      30.511  -6.576  37.006  1.00  0.00    -0.362 N 
HETATM    3  C1  UNK     1      27.758  -8.452  38.771  1.00  0.00    -0.036 C 
HETATM    4  C2  UNK     1      29.155  -7.814  38.639  1.00  0.00     0.067 C 
HETATM    5  C3  UNK     1      27.660  -9.654  37.822  1.00  0.00     0.092 C 
HETATM    6  C4  UNK     1      29.587  -7.583  37.212  1.00  0.00     0.021 C 
HETATM    7  C5  UNK     1      29.089  -8.273  36.164  1.00  0.00     0.024 C 
HETATM    8  C6  UNK     1      29.567  -8.000  34.739  1.00  0.00     0.104 C 
HETATM    9  C7  UNK     1      28.031  -9.304  36.396  1.00  0.00     0.159 C 
HETATM   10  C8  UNK     1      26.655  -7.421  38.450  1.00  0.00     0.015 C 
HETATM   11  C9  UNK     1      27.556  -8.931  40.220  1.00  0.00     0.015 C 
HETATM   12  C10 UNK     1      30.430  -6.738  34.647  1.00  0.00     0.052 C 
HETATM   13  C11 UNK     1      30.886  -6.112  35.756  1.00  0.00     0.018 C 
HETATM   14  C13 UNK     1      31.786  -4.906  35.769  1.00  0.00     0.069 C 
HETATM   15  H12 UNK     1      30.862  -6.080  37.818  1.00  0.00     0.165 HD
ENDROOT
BRANCH  12  16
HETATM   16  C14 UNK     1      30.689  -6.211  33.296  1.00  0.00     0.292 C 
HETATM   17  O4  UNK     1      31.727  -6.407  32.691  1.00  0.00    -0.259 OA
BRANCH  16  18
HETATM   18  O3  UNK     1      29.601  -5.511  32.895  1.00  0.00    -0.316 OA
BRANCH  18  19
HETATM   19  C20 UNK     1      29.620  -5.095  31.525  1.00  0.00     0.205 C 
BRANCH  19  20
HETATM   20  C24 UNK     1      28.906  -6.134  30.683  1.00  0.00     0.202 C 
BRANCH  20  21
HETATM   21  O6  UNK     1      29.840  -6.728  29.788  1.00  0.00    -0.349 OA
BRANCH  21  22
HETATM   22  C25 UNK     1      29.493  -7.938  29.249  1.00  0.00     0.068 A 
HETATM   23  C27 UNK     1      28.194  -8.412  29.399  1.00  0.00     0.037 A 
HETATM   24  C29 UNK     1      27.840  -9.643  28.848  1.00  0.00     0.003 A 
HETATM   25  C30 UNK     1      28.788 -10.394  28.152  1.00  0.00     0.000 A 
HETATM   26  C28 UNK     1      30.088  -9.913  28.006  1.00  0.00     0.003 A 
HETATM   27  C26 UNK     1      30.442  -8.681  28.557  1.00  0.00     0.037 A 
ENDBRANCH  21  22
ENDBRANCH  20  21
ENDBRANCH  19  20
ENDBRANCH  18  19
ENDBRANCH  16  18
ENDBRANCH  12  16
BRANCH   8  28
HETATM   28  C12 UNK     1      30.324  -9.188  34.197  1.00  0.00     0.029 A 
HETATM   29  C15 UNK     1      29.818  -9.851  32.968  1.00  0.00     0.194 A 
HETATM   30  O5  UNK     1      28.814  -9.464  32.387  1.00  0.00    -0.287 OA
HETATM   31  C17 UNK     1      30.594 -11.008  32.484  1.00  0.00     0.048 A 
HETATM   32  C18 UNK     1      31.731 -11.405  33.188  1.00  0.00     0.089 A 
HETATM   33  C19 UNK     1      30.199 -11.699  31.335  1.00  0.00     0.018 A 
HETATM   34  O2  UNK     1      32.164 -10.763  34.320  1.00  0.00    -0.321 OA
HETATM   35  C21 UNK     1      32.480 -12.497  32.746  1.00  0.00     0.038 A 
HETATM   36  C16 UNK     1      31.431  -9.688  34.760  1.00  0.00     0.154 A 
HETATM   37  C23 UNK     1      32.089 -13.189  31.600  1.00  0.00     0.003 A 
HETATM   38  C22 UNK     1      30.951 -12.790  30.897  1.00  0.00     0.001 A 
ENDBRANCH   8  28
TORSDOF 7
ENDMDL
