MODEL 1
REMARK VINA RESULT:      -8.9      0.000      0.000
REMARK  7 active torsions:
REMARK  status: ('A' for Active; 'I' for Inactive)
REMARK    1  A    between atoms: C9_17  and  O2_2 
REMARK    2  A    between atoms: C10_18  and  O3_3 
REMARK    3  A    between atoms: C11_19  and  O4_4 
REMARK    4  A    between atoms: C5_13  and  O5_5 
REMARK    5  A    between atoms: C12_20  and  O6_6 
REMARK    6  A    between atoms: C14_22  and  O8_8 
REMARK    7  A    between atoms: C1_9  and  C2_10 
ROOT
HETATM    1  O1  UNK     1      19.317  -1.148  17.663  1.00  0.00    -0.306 OA
HETATM    2  O7  UNK     1      19.119   2.174  15.310  1.00  0.00    -0.284 OA
HETATM    3  C1  UNK     1      19.382  -1.235  16.281  1.00  0.00     0.123 A 
HETATM    4  C3  UNK     1      19.129   1.266  17.487  1.00  0.00     0.084 A 
HETATM    5  C4  UNK     1      19.199   0.093  18.235  1.00  0.00     0.096 A 
HETATM    6  C5  UNK     1      19.315  -0.183  15.446  1.00  0.00     0.152 A 
HETATM    7  C6  UNK     1      19.182   1.179  16.019  1.00  0.00     0.223 A 
HETATM    8  C12 UNK     1      19.008   2.503  18.124  1.00  0.00     0.085 A 
HETATM    9  C13 UNK     1      19.150   0.150  19.628  1.00  0.00     0.075 A 
HETATM   10  C14 UNK     1      19.028   1.383  20.268  1.00  0.00     0.071 A 
HETATM   11  C15 UNK     1      18.959   2.557  19.518  1.00  0.00     0.074 A 
ENDROOT
BRANCH   3  12
HETATM   12  C2  UNK     1      19.507  -2.622  15.799  1.00  0.00     0.006 A 
HETATM   13  C7  UNK     1      20.739  -3.273  15.856  1.00  0.00     0.054 A 
HETATM   14  C10 UNK     1      20.857  -4.586  15.400  1.00  0.00     0.105 A 
HETATM   15  C11 UNK     1      19.743  -5.248  14.885  1.00  0.00     0.135 A 
HETATM   16  C9  UNK     1      18.510  -4.598  14.827  1.00  0.00     0.105 A 
HETATM   17  C8  UNK     1      18.392  -3.285  15.284  1.00  0.00     0.054 A 
BRANCH  14  18
HETATM   18  O3  UNK     1      22.067  -5.209  15.462  1.00  0.00    -0.353 OA
HETATM   19  C17 UNK     1      22.894  -4.909  16.585  1.00  0.00     0.210 C 
ENDBRANCH  14  18
BRANCH  15  20
HETATM   20  O4  UNK     1      19.859  -6.531  14.438  1.00  0.00    -0.351 OA
HETATM   21  C18 UNK     1      20.194  -6.710  13.065  1.00  0.00     0.210 C 
ENDBRANCH  15  20
BRANCH  16  22
HETATM   22  O2  UNK     1      17.414  -5.234  14.327  1.00  0.00    -0.353 OA
HETATM   23  C16 UNK     1      16.754  -6.160  15.187  1.00  0.00     0.210 C 
ENDBRANCH  16  22
ENDBRANCH   3  12
BRANCH   6  24
HETATM   24  O5  UNK     1      19.348  -0.308  14.074  1.00  0.00    -0.355 OA
HETATM   25  H5  UNK     1      20.180  -0.726  13.801  1.00  0.00     0.218 HD
ENDBRANCH   6  24
BRANCH  10  26
HETATM   26  O8  UNK     1      18.980   1.441  21.627  1.00  0.00    -0.361 OA
HETATM   27  H16 UNK     1      18.059   1.586  21.904  1.00  0.00     0.217 HD
ENDBRANCH  10  26
BRANCH   8  28
HETATM   28  O6  UNK     1      18.935   3.678  17.440  1.00  0.00    -0.360 OA
HETATM   29  H6  UNK     1      19.459   4.363  17.883  1.00  0.00     0.217 HD
ENDBRANCH   8  28
TORSDOF 7
ENDMDL
MODEL 2
REMARK VINA RESULT:      -8.9      0.039      2.415
REMARK  7 active torsions:
REMARK  status: ('A' for Active; 'I' for Inactive)
REMARK    1  A    between atoms: C9_17  and  O2_2 
REMARK    2  A    between atoms: C10_18  and  O3_3 
REMARK    3  A    between atoms: C11_19  and  O4_4 
REMARK    4  A    between atoms: C5_13  and  O5_5 
REMARK    5  A    between atoms: C12_20  and  O6_6 
REMARK    6  A    between atoms: C14_22  and  O8_8 
REMARK    7  A    between atoms: C1_9  and  C2_10 
ROOT
HETATM    1  O1  UNK     1      19.315  -1.136  17.684  1.00  0.00    -0.306 OA
HETATM    2  O7  UNK     1      19.129   2.200  15.350  1.00  0.00    -0.284 OA
HETATM    3  C1  UNK     1      19.376  -1.216  16.301  1.00  0.00     0.123 A 
HETATM    4  C3  UNK     1      19.139   1.280  17.522  1.00  0.00     0.084 A 
HETATM    5  C4  UNK     1      19.205   0.102  18.262  1.00  0.00     0.096 A 
HETATM    6  C5  UNK     1      19.313  -0.159  15.472  1.00  0.00     0.152 A 
HETATM    7  C6  UNK     1      19.188   1.201  16.054  1.00  0.00     0.223 A 
HETATM    8  C12 UNK     1      19.025   2.513  18.166  1.00  0.00     0.085 A 
HETATM    9  C13 UNK     1      19.158   0.151  19.656  1.00  0.00     0.075 A 
HETATM   10  C14 UNK     1      19.044   1.381  20.304  1.00  0.00     0.071 A 
HETATM   11  C15 UNK     1      18.979   2.560  19.560  1.00  0.00     0.074 A 
ENDROOT
BRANCH   3  12
HETATM   12  C2  UNK     1      19.493  -2.601  15.811  1.00  0.00     0.006 A 
HETATM   13  C7  UNK     1      18.376  -3.254  15.292  1.00  0.00     0.054 A 
HETATM   14  C10 UNK     1      18.487  -4.565  14.828  1.00  0.00     0.105 A 
HETATM   15  C11 UNK     1      19.716  -5.222  14.883  1.00  0.00     0.135 A 
HETATM   16  C9  UNK     1      20.834  -4.570  15.401  1.00  0.00     0.105 A 
HETATM   17  C8  UNK     1      20.723  -3.259  15.865  1.00  0.00     0.054 A 
BRANCH  14  18
HETATM   18  O3  UNK     1      17.388  -5.192  14.323  1.00  0.00    -0.353 OA
HETATM   19  C17 UNK     1      16.717  -6.114  15.181  1.00  0.00     0.210 C 
ENDBRANCH  14  18
BRANCH  15  20
HETATM   20  O4  UNK     1      19.825  -6.504  14.430  1.00  0.00    -0.351 OA
HETATM   21  C18 UNK     1      20.175  -6.679  13.059  1.00  0.00     0.210 C 
ENDBRANCH  15  20
BRANCH  16  22
HETATM   22  O2  UNK     1      22.040  -5.201  15.461  1.00  0.00    -0.353 OA
HETATM   23  C16 UNK     1      22.863  -4.920  16.591  1.00  0.00     0.210 C 
ENDBRANCH  16  22
ENDBRANCH   3  12
BRANCH   6  24
HETATM   24  O5  UNK     1      19.343  -0.276  14.099  1.00  0.00    -0.355 OA
HETATM   25  H5  UNK     1      19.074   0.562  13.691  1.00  0.00     0.218 HD
ENDBRANCH   6  24
BRANCH  10  26
HETATM   26  O8  UNK     1      18.999   1.431  21.663  1.00  0.00    -0.361 OA
HETATM   27  H16 UNK     1      18.604   0.607  21.996  1.00  0.00     0.217 HD
ENDBRANCH  10  26
BRANCH   8  28
HETATM   28  O6  UNK     1      18.957   3.693  17.489  1.00  0.00    -0.360 OA
HETATM   29  H6  UNK     1      19.339   4.411  18.017  1.00  0.00     0.217 HD
ENDBRANCH   8  28
TORSDOF 7
ENDMDL
MODEL 3
REMARK VINA RESULT:      -8.5     14.789     18.401
REMARK  7 active torsions:
REMARK  status: ('A' for Active; 'I' for Inactive)
REMARK    1  A    between atoms: C9_17  and  O2_2 
REMARK    2  A    between atoms: C10_18  and  O3_3 
REMARK    3  A    between atoms: C11_19  and  O4_4 
REMARK    4  A    between atoms: C5_13  and  O5_5 
REMARK    5  A    between atoms: C12_20  and  O6_6 
REMARK    6  A    between atoms: C14_22  and  O8_8 
REMARK    7  A    between atoms: C1_9  and  C2_10 
ROOT
HETATM    1  O1  UNK     1      18.065   2.987  33.061  1.00  0.00    -0.306 OA
HETATM    2  O7  UNK     1      19.379   1.406  29.542  1.00  0.00    -0.284 OA
HETATM    3  C1  UNK     1      18.260   3.779  31.939  1.00  0.00     0.123 A 
HETATM    4  C3  UNK     1      18.758   1.039  31.788  1.00  0.00     0.084 A 
HETATM    5  C4  UNK     1      18.311   1.642  32.961  1.00  0.00     0.096 A 
HETATM    6  C5  UNK     1      18.698   3.325  30.752  1.00  0.00     0.152 A 
HETATM    7  C6  UNK     1      18.981   1.877  30.599  1.00  0.00     0.223 A 
HETATM    8  C12 UNK     1      18.993  -0.336  31.746  1.00  0.00     0.085 A 
HETATM    9  C13 UNK     1      18.094   0.869  34.103  1.00  0.00     0.075 A 
HETATM   10  C14 UNK     1      18.328  -0.505  34.065  1.00  0.00     0.071 A 
HETATM   11  C15 UNK     1      18.776  -1.107  32.888  1.00  0.00     0.074 A 
ENDROOT
BRANCH   3  12
HETATM   12  C2  UNK     1      17.961   5.201  32.182  1.00  0.00     0.006 A 
HETATM   13  C7  UNK     1      18.873   5.998  32.874  1.00  0.00     0.054 A 
HETATM   14  C10 UNK     1      18.589   7.345  33.104  1.00  0.00     0.105 A 
HETATM   15  C11 UNK     1      17.393   7.894  32.642  1.00  0.00     0.135 A 
HETATM   16  C9  UNK     1      16.481   7.098  31.950  1.00  0.00     0.105 A 
HETATM   17  C8  UNK     1      16.764   5.751  31.720  1.00  0.00     0.054 A 
BRANCH  14  18
HETATM   18  O3  UNK     1      19.489   8.112  33.781  1.00  0.00    -0.353 OA
HETATM   19  C17 UNK     1      19.543   7.949  35.197  1.00  0.00     0.210 C 
ENDBRANCH  14  18
BRANCH  15  20
HETATM   20  O4  UNK     1      17.116   9.210  32.867  1.00  0.00    -0.351 OA
HETATM   21  C18 UNK     1      16.389   9.525  34.052  1.00  0.00     0.210 C 
ENDBRANCH  15  20
BRANCH  16  22
HETATM   22  O2  UNK     1      15.309   7.623  31.494  1.00  0.00    -0.353 OA
HETATM   23  C16 UNK     1      14.111   7.184  32.132  1.00  0.00     0.210 C 
ENDBRANCH  16  22
ENDBRANCH   3  12
BRANCH   6  24
HETATM   24  O5  UNK     1      18.913   4.145  29.665  1.00  0.00    -0.355 OA
HETATM   25  H5  UNK     1      19.865   4.240  29.507  1.00  0.00     0.218 HD
ENDBRANCH   6  24
BRANCH  10  26
HETATM   26  O8  UNK     1      18.117  -1.261  35.177  1.00  0.00    -0.361 OA
HETATM   27  H16 UNK     1      18.863  -1.137  35.789  1.00  0.00     0.217 HD
ENDBRANCH  10  26
BRANCH   8  28
HETATM   28  O6  UNK     1      19.432  -0.973  30.625  1.00  0.00    -0.360 OA
HETATM   29  H6  UNK     1      20.395  -1.078  30.647  1.00  0.00     0.217 HD
ENDBRANCH   8  28
TORSDOF 7
ENDMDL
MODEL 4
REMARK VINA RESULT:      -8.5     14.793     18.550
REMARK  7 active torsions:
REMARK  status: ('A' for Active; 'I' for Inactive)
REMARK    1  A    between atoms: C9_17  and  O2_2 
REMARK    2  A    between atoms: C10_18  and  O3_3 
REMARK    3  A    between atoms: C11_19  and  O4_4 
REMARK    4  A    between atoms: C5_13  and  O5_5 
REMARK    5  A    between atoms: C12_20  and  O6_6 
REMARK    6  A    between atoms: C14_22  and  O8_8 
REMARK    7  A    between atoms: C1_9  and  C2_10 
ROOT
HETATM    1  O1  UNK     1      18.060   2.979  33.063  1.00  0.00    -0.306 OA
HETATM    2  O7  UNK     1      19.389   1.396  29.551  1.00  0.00    -0.284 OA
HETATM    3  C1  UNK     1      18.261   3.770  31.942  1.00  0.00     0.123 A 
HETATM    4  C3  UNK     1      18.758   1.031  31.794  1.00  0.00     0.084 A 
HETATM    5  C4  UNK     1      18.305   1.634  32.965  1.00  0.00     0.096 A 
HETATM    6  C5  UNK     1      18.704   3.316  30.757  1.00  0.00     0.152 A 
HETATM    7  C6  UNK     1      18.986   1.867  30.606  1.00  0.00     0.223 A 
HETATM    8  C12 UNK     1      18.992  -0.345  31.754  1.00  0.00     0.085 A 
HETATM    9  C13 UNK     1      18.083   0.862  34.106  1.00  0.00     0.075 A 
HETATM   10  C14 UNK     1      18.316  -0.513  34.070  1.00  0.00     0.071 A 
HETATM   11  C15 UNK     1      18.768  -1.115  32.896  1.00  0.00     0.074 A 
ENDROOT
BRANCH   3  12
HETATM   12  C2  UNK     1      17.961   5.193  32.183  1.00  0.00     0.006 A 
HETATM   13  C7  UNK     1      16.767   5.744  31.718  1.00  0.00     0.054 A 
HETATM   14  C10 UNK     1      16.484   7.091  31.946  1.00  0.00     0.105 A 
HETATM   15  C11 UNK     1      17.396   7.887  32.639  1.00  0.00     0.135 A 
HETATM   16  C9  UNK     1      18.590   7.338  33.104  1.00  0.00     0.105 A 
HETATM   17  C8  UNK     1      18.873   5.991  32.876  1.00  0.00     0.054 A 
BRANCH  14  18
HETATM   18  O3  UNK     1      15.313   7.616  31.487  1.00  0.00    -0.353 OA
HETATM   19  C17 UNK     1      14.114   7.182  32.126  1.00  0.00     0.210 C 
ENDBRANCH  14  18
BRANCH  15  20
HETATM   20  O4  UNK     1      17.119   9.204  32.861  1.00  0.00    -0.351 OA
HETATM   21  C18 UNK     1      16.386   9.522  34.042  1.00  0.00     0.210 C 
ENDBRANCH  15  20
BRANCH  16  22
HETATM   22  O2  UNK     1      19.489   8.105  33.781  1.00  0.00    -0.353 OA
HETATM   23  C16 UNK     1      19.534   7.952  35.198  1.00  0.00     0.210 C 
ENDBRANCH  16  22
ENDBRANCH   3  12
BRANCH   6  24
HETATM   24  O5  UNK     1      18.924   4.135  29.670  1.00  0.00    -0.355 OA
HETATM   25  H5  UNK     1      18.081   4.494  29.352  1.00  0.00     0.218 HD
ENDBRANCH   6  24
BRANCH  10  26
HETATM   26  O8  UNK     1      18.099  -1.268  35.182  1.00  0.00    -0.361 OA
HETATM   27  H16 UNK     1      18.015  -0.678  35.951  1.00  0.00     0.217 HD
ENDBRANCH  10  26
BRANCH   8  28
HETATM   28  O6  UNK     1      19.435  -0.983  30.635  1.00  0.00    -0.360 OA
HETATM   29  H6  UNK     1      19.801  -0.346  30.003  1.00  0.00     0.217 HD
ENDBRANCH   8  28
TORSDOF 7
ENDMDL
MODEL 5
REMARK VINA RESULT:      -8.4     13.494     17.722
REMARK  7 active torsions:
REMARK  status: ('A' for Active; 'I' for Inactive)
REMARK    1  A    between atoms: C9_17  and  O2_2 
REMARK    2  A    between atoms: C10_18  and  O3_3 
REMARK    3  A    between atoms: C11_19  and  O4_4 
REMARK    4  A    between atoms: C5_13  and  O5_5 
REMARK    5  A    between atoms: C12_20  and  O6_6 
REMARK    6  A    between atoms: C14_22  and  O8_8 
REMARK    7  A    between atoms: C1_9  and  C2_10 
ROOT
HETATM    1  O1  UNK     1      16.646   5.821  32.461  1.00  0.00    -0.306 OA
HETATM    2  O7  UNK     1      19.435   8.525  33.693  1.00  0.00    -0.284 OA
HETATM    3  C1  UNK     1      17.977   5.466  32.621  1.00  0.00     0.123 A 
HETATM    4  C3  UNK     1      17.179   8.081  33.170  1.00  0.00     0.084 A 
HETATM    5  C4  UNK     1      16.276   7.110  32.743  1.00  0.00     0.096 A 
HETATM    6  C5  UNK     1      18.949   6.308  33.016  1.00  0.00     0.152 A 
HETATM    7  C6  UNK     1      18.595   7.714  33.327  1.00  0.00     0.223 A 
HETATM    8  C12 UNK     1      16.743   9.379  33.440  1.00  0.00     0.085 A 
HETATM    9  C13 UNK     1      14.927   7.433  32.584  1.00  0.00     0.075 A 
HETATM   10  C14 UNK     1      14.489   8.730  32.853  1.00  0.00     0.071 A 
HETATM   11  C15 UNK     1      15.395   9.700  33.281  1.00  0.00     0.074 A 
ENDROOT
BRANCH   3  12
HETATM   12  C2  UNK     1      18.240   4.055  32.286  1.00  0.00     0.006 A 
HETATM   13  C7  UNK     1      18.484   3.686  30.963  1.00  0.00     0.054 A 
HETATM   14  C10 UNK     1      18.733   2.350  30.646  1.00  0.00     0.105 A 
HETATM   15  C11 UNK     1      18.737   1.384  31.651  1.00  0.00     0.135 A 
HETATM   16  C9  UNK     1      18.492   1.752  32.974  1.00  0.00     0.105 A 
HETATM   17  C8  UNK     1      18.243   3.088  33.291  1.00  0.00     0.054 A 
BRANCH  14  18
HETATM   18  O3  UNK     1      18.970   2.004  29.349  1.00  0.00    -0.353 OA
HETATM   19  C17 UNK     1      17.835   1.696  28.543  1.00  0.00     0.210 C 
ENDBRANCH  14  18
BRANCH  15  20
HETATM   20  O4  UNK     1      18.979   0.078  31.341  1.00  0.00    -0.351 OA
HETATM   21  C18 UNK     1      20.334  -0.288  31.093  1.00  0.00     0.210 C 
ENDBRANCH  15  20
BRANCH  16  22
HETATM   22  O2  UNK     1      18.492   0.817  33.965  1.00  0.00    -0.353 OA
HETATM   23  C16 UNK     1      18.614   1.293  35.304  1.00  0.00     0.210 C 
ENDBRANCH  16  22
ENDBRANCH   3  12
BRANCH   6  24
HETATM   24  O5  UNK     1      20.270   5.931  33.133  1.00  0.00    -0.355 OA
HETATM   25  H5  UNK     1      20.700   5.965  32.264  1.00  0.00     0.218 HD
ENDBRANCH   6  24
BRANCH  10  26
HETATM   26  O8  UNK     1      13.174   9.047  32.699  1.00  0.00    -0.361 OA
HETATM   27  H16 UNK     1      13.020   9.937  33.061  1.00  0.00     0.217 HD
ENDBRANCH  10  26
BRANCH   8  28
HETATM   28  O6  UNK     1      17.585  10.365  33.859  1.00  0.00    -0.360 OA
HETATM   29  H6  UNK     1      17.103  11.027  34.377  1.00  0.00     0.217 HD
ENDBRANCH   8  28
TORSDOF 7
ENDMDL
MODEL 6
REMARK VINA RESULT:      -8.4     13.450     17.646
REMARK  7 active torsions:
REMARK  status: ('A' for Active; 'I' for Inactive)
REMARK    1  A    between atoms: C9_17  and  O2_2 
REMARK    2  A    between atoms: C10_18  and  O3_3 
REMARK    3  A    between atoms: C11_19  and  O4_4 
REMARK    4  A    between atoms: C5_13  and  O5_5 
REMARK    5  A    between atoms: C12_20  and  O6_6 
REMARK    6  A    between atoms: C14_22  and  O8_8 
REMARK    7  A    between atoms: C1_9  and  C2_10 
ROOT
HETATM    1  O1  UNK     1      16.622   5.816  32.429  1.00  0.00    -0.306 OA
HETATM    2  O7  UNK     1      19.397   8.524  33.686  1.00  0.00    -0.284 OA
HETATM    3  C1  UNK     1      17.954   5.466  32.590  1.00  0.00     0.123 A 
HETATM    4  C3  UNK     1      17.143   8.074  33.155  1.00  0.00     0.084 A 
HETATM    5  C4  UNK     1      16.245   7.102  32.719  1.00  0.00     0.096 A 
HETATM    6  C5  UNK     1      18.921   6.310  32.993  1.00  0.00     0.152 A 
HETATM    7  C6  UNK     1      18.560   7.712  33.313  1.00  0.00     0.223 A 
HETATM    8  C12 UNK     1      16.701   9.368  33.433  1.00  0.00     0.085 A 
HETATM    9  C13 UNK     1      14.896   7.420  32.559  1.00  0.00     0.075 A 
HETATM   10  C14 UNK     1      14.451   8.713  32.836  1.00  0.00     0.071 A 
HETATM   11  C15 UNK     1      15.352   9.684  33.273  1.00  0.00     0.074 A 
ENDROOT
BRANCH   3  12
HETATM   12  C2  UNK     1      18.224   4.059  32.245  1.00  0.00     0.006 A 
HETATM   13  C7  UNK     1      18.235   3.085  33.244  1.00  0.00     0.054 A 
HETATM   14  C10 UNK     1      18.490   1.753  32.917  1.00  0.00     0.105 A 
HETATM   15  C11 UNK     1      18.734   1.395  31.591  1.00  0.00     0.135 A 
HETATM   16  C9  UNK     1      18.724   2.368  30.592  1.00  0.00     0.105 A 
HETATM   17  C8  UNK     1      18.469   3.700  30.919  1.00  0.00     0.054 A 
BRANCH  14  18
HETATM   18  O3  UNK     1      18.498   0.812  33.902  1.00  0.00    -0.353 OA
HETATM   19  C17 UNK     1      17.482   0.909  34.898  1.00  0.00     0.210 C 
ENDBRANCH  14  18
BRANCH  15  20
HETATM   20  O4  UNK     1      18.985   0.093  31.272  1.00  0.00    -0.351 OA
HETATM   21  C18 UNK     1      20.344  -0.266  31.035  1.00  0.00     0.210 C 
ENDBRANCH  15  20
BRANCH  16  22
HETATM   22  O2  UNK     1      18.961   2.031  29.294  1.00  0.00    -0.353 OA
HETATM   23  C16 UNK     1      17.828   1.705  28.491  1.00  0.00     0.210 C 
ENDBRANCH  16  22
ENDBRANCH   3  12
BRANCH   6  24
HETATM   24  O5  UNK     1      20.244   5.938  33.110  1.00  0.00    -0.355 OA
HETATM   25  H5  UNK     1      20.384   5.480  33.954  1.00  0.00     0.218 HD
ENDBRANCH   6  24
BRANCH  10  26
HETATM   26  O8  UNK     1      13.135   9.026  32.682  1.00  0.00    -0.361 OA
HETATM   27  H16 UNK     1      12.604   8.220  32.800  1.00  0.00     0.217 HD
ENDBRANCH  10  26
BRANCH   8  28
HETATM   28  O6  UNK     1      17.538  10.354  33.861  1.00  0.00    -0.360 OA
HETATM   29  H6  UNK     1      18.238  10.512  33.210  1.00  0.00     0.217 HD
ENDBRANCH   8  28
TORSDOF 7
ENDMDL
MODEL 7
REMARK VINA RESULT:      -8.0     13.768     16.292
REMARK  7 active torsions:
REMARK  status: ('A' for Active; 'I' for Inactive)
REMARK    1  A    between atoms: C9_17  and  O2_2 
REMARK    2  A    between atoms: C10_18  and  O3_3 
REMARK    3  A    between atoms: C11_19  and  O4_4 
REMARK    4  A    between atoms: C5_13  and  O5_5 
REMARK    5  A    between atoms: C12_20  and  O6_6 
REMARK    6  A    between atoms: C14_22  and  O8_8 
REMARK    7  A    between atoms: C1_9  and  C2_10 
ROOT
HETATM    1  O1  UNK     1       9.683   5.634   9.722  1.00  0.00    -0.306 OA
HETATM    2  O7  UNK     1       9.609   6.788   5.815  1.00  0.00    -0.284 OA
HETATM    3  C1  UNK     1       8.512   6.065   9.117  1.00  0.00     0.123 A 
HETATM    4  C3  UNK     1      10.869   5.965   7.631  1.00  0.00     0.084 A 
HETATM    5  C4  UNK     1      10.828   5.587   8.971  1.00  0.00     0.096 A 
HETATM    6  C5  UNK     1       8.418   6.466   7.837  1.00  0.00     0.152 A 
HETATM    7  C6  UNK     1       9.634   6.437   6.987  1.00  0.00     0.223 A 
HETATM    8  C12 UNK     1      12.066   5.897   6.915  1.00  0.00     0.085 A 
HETATM    9  C13 UNK     1      11.987   5.138   9.605  1.00  0.00     0.075 A 
HETATM   10  C14 UNK     1      13.185   5.069   8.893  1.00  0.00     0.071 A 
HETATM   11  C15 UNK     1      13.224   5.447   7.551  1.00  0.00     0.074 A 
ENDROOT
BRANCH   3  12
HETATM   12  C2  UNK     1       7.359   6.067  10.034  1.00  0.00     0.006 A 
HETATM   13  C7  UNK     1       6.610   4.905  10.218  1.00  0.00     0.054 A 
HETATM   14  C10 UNK     1       5.518   4.908  11.086  1.00  0.00     0.105 A 
HETATM   15  C11 UNK     1       5.175   6.073  11.771  1.00  0.00     0.135 A 
HETATM   16  C9  UNK     1       5.922   7.236  11.588  1.00  0.00     0.105 A 
HETATM   17  C8  UNK     1       7.014   7.233  10.719  1.00  0.00     0.054 A 
BRANCH  14  18
HETATM   18  O3  UNK     1       4.796   3.765  11.256  1.00  0.00    -0.353 OA
HETATM   19  C17 UNK     1       5.529   2.562  11.480  1.00  0.00     0.210 C 
ENDBRANCH  14  18
BRANCH  15  20
HETATM   20  O4  UNK     1       4.107   6.076  12.619  1.00  0.00    -0.351 OA
HETATM   21  C18 UNK     1       4.354   5.702  13.972  1.00  0.00     0.210 C 
ENDBRANCH  15  20
BRANCH  16  22
HETATM   22  O2  UNK     1       5.597   8.381  12.250  1.00  0.00    -0.353 OA
HETATM   23  C16 UNK     1       4.812   9.339  11.541  1.00  0.00     0.210 C 
ENDBRANCH  16  22
ENDBRANCH   3  12
BRANCH   6  24
HETATM   24  O5  UNK     1       7.245   6.921   7.274  1.00  0.00    -0.355 OA
HETATM   25  H5  UNK     1       6.908   6.268   6.641  1.00  0.00     0.218 HD
ENDBRANCH   6  24
BRANCH  10  26
HETATM   26  O8  UNK     1      14.317   4.630   9.509  1.00  0.00    -0.361 OA
HETATM   27  H16 UNK     1      14.070   4.160  10.324  1.00  0.00     0.217 HD
ENDBRANCH  10  26
BRANCH   8  28
HETATM   28  O6  UNK     1      12.160   6.255   5.604  1.00  0.00    -0.360 OA
HETATM   29  H6  UNK     1      13.028   6.013   5.247  1.00  0.00     0.217 HD
ENDBRANCH   8  28
TORSDOF 7
ENDMDL
MODEL 8
REMARK VINA RESULT:      -7.9     13.748     16.247
REMARK  7 active torsions:
REMARK  status: ('A' for Active; 'I' for Inactive)
REMARK    1  A    between atoms: C9_17  and  O2_2 
REMARK    2  A    between atoms: C10_18  and  O3_3 
REMARK    3  A    between atoms: C11_19  and  O4_4 
REMARK    4  A    between atoms: C5_13  and  O5_5 
REMARK    5  A    between atoms: C12_20  and  O6_6 
REMARK    6  A    between atoms: C14_22  and  O8_8 
REMARK    7  A    between atoms: C1_9  and  C2_10 
ROOT
HETATM    1  O1  UNK     1       9.707   5.637   9.722  1.00  0.00    -0.306 OA
HETATM    2  O7  UNK     1       9.616   6.779   5.811  1.00  0.00    -0.284 OA
HETATM    3  C1  UNK     1       8.533   6.062   9.119  1.00  0.00     0.123 A 
HETATM    4  C3  UNK     1      10.885   5.966   7.626  1.00  0.00     0.084 A 
HETATM    5  C4  UNK     1      10.850   5.592   8.967  1.00  0.00     0.096 A 
HETATM    6  C5  UNK     1       8.434   6.459   7.839  1.00  0.00     0.152 A 
HETATM    7  C6  UNK     1       9.646   6.432   6.984  1.00  0.00     0.223 A 
HETATM    8  C12 UNK     1      12.080   5.900   6.907  1.00  0.00     0.085 A 
HETATM    9  C13 UNK     1      12.012   5.148   9.599  1.00  0.00     0.075 A 
HETATM   10  C14 UNK     1      13.208   5.082   8.884  1.00  0.00     0.071 A 
HETATM   11  C15 UNK     1      13.241   5.456   7.540  1.00  0.00     0.074 A 
ENDROOT
BRANCH   3  12
HETATM   12  C2  UNK     1       7.382   6.063  10.040  1.00  0.00     0.006 A 
HETATM   13  C7  UNK     1       7.044   7.225  10.734  1.00  0.00     0.054 A 
HETATM   14  C10 UNK     1       5.955   7.226  11.606  1.00  0.00     0.105 A 
HETATM   15  C11 UNK     1       5.203   6.064  11.783  1.00  0.00     0.135 A 
HETATM   16  C9  UNK     1       5.540   4.902  11.090  1.00  0.00     0.105 A 
HETATM   17  C8  UNK     1       6.630   4.901  10.218  1.00  0.00     0.054 A 
BRANCH  14  18
HETATM   18  O3  UNK     1       5.636   8.368  12.277  1.00  0.00    -0.353 OA
HETATM   19  C17 UNK     1       4.820   9.315  11.592  1.00  0.00     0.210 C 
ENDBRANCH  14  18
BRANCH  15  20
HETATM   20  O4  UNK     1       4.139   6.065  12.636  1.00  0.00    -0.351 OA
HETATM   21  C18 UNK     1       4.393   5.693  13.988  1.00  0.00     0.210 C 
ENDBRANCH  15  20
BRANCH  16  22
HETATM   22  O2  UNK     1       4.814   3.761  11.255  1.00  0.00    -0.353 OA
HETATM   23  C16 UNK     1       5.538   2.572  11.562  1.00  0.00     0.210 C 
ENDBRANCH  16  22
ENDBRANCH   3  12
BRANCH   6  24
HETATM   24  O5  UNK     1       7.257   6.908   7.278  1.00  0.00    -0.355 OA
HETATM   25  H5  UNK     1       6.612   7.101   7.977  1.00  0.00     0.218 HD
ENDBRANCH   6  24
BRANCH  10  26
HETATM   26  O8  UNK     1      14.343   4.649   9.498  1.00  0.00    -0.361 OA
HETATM   27  H16 UNK     1      14.858   4.115   8.868  1.00  0.00     0.217 HD
ENDBRANCH  10  26
BRANCH   8  28
HETATM   28  O6  UNK     1      12.169   6.255   5.595  1.00  0.00    -0.360 OA
HETATM   29  H6  UNK     1      12.265   7.216   5.508  1.00  0.00     0.217 HD
ENDBRANCH   8  28
TORSDOF 7
ENDMDL
MODEL 9
REMARK VINA RESULT:      -7.8     13.239     18.653
REMARK  7 active torsions:
REMARK  status: ('A' for Active; 'I' for Inactive)
REMARK    1  A    between atoms: C9_17  and  O2_2 
REMARK    2  A    between atoms: C10_18  and  O3_3 
REMARK    3  A    between atoms: C11_19  and  O4_4 
REMARK    4  A    between atoms: C5_13  and  O5_5 
REMARK    5  A    between atoms: C12_20  and  O6_6 
REMARK    6  A    between atoms: C14_22  and  O8_8 
REMARK    7  A    between atoms: C1_9  and  C2_10 
ROOT
HETATM    1  O1  UNK     1      18.462   3.391  31.109  1.00  0.00    -0.306 OA
HETATM    2  O7  UNK     1      18.702   0.842  34.280  1.00  0.00    -0.284 OA
HETATM    3  C1  UNK     1      18.238   3.826  32.407  1.00  0.00     0.123 A 
HETATM    4  C3  UNK     1      18.885   1.153  31.949  1.00  0.00     0.084 A 
HETATM    5  C4  UNK     1      18.784   2.074  30.909  1.00  0.00     0.096 A 
HETATM    6  C5  UNK     1      18.293   3.039  33.496  1.00  0.00     0.152 A 
HETATM    7  C6  UNK     1      18.634   1.606  33.326  1.00  0.00     0.223 A 
HETATM    8  C12 UNK     1      19.216  -0.177  31.684  1.00  0.00     0.085 A 
HETATM    9  C13 UNK     1      19.016   1.669  29.594  1.00  0.00     0.075 A 
HETATM   10  C14 UNK     1      19.346   0.341  29.325  1.00  0.00     0.071 A 
HETATM   11  C15 UNK     1      19.447  -0.580  30.368  1.00  0.00     0.074 A 
ENDROOT
BRANCH   3  12
HETATM   12  C2  UNK     1      17.900   5.259  32.481  1.00  0.00     0.006 A 
HETATM   13  C7  UNK     1      16.696   5.721  31.949  1.00  0.00     0.054 A 
HETATM   14  C10 UNK     1      16.377   7.078  32.020  1.00  0.00     0.105 A 
HETATM   15  C11 UNK     1      17.262   7.972  32.623  1.00  0.00     0.135 A 
HETATM   16  C9  UNK     1      18.466   7.510  33.155  1.00  0.00     0.105 A 
HETATM   17  C8  UNK     1      18.785   6.154  33.084  1.00  0.00     0.054 A 
BRANCH  14  18
HETATM   18  O3  UNK     1      15.198   7.516  31.497  1.00  0.00    -0.353 OA
HETATM   19  C17 UNK     1      14.009   7.179  32.208  1.00  0.00     0.210 C 
ENDBRANCH  14  18
BRANCH  15  20
HETATM   20  O4  UNK     1      16.950   9.297  32.692  1.00  0.00    -0.351 OA
HETATM   21  C18 UNK     1      16.282   9.746  33.869  1.00  0.00     0.210 C 
ENDBRANCH  15  20
BRANCH  16  22
HETATM   22  O2  UNK     1      19.338   8.374  33.746  1.00  0.00    -0.353 OA
HETATM   23  C16 UNK     1      19.687   8.114  35.104  1.00  0.00     0.210 C 
ENDBRANCH  16  22
ENDBRANCH   3  12
BRANCH   6  24
HETATM   24  O5  UNK     1      18.032   3.497  34.769  1.00  0.00    -0.355 OA
HETATM   25  H5  UNK     1      18.493   2.944  35.419  1.00  0.00     0.218 HD
ENDBRANCH   6  24
BRANCH  10  26
HETATM   26  O8  UNK     1      19.573  -0.057  28.043  1.00  0.00    -0.361 OA
HETATM   27  H16 UNK     1      19.489  -1.025  27.993  1.00  0.00     0.217 HD
ENDBRANCH  10  26
BRANCH   8  28
HETATM   28  O6  UNK     1      19.326  -1.116  32.664  1.00  0.00    -0.360 OA
HETATM   29  H6  UNK     1      19.936  -1.820  32.394  1.00  0.00     0.217 HD
ENDBRANCH   8  28
TORSDOF 7
ENDMDL
MODEL 10
REMARK VINA RESULT:      -7.8     13.319     18.523
REMARK  7 active torsions:
REMARK  status: ('A' for Active; 'I' for Inactive)
REMARK    1  A    between atoms: C9_17  and  O2_2 
REMARK    2  A    between atoms: C10_18  and  O3_3 
REMARK    3  A    between atoms: C11_19  and  O4_4 
REMARK    4  A    between atoms: C5_13  and  O5_5 
REMARK    5  A    between atoms: C12_20  and  O6_6 
REMARK    6  A    between atoms: C14_22  and  O8_8 
REMARK    7  A    between atoms: C1_9  and  C2_10 
ROOT
HETATM    1  O1  UNK     1      18.484   3.361  31.155  1.00  0.00    -0.306 OA
HETATM    2  O7  UNK     1      18.661   0.843  34.355  1.00  0.00    -0.284 OA
HETATM    3  C1  UNK     1      18.242   3.810  32.444  1.00  0.00     0.123 A 
HETATM    4  C3  UNK     1      18.883   1.129  32.024  1.00  0.00     0.084 A 
HETATM    5  C4  UNK     1      18.803   2.040  30.973  1.00  0.00     0.096 A 
HETATM    6  C5  UNK     1      18.276   3.034  33.542  1.00  0.00     0.152 A 
HETATM    7  C6  UNK     1      18.613   1.597  33.392  1.00  0.00     0.223 A 
HETATM    8  C12 UNK     1      19.211  -0.205  31.778  1.00  0.00     0.085 A 
HETATM    9  C13 UNK     1      19.053   1.620  29.666  1.00  0.00     0.075 A 
HETATM   10  C14 UNK     1      19.381   0.288  29.416  1.00  0.00     0.071 A 
HETATM   11  C15 UNK     1      19.461  -0.623  30.470  1.00  0.00     0.074 A 
ENDROOT
BRANCH   3  12
HETATM   12  C2  UNK     1      17.911   5.245  32.499  1.00  0.00     0.006 A 
HETATM   13  C7  UNK     1      18.798   6.145  33.091  1.00  0.00     0.054 A 
HETATM   14  C10 UNK     1      18.484   7.503  33.142  1.00  0.00     0.105 A 
HETATM   15  C11 UNK     1      17.282   7.962  32.603  1.00  0.00     0.135 A 
HETATM   16  C9  UNK     1      16.395   7.063  32.011  1.00  0.00     0.105 A 
HETATM   17  C8  UNK     1      16.709   5.705  31.959  1.00  0.00     0.054 A 
BRANCH  14  18
HETATM   18  O3  UNK     1      19.360   8.370  33.723  1.00  0.00    -0.353 OA
HETATM   19  C17 UNK     1      19.662   8.161  35.101  1.00  0.00     0.210 C 
ENDBRANCH  14  18
BRANCH  15  20
HETATM   20  O4  UNK     1      16.975   9.289  32.654  1.00  0.00    -0.351 OA
HETATM   21  C18 UNK     1      16.306   9.754  33.824  1.00  0.00     0.210 C 
ENDBRANCH  15  20
BRANCH  16  22
HETATM   22  O2  UNK     1      15.218   7.499  31.481  1.00  0.00    -0.353 OA
HETATM   23  C16 UNK     1      14.028   7.185  32.201  1.00  0.00     0.210 C 
ENDBRANCH  16  22
ENDBRANCH   3  12
BRANCH   6  24
HETATM   24  O5  UNK     1      17.997   3.506  34.807  1.00  0.00    -0.355 OA
HETATM   25  H5  UNK     1      17.040   3.618  34.913  1.00  0.00     0.218 HD
ENDBRANCH   6  24
BRANCH  10  26
HETATM   26  O8  UNK     1      19.626  -0.124  28.142  1.00  0.00    -0.361 OA
HETATM   27  H16 UNK     1      19.065   0.387  27.533  1.00  0.00     0.217 HD
ENDBRANCH  10  26
BRANCH   8  28
HETATM   28  O6  UNK     1      19.301  -1.135  32.769  1.00  0.00    -0.360 OA
HETATM   29  H6  UNK     1      18.465  -1.196  33.255  1.00  0.00     0.217 HD
ENDBRANCH   8  28
TORSDOF 7
ENDMDL
