MODEL 1
REMARK VINA RESULT:      -6.8      0.000      0.000
REMARK  4 active torsions:
REMARK  status: ('A' for Active; 'I' for Inactive)
REMARK    1  A    between atoms: C6_8  and  O1_1 
REMARK    2  A    between atoms: C1_3  and  C5_7 
REMARK    3  A    between atoms: C4_6  and  C9_11 
REMARK    4  A    between atoms: C10_12  and  C5_7 
ROOT
HETATM    1  O2  UNK     1      19.148   5.891  34.743  1.00  0.00    -0.288 OA
HETATM    2  C5  UNK     1      19.159   6.465  33.661  1.00  0.00     0.182 C 
ENDROOT
BRANCH   2   3
HETATM    3  C1  UNK     1      19.026   5.680  32.409  1.00  0.00     0.014 A 
HETATM    4  C2  UNK     1      19.684   6.114  31.276  1.00  0.00     0.018 A 
HETATM    5  C7  UNK     1      19.560   5.375  30.099  1.00  0.00     0.037 A 
HETATM    6  C6  UNK     1      18.781   4.219  30.081  1.00  0.00     0.068 A 
HETATM    7  C8  UNK     1      18.127   3.800  31.238  1.00  0.00     0.037 A 
HETATM    8  C3  UNK     1      18.250   4.538  32.415  1.00  0.00     0.018 A 
BRANCH   6   9
HETATM    9  O1  UNK     1      18.662   3.497  28.933  1.00  0.00    -0.356 OA
HETATM   10  C16 UNK     1      18.085   2.195  29.041  1.00  0.00     0.210 C 
ENDBRANCH   6   9
ENDBRANCH   2   3
BRANCH   2  11
HETATM   11  C10 UNK     1      19.270   7.946  33.539  1.00  0.00     0.056 C 
HETATM   12  C9  UNK     1      18.169   8.696  33.312  1.00  0.00     0.015 C 
BRANCH  12  13
HETATM   13  C4  UNK     1      16.817   8.179  33.167  1.00  0.00    -0.036 A 
HETATM   14  C11 UNK     1      16.018   7.991  34.295  1.00  0.00     0.011 A 
HETATM   15  C13 UNK     1      14.721   7.495  34.155  1.00  0.00     0.001 A 
HETATM   16  C15 UNK     1      14.224   7.188  32.889  1.00  0.00     0.000 A 
HETATM   17  C14 UNK     1      15.024   7.376  31.761  1.00  0.00     0.001 A 
HETATM   18  C12 UNK     1      16.320   7.871  31.901  1.00  0.00     0.011 A 
ENDBRANCH  12  13
ENDBRANCH   2  11
TORSDOF 4
ENDMDL
MODEL 2
REMARK VINA RESULT:      -6.7      2.798      5.025
REMARK  4 active torsions:
REMARK  status: ('A' for Active; 'I' for Inactive)
REMARK    1  A    between atoms: C6_8  and  O1_1 
REMARK    2  A    between atoms: C1_3  and  C5_7 
REMARK    3  A    between atoms: C4_6  and  C9_11 
REMARK    4  A    between atoms: C10_12  and  C5_7 
ROOT
HETATM    1  O2  UNK     1      17.802   3.528  31.675  1.00  0.00    -0.288 OA
HETATM    2  C5  UNK     1      18.411   3.192  30.665  1.00  0.00     0.182 C 
ENDROOT
BRANCH   2   3
HETATM    3  C1  UNK     1      18.938   1.811  30.547  1.00  0.00     0.014 A 
HETATM    4  C2  UNK     1      18.992   1.018  31.676  1.00  0.00     0.018 A 
HETATM    5  C7  UNK     1      19.486  -0.282  31.567  1.00  0.00     0.037 A 
HETATM    6  C6  UNK     1      19.915  -0.761  30.329  1.00  0.00     0.068 A 
HETATM    7  C8  UNK     1      19.850   0.057  29.203  1.00  0.00     0.037 A 
HETATM    8  C3  UNK     1      19.356   1.357  29.312  1.00  0.00     0.018 A 
BRANCH   6   9
HETATM    9  O1  UNK     1      20.396  -2.030  30.221  1.00  0.00    -0.356 OA
HETATM   10  C16 UNK     1      20.727  -2.705  31.435  1.00  0.00     0.210 C 
ENDBRANCH   6   9
ENDBRANCH   2   3
BRANCH   2  11
HETATM   11  C10 UNK     1      18.624   4.114  29.514  1.00  0.00     0.056 C 
HETATM   12  C9  UNK     1      19.048   5.380  29.723  1.00  0.00     0.015 C 
BRANCH  12  13
HETATM   13  C4  UNK     1      19.333   5.965  31.024  1.00  0.00    -0.036 A 
HETATM   14  C11 UNK     1      20.608   5.848  31.577  1.00  0.00     0.011 A 
HETATM   15  C13 UNK     1      20.881   6.409  32.825  1.00  0.00     0.001 A 
HETATM   16  C15 UNK     1      19.880   7.088  33.519  1.00  0.00     0.000 A 
HETATM   17  C14 UNK     1      18.604   7.204  32.965  1.00  0.00     0.001 A 
HETATM   18  C12 UNK     1      18.331   6.643  31.718  1.00  0.00     0.011 A 
ENDBRANCH  12  13
ENDBRANCH   2  11
TORSDOF 4
ENDMDL
MODEL 3
REMARK VINA RESULT:      -6.5     22.246     24.180
REMARK  4 active torsions:
REMARK  status: ('A' for Active; 'I' for Inactive)
REMARK    1  A    between atoms: C6_8  and  O1_1 
REMARK    2  A    between atoms: C1_3  and  C5_7 
REMARK    3  A    between atoms: C4_6  and  C9_11 
REMARK    4  A    between atoms: C10_12  and  C5_7 
ROOT
HETATM    1  O2  UNK     1      12.753   6.823  10.476  1.00  0.00    -0.288 OA
HETATM    2  C5  UNK     1      13.774   6.496   9.883  1.00  0.00     0.182 C 
ENDROOT
BRANCH   2   3
HETATM    3  C1  UNK     1      14.898   7.457   9.766  1.00  0.00     0.014 A 
HETATM    4  C2  UNK     1      14.668   8.685   9.179  1.00  0.00     0.018 A 
HETATM    5  C7  UNK     1      15.724   9.590   9.070  1.00  0.00     0.037 A 
HETATM    6  C6  UNK     1      16.988   9.247   9.550  1.00  0.00     0.068 A 
HETATM    7  C8  UNK     1      17.196   8.000  10.139  1.00  0.00     0.037 A 
HETATM    8  C3  UNK     1      16.140   7.095  10.249  1.00  0.00     0.018 A 
BRANCH   6   9
HETATM    9  O1  UNK     1      18.018  10.130   9.445  1.00  0.00    -0.356 OA
HETATM   10  C16 UNK     1      17.860  11.206   8.520  1.00  0.00     0.210 C 
ENDBRANCH   6   9
ENDBRANCH   2   3
BRANCH   2  11
HETATM   11  C10 UNK     1      13.958   5.141   9.290  1.00  0.00     0.056 C 
HETATM   12  C9  UNK     1      13.108   4.692   8.340  1.00  0.00     0.015 C 
BRANCH  12  13
HETATM   13  C4  UNK     1      11.974   5.433   7.810  1.00  0.00    -0.036 A 
HETATM   14  C11 UNK     1      12.129   6.224   6.672  1.00  0.00     0.011 A 
HETATM   15  C13 UNK     1      11.041   6.935   6.163  1.00  0.00     0.001 A 
HETATM   16  C15 UNK     1       9.799   6.854   6.792  1.00  0.00     0.000 A 
HETATM   17  C14 UNK     1       9.645   6.063   7.932  1.00  0.00     0.001 A 
HETATM   18  C12 UNK     1      10.733   5.353   8.440  1.00  0.00     0.011 A 
ENDBRANCH  12  13
ENDBRANCH   2  11
TORSDOF 4
ENDMDL
MODEL 4
REMARK VINA RESULT:      -6.5     22.270     24.188
REMARK  4 active torsions:
REMARK  status: ('A' for Active; 'I' for Inactive)
REMARK    1  A    between atoms: C6_8  and  O1_1 
REMARK    2  A    between atoms: C1_3  and  C5_7 
REMARK    3  A    between atoms: C4_6  and  C9_11 
REMARK    4  A    between atoms: C10_12  and  C5_7 
ROOT
HETATM    1  O2  UNK     1      12.655   6.843  10.426  1.00  0.00    -0.288 OA
HETATM    2  C5  UNK     1      13.680   6.487   9.856  1.00  0.00     0.182 C 
ENDROOT
BRANCH   2   3
HETATM    3  C1  UNK     1      14.827   7.421   9.751  1.00  0.00     0.014 A 
HETATM    4  C2  UNK     1      14.628   8.661   9.179  1.00  0.00     0.018 A 
HETATM    5  C7  UNK     1      15.706   9.541   9.081  1.00  0.00     0.037 A 
HETATM    6  C6  UNK     1      16.961   9.162   9.558  1.00  0.00     0.068 A 
HETATM    7  C8  UNK     1      17.137   7.904  10.133  1.00  0.00     0.037 A 
HETATM    8  C3  UNK     1      16.060   7.024  10.231  1.00  0.00     0.018 A 
BRANCH   6   9
HETATM    9  O1  UNK     1      18.012  10.021   9.465  1.00  0.00    -0.356 OA
HETATM   10  C16 UNK     1      17.844  11.167   8.629  1.00  0.00     0.210 C 
ENDBRANCH   6   9
ENDBRANCH   2   3
BRANCH   2  11
HETATM   11  C10 UNK     1      13.845   5.123   9.280  1.00  0.00     0.056 C 
HETATM   12  C9  UNK     1      12.999   4.680   8.323  1.00  0.00     0.015 C 
BRANCH  12  13
HETATM   13  C4  UNK     1      11.888   5.437   7.770  1.00  0.00    -0.036 A 
HETATM   14  C11 UNK     1      10.647   5.419   8.406  1.00  0.00     0.011 A 
HETATM   15  C13 UNK     1       9.580   6.147   7.875  1.00  0.00     0.001 A 
HETATM   16  C15 UNK     1       9.756   6.892   6.710  1.00  0.00     0.000 A 
HETATM   17  C14 UNK     1      10.998   6.909   6.073  1.00  0.00     0.001 A 
HETATM   18  C12 UNK     1      12.063   6.182   6.604  1.00  0.00     0.011 A 
ENDBRANCH  12  13
ENDBRANCH   2  11
TORSDOF 4
ENDMDL
MODEL 5
REMARK VINA RESULT:      -6.5     22.234     24.175
REMARK  4 active torsions:
REMARK  status: ('A' for Active; 'I' for Inactive)
REMARK    1  A    between atoms: C6_8  and  O1_1 
REMARK    2  A    between atoms: C1_3  and  C5_7 
REMARK    3  A    between atoms: C4_6  and  C9_11 
REMARK    4  A    between atoms: C10_12  and  C5_7 
ROOT
HETATM    1  O2  UNK     1      12.706   6.803  10.468  1.00  0.00    -0.288 OA
HETATM    2  C5  UNK     1      13.732   6.474   9.885  1.00  0.00     0.182 C 
ENDROOT
BRANCH   2   3
HETATM    3  C1  UNK     1      14.863   7.428   9.787  1.00  0.00     0.014 A 
HETATM    4  C2  UNK     1      16.102   7.048  10.262  1.00  0.00     0.018 A 
HETATM    5  C7  UNK     1      17.166   7.945  10.170  1.00  0.00     0.037 A 
HETATM    6  C6  UNK     1      16.968   9.204   9.604  1.00  0.00     0.068 A 
HETATM    7  C8  UNK     1      15.708   9.566   9.131  1.00  0.00     0.037 A 
HETATM    8  C3  UNK     1      14.644   8.669   9.223  1.00  0.00     0.018 A 
BRANCH   6   9
HETATM    9  O1  UNK     1      18.007  10.079   9.511  1.00  0.00    -0.356 OA
HETATM   10  C16 UNK     1      17.894  11.122   8.543  1.00  0.00     0.210 C 
ENDBRANCH   6   9
ENDBRANCH   2   3
BRANCH   2  11
HETATM   11  C10 UNK     1      13.915   5.122   9.286  1.00  0.00     0.056 C 
HETATM   12  C9  UNK     1      13.064   4.677   8.335  1.00  0.00     0.015 C 
BRANCH  12  13
HETATM   13  C4  UNK     1      11.931   5.421   7.809  1.00  0.00    -0.036 A 
HETATM   14  C11 UNK     1      12.080   6.197   6.659  1.00  0.00     0.011 A 
HETATM   15  C13 UNK     1      10.991   6.911   6.154  1.00  0.00     0.001 A 
HETATM   16  C15 UNK     1       9.756   6.847   6.798  1.00  0.00     0.000 A 
HETATM   17  C14 UNK     1       9.608   6.071   7.949  1.00  0.00     0.001 A 
HETATM   18  C12 UNK     1      10.696   5.358   8.453  1.00  0.00     0.011 A 
ENDBRANCH  12  13
ENDBRANCH   2  11
TORSDOF 4
ENDMDL
MODEL 6
REMARK VINA RESULT:      -6.4      1.928      3.606
REMARK  4 active torsions:
REMARK  status: ('A' for Active; 'I' for Inactive)
REMARK    1  A    between atoms: C6_8  and  O1_1 
REMARK    2  A    between atoms: C1_3  and  C5_7 
REMARK    3  A    between atoms: C4_6  and  C9_11 
REMARK    4  A    between atoms: C10_12  and  C5_7 
ROOT
HETATM    1  O2  UNK     1      16.045   8.774  31.224  1.00  0.00    -0.288 OA
HETATM    2  C5  UNK     1      16.224   7.845  32.004  1.00  0.00     0.182 C 
ENDROOT
BRANCH   2   3
HETATM    3  C1  UNK     1      17.111   6.721  31.620  1.00  0.00     0.014 A 
HETATM    4  C2  UNK     1      17.087   5.564  32.372  1.00  0.00     0.018 A 
HETATM    5  C7  UNK     1      17.920   4.505  32.011  1.00  0.00     0.037 A 
HETATM    6  C6  UNK     1      18.760   4.626  30.904  1.00  0.00     0.068 A 
HETATM    7  C8  UNK     1      18.766   5.804  30.159  1.00  0.00     0.037 A 
HETATM    8  C3  UNK     1      17.933   6.863  30.520  1.00  0.00     0.018 A 
BRANCH   6   9
HETATM    9  O1  UNK     1      19.571   3.592  30.550  1.00  0.00    -0.356 OA
HETATM   10  C16 UNK     1      18.938   2.381  30.138  1.00  0.00     0.210 C 
ENDBRANCH   6   9
ENDBRANCH   2   3
BRANCH   2  11
HETATM   11  C10 UNK     1      15.607   7.807  33.360  1.00  0.00     0.056 C 
HETATM   12  C9  UNK     1      16.282   8.281  34.430  1.00  0.00     0.015 C 
BRANCH  12  13
HETATM   13  C4  UNK     1      17.618   8.854  34.393  1.00  0.00    -0.036 A 
HETATM   14  C11 UNK     1      18.730   8.049  34.643  1.00  0.00     0.011 A 
HETATM   15  C13 UNK     1      20.012   8.600  34.606  1.00  0.00     0.001 A 
HETATM   16  C15 UNK     1      20.182   9.953  34.319  1.00  0.00     0.000 A 
HETATM   17  C14 UNK     1      19.069  10.759  34.069  1.00  0.00     0.001 A 
HETATM   18  C12 UNK     1      17.788  10.208  34.106  1.00  0.00     0.011 A 
ENDBRANCH  12  13
ENDBRANCH   2  11
TORSDOF 4
ENDMDL
MODEL 7
REMARK VINA RESULT:      -6.4      2.944      6.618
REMARK  4 active torsions:
REMARK  status: ('A' for Active; 'I' for Inactive)
REMARK    1  A    between atoms: C6_8  and  O1_1 
REMARK    2  A    between atoms: C1_3  and  C5_7 
REMARK    3  A    between atoms: C4_6  and  C9_11 
REMARK    4  A    between atoms: C10_12  and  C5_7 
ROOT
HETATM    1  O2  UNK     1      16.378   8.553  30.794  1.00  0.00    -0.288 OA
HETATM    2  C5  UNK     1      15.940   8.150  31.866  1.00  0.00     0.182 C 
ENDROOT
BRANCH   2   3
HETATM    3  C1  UNK     1      15.729   9.106  32.981  1.00  0.00     0.014 A 
HETATM    4  C2  UNK     1      16.812   9.807  33.473  1.00  0.00     0.018 A 
HETATM    5  C7  UNK     1      16.615  10.707  34.521  1.00  0.00     0.037 A 
HETATM    6  C6  UNK     1      15.338  10.887  35.054  1.00  0.00     0.068 A 
HETATM    7  C8  UNK     1      14.260  10.168  34.540  1.00  0.00     0.037 A 
HETATM    8  C3  UNK     1      14.457   9.268  33.492  1.00  0.00     0.018 A 
BRANCH   6   9
HETATM    9  O1  UNK     1      15.145  11.766  36.074  1.00  0.00    -0.356 OA
HETATM   10  C16 UNK     1      15.928  12.960  36.061  1.00  0.00     0.210 C 
ENDBRANCH   6   9
ENDBRANCH   2   3
BRANCH   2  11
HETATM   11  C10 UNK     1      15.572   6.726  32.099  1.00  0.00     0.056 C 
HETATM   12  C9  UNK     1      16.520   5.822  32.433  1.00  0.00     0.015 C 
BRANCH  12  13
HETATM   13  C4  UNK     1      17.935   6.114  32.599  1.00  0.00    -0.036 A 
HETATM   14  C11 UNK     1      18.409   6.601  33.817  1.00  0.00     0.011 A 
HETATM   15  C13 UNK     1      19.767   6.881  33.976  1.00  0.00     0.001 A 
HETATM   16  C15 UNK     1      20.651   6.673  32.918  1.00  0.00     0.000 A 
HETATM   17  C14 UNK     1      20.176   6.186  31.698  1.00  0.00     0.001 A 
HETATM   18  C12 UNK     1      18.819   5.907  31.540  1.00  0.00     0.011 A 
ENDBRANCH  12  13
ENDBRANCH   2  11
TORSDOF 4
ENDMDL
MODEL 8
REMARK VINA RESULT:      -6.3     21.573     24.011
REMARK  4 active torsions:
REMARK  status: ('A' for Active; 'I' for Inactive)
REMARK    1  A    between atoms: C6_8  and  O1_1 
REMARK    2  A    between atoms: C1_3  and  C5_7 
REMARK    3  A    between atoms: C4_6  and  C9_11 
REMARK    4  A    between atoms: C10_12  and  C5_7 
ROOT
HETATM    1  O2  UNK     1      16.564   5.927   8.959  1.00  0.00    -0.288 OA
HETATM    2  C5  UNK     1      15.496   6.195   9.499  1.00  0.00     0.182 C 
ENDROOT
BRANCH   2   3
HETATM    3  C1  UNK     1      14.228   6.021   8.751  1.00  0.00     0.014 A 
HETATM    4  C2  UNK     1      13.507   4.856   8.920  1.00  0.00     0.018 A 
HETATM    5  C7  UNK     1      12.313   4.691   8.217  1.00  0.00     0.037 A 
HETATM    6  C6  UNK     1      11.866   5.697   7.360  1.00  0.00     0.068 A 
HETATM    7  C8  UNK     1      12.610   6.865   7.206  1.00  0.00     0.037 A 
HETATM    8  C3  UNK     1      13.804   7.029   7.909  1.00  0.00     0.018 A 
BRANCH   6   9
HETATM    9  O1  UNK     1      10.700   5.538   6.676  1.00  0.00    -0.356 OA
HETATM   10  C16 UNK     1      10.284   6.619   5.841  1.00  0.00     0.210 C 
ENDBRANCH   6   9
ENDBRANCH   2   3
BRANCH   2  11
HETATM   11  C10 UNK     1      15.408   6.666  10.910  1.00  0.00     0.056 C 
HETATM   12  C9  UNK     1      15.590   7.972  11.205  1.00  0.00     0.015 C 
BRANCH  12  13
HETATM   13  C4  UNK     1      15.877   9.019  10.237  1.00  0.00    -0.036 A 
HETATM   14  C11 UNK     1      14.832   9.745   9.666  1.00  0.00     0.011 A 
HETATM   15  C13 UNK     1      15.108  10.750   8.737  1.00  0.00     0.001 A 
HETATM   16  C15 UNK     1      16.427  11.028   8.381  1.00  0.00     0.000 A 
HETATM   17  C14 UNK     1      17.472  10.301   8.953  1.00  0.00     0.001 A 
HETATM   18  C12 UNK     1      17.196   9.296   9.880  1.00  0.00     0.011 A 
ENDBRANCH  12  13
ENDBRANCH   2  11
TORSDOF 4
ENDMDL
MODEL 9
REMARK VINA RESULT:      -6.2      4.266      7.178
REMARK  4 active torsions:
REMARK  status: ('A' for Active; 'I' for Inactive)
REMARK    1  A    between atoms: C6_8  and  O1_1 
REMARK    2  A    between atoms: C1_3  and  C5_7 
REMARK    3  A    between atoms: C4_6  and  C9_11 
REMARK    4  A    between atoms: C10_12  and  C5_7 
ROOT
HETATM    1  O2  UNK     1      19.303   1.561  35.432  1.00  0.00    -0.288 OA
HETATM    2  C5  UNK     1      18.326   1.715  34.708  1.00  0.00     0.182 C 
ENDROOT
BRANCH   2   3
HETATM    3  C1  UNK     1      18.327   2.792  33.689  1.00  0.00     0.014 A 
HETATM    4  C2  UNK     1      18.397   4.106  34.106  1.00  0.00     0.018 A 
HETATM    5  C7  UNK     1      18.399   5.120  33.148  1.00  0.00     0.037 A 
HETATM    6  C6  UNK     1      18.332   4.798  31.793  1.00  0.00     0.068 A 
HETATM    7  C8  UNK     1      18.263   3.464  31.395  1.00  0.00     0.037 A 
HETATM    8  C3  UNK     1      18.261   2.450  32.353  1.00  0.00     0.018 A 
BRANCH   6   9
HETATM    9  O1  UNK     1      18.336   5.787  30.858  1.00  0.00    -0.356 OA
HETATM   10  C16 UNK     1      19.497   5.898  30.033  1.00  0.00     0.210 C 
ENDBRANCH   6   9
ENDBRANCH   2   3
BRANCH   2  11
HETATM   11  C10 UNK     1      17.127   0.834  34.781  1.00  0.00     0.056 C 
HETATM   12  C9  UNK     1      17.207  -0.461  34.404  1.00  0.00     0.015 C 
BRANCH  12  13
HETATM   13  C4  UNK     1      18.407  -1.117  33.908  1.00  0.00    -0.036 A 
HETATM   14  C11 UNK     1      18.711  -1.077  32.547  1.00  0.00     0.011 A 
HETATM   15  C13 UNK     1      19.863  -1.706  32.072  1.00  0.00     0.001 A 
HETATM   16  C15 UNK     1      20.709  -2.374  32.956  1.00  0.00     0.000 A 
HETATM   17  C14 UNK     1      20.403  -2.415  34.317  1.00  0.00     0.001 A 
HETATM   18  C12 UNK     1      19.252  -1.787  34.792  1.00  0.00     0.011 A 
ENDBRANCH  12  13
ENDBRANCH   2  11
TORSDOF 4
ENDMDL
MODEL 10
REMARK VINA RESULT:      -6.2     22.491     24.599
REMARK  4 active torsions:
REMARK  status: ('A' for Active; 'I' for Inactive)
REMARK    1  A    between atoms: C6_8  and  O1_1 
REMARK    2  A    between atoms: C1_3  and  C5_7 
REMARK    3  A    between atoms: C4_6  and  C9_11 
REMARK    4  A    between atoms: C10_12  and  C5_7 
ROOT
HETATM    1  O2  UNK     1      11.946   4.365   8.049  1.00  0.00    -0.288 OA
HETATM    2  C5  UNK     1      12.424   5.418   7.640  1.00  0.00     0.182 C 
ENDROOT
BRANCH   2   3
HETATM    3  C1  UNK     1      13.511   6.078   8.402  1.00  0.00     0.014 A 
HETATM    4  C2  UNK     1      14.450   5.294   9.042  1.00  0.00     0.018 A 
HETATM    5  C7  UNK     1      15.474   5.915   9.758  1.00  0.00     0.037 A 
HETATM    6  C6  UNK     1      15.537   7.307   9.818  1.00  0.00     0.068 A 
HETATM    7  C8  UNK     1      14.578   8.078   9.164  1.00  0.00     0.037 A 
HETATM    8  C3  UNK     1      13.554   7.458   8.448  1.00  0.00     0.018 A 
BRANCH   6   9
HETATM    9  O1  UNK     1      16.537   7.913  10.515  1.00  0.00    -0.356 OA
HETATM   10  C16 UNK     1      17.106   9.091   9.944  1.00  0.00     0.210 C 
ENDBRANCH   6   9
ENDBRANCH   2   3
BRANCH   2  11
HETATM   11  C10 UNK     1      11.978   6.061   6.373  1.00  0.00     0.056 C 
HETATM   12  C9  UNK     1      10.759   6.641   6.294  1.00  0.00     0.015 C 
BRANCH  12  13
HETATM   13  C4  UNK     1       9.790   6.705   7.376  1.00  0.00    -0.036 A 
HETATM   14  C11 UNK     1       8.733   5.795   7.420  1.00  0.00     0.011 A 
HETATM   15  C13 UNK     1       7.803   5.856   8.459  1.00  0.00     0.001 A 
HETATM   16  C15 UNK     1       7.929   6.825   9.453  1.00  0.00     0.000 A 
HETATM   17  C14 UNK     1       8.986   7.736   9.408  1.00  0.00     0.001 A 
HETATM   18  C12 UNK     1       9.915   7.675   8.370  1.00  0.00     0.011 A 
ENDBRANCH  12  13
ENDBRANCH   2  11
TORSDOF 4
ENDMDL
