MODEL 1
REMARK VINA RESULT:      -9.9      0.000      0.000
REMARK  2 active torsions:
REMARK  status: ('A' for Active; 'I' for Inactive)
REMARK       I    between atoms: C5_13  and  N1_8 
REMARK    1  A    between atoms: C6_14  and  N1_8 
REMARK    2  A    between atoms: C2_10  and  C5_13 
ROOT
HETATM    1  O2  UNK     1      17.609   3.406  32.848  1.00  0.00    -0.267 OA
HETATM    2  N1  UNK     1      18.779   4.885  31.438  1.00  0.00    -0.320 N 
HETATM    3  C5  UNK     1      18.300   3.653  31.862  1.00  0.00     0.262 C 
HETATM    4  H3  UNK     1      19.361   4.921  30.604  1.00  0.00     0.169 HD
ENDROOT
BRANCH   3   5
HETATM    5  C2  UNK     1      18.713   2.563  30.970  1.00  0.00     0.108 A 
HETATM    6  C4  UNK     1      19.142   1.442  31.564  1.00  0.00     0.037 A 
HETATM    7  C1  UNK     1      19.572   0.307  30.764  1.00  0.00     0.001 A 
HETATM    8  C3  UNK     1      19.529   0.405  29.377  1.00  0.00     0.089 A 
HETATM    9  C7  UNK     1      20.027  -0.882  31.341  1.00  0.00     0.038 A 
HETATM   10  O1  UNK     1      19.077   1.586  28.757  1.00  0.00    -0.274 OA
HETATM   11  C9  UNK     1      19.928  -0.646  28.554  1.00  0.00     0.040 A 
HETATM   12  C8  UNK     1      18.659   2.690  29.497  1.00  0.00     0.304 A 
HETATM   13  O3  UNK     1      18.267   3.714  28.948  1.00  0.00    -0.259 OA
HETATM   14  C11 UNK     1      20.380  -1.827  29.138  1.00  0.00     0.026 A 
HETATM   15  C10 UNK     1      20.430  -1.945  30.528  1.00  0.00     0.035 A 
HETATM   16 Cl1  UNK     1      20.989  -3.408  31.244  1.00  0.00    -0.084 Cl
ENDBRANCH   3   5
BRANCH   2  17
HETATM   17  C6  UNK     1      18.576   6.146  32.049  1.00  0.00     0.077 A 
HETATM   18  C12 UNK     1      19.583   6.695  32.825  1.00  0.00     0.184 A 
HETATM   19  F1  UNK     1      20.748   6.055  33.008  1.00  0.00    -0.200 F 
HETATM   20  C14 UNK     1      19.382   7.938  33.425  1.00  0.00     0.195 A 
HETATM   21  F2  UNK     1      20.346   8.483  34.177  1.00  0.00    -0.199 F 
HETATM   22  C16 UNK     1      18.175   8.614  33.239  1.00  0.00     0.158 A 
HETATM   23  C15 UNK     1      17.172   8.047  32.455  1.00  0.00     0.048 A 
HETATM   24  F3  UNK     1      17.982   9.808  33.815  1.00  0.00    -0.203 F 
HETATM   25  C13 UNK     1      17.374   6.804  31.855  1.00  0.00     0.036 A 
ENDBRANCH   2  17
TORSDOF 2
ENDMDL
MODEL 2
REMARK VINA RESULT:      -9.7     14.167     16.445
REMARK  2 active torsions:
REMARK  status: ('A' for Active; 'I' for Inactive)
REMARK       I    between atoms: C5_13  and  N1_8 
REMARK    1  A    between atoms: C6_14  and  N1_8 
REMARK    2  A    between atoms: C2_10  and  C5_13 
ROOT
HETATM    1  O2  UNK     1      17.044  -1.794  17.029  1.00  0.00    -0.267 OA
HETATM    2  N1  UNK     1      19.144  -0.739  16.887  1.00  0.00    -0.320 N 
HETATM    3  C5  UNK     1      18.125  -1.589  16.480  1.00  0.00     0.262 C 
HETATM    4  H3  UNK     1      19.994  -0.695  16.329  1.00  0.00     0.169 HD
ENDROOT
BRANCH   3   5
HETATM    5  C2  UNK     1      18.455  -2.291  15.234  1.00  0.00     0.108 A 
HETATM    6  C4  UNK     1      18.159  -3.596  15.195  1.00  0.00     0.037 A 
HETATM    7  C1  UNK     1      18.448  -4.378  14.003  1.00  0.00     0.001 A 
HETATM    8  C3  UNK     1      19.035  -3.747  12.910  1.00  0.00     0.089 A 
HETATM    9  C7  UNK     1      18.157  -5.742  13.918  1.00  0.00     0.038 A 
HETATM   10  O1  UNK     1      19.344  -2.374  12.957  1.00  0.00    -0.274 OA
HETATM   11  C9  UNK     1      19.338  -4.440  11.740  1.00  0.00     0.040 A 
HETATM   12  C8  UNK     1      19.079  -1.600  14.085  1.00  0.00     0.304 A 
HETATM   13  O3  UNK     1      19.352  -0.405  14.117  1.00  0.00    -0.259 OA
HETATM   14  C11 UNK     1      19.044  -5.799  11.663  1.00  0.00     0.026 A 
HETATM   15  C10 UNK     1      18.455  -6.449  12.749  1.00  0.00     0.035 A 
HETATM   16 Cl1  UNK     1      18.093  -8.129  12.648  1.00  0.00    -0.084 Cl
ENDBRANCH   3   5
BRANCH   2  17
HETATM   17  C6  UNK     1      19.169   0.092  18.033  1.00  0.00     0.077 A 
HETATM   18  C12 UNK     1      19.154   1.468  17.876  1.00  0.00     0.184 A 
HETATM   19  F1  UNK     1      19.113   2.029  16.658  1.00  0.00    -0.200 F 
HETATM   20  C14 UNK     1      19.178   2.284  19.006  1.00  0.00     0.195 A 
HETATM   21  F2  UNK     1      19.162   3.616  18.872  1.00  0.00    -0.199 F 
HETATM   22  C16 UNK     1      19.217   1.712  20.279  1.00  0.00     0.158 A 
HETATM   23  C15 UNK     1      19.233   0.325  20.419  1.00  0.00     0.048 A 
HETATM   24  F3  UNK     1      19.240   2.496  21.365  1.00  0.00    -0.203 F 
HETATM   25  C13 UNK     1      19.209  -0.491  19.288  1.00  0.00     0.036 A 
ENDBRANCH   2  17
TORSDOF 2
ENDMDL
MODEL 3
REMARK VINA RESULT:      -9.5      8.781     12.070
REMARK  2 active torsions:
REMARK  status: ('A' for Active; 'I' for Inactive)
REMARK       I    between atoms: C5_13  and  N1_8 
REMARK    1  A    between atoms: C6_14  and  N1_8 
REMARK    2  A    between atoms: C2_10  and  C5_13 
ROOT
HETATM    1  O2  UNK     1      21.143  -4.440  37.204  1.00  0.00    -0.267 OA
HETATM    2  N1  UNK     1      19.585  -5.493  35.788  1.00  0.00    -0.320 N 
HETATM    3  C5  UNK     1      20.250  -4.417  36.360  1.00  0.00     0.262 C 
HETATM    4  H3  UNK     1      18.848  -5.306  35.112  1.00  0.00     0.169 HD
ENDROOT
BRANCH   3   5
HETATM    5  C2  UNK     1      19.770  -3.131  35.841  1.00  0.00     0.108 A 
HETATM    6  C4  UNK     1      19.005  -2.408  36.668  1.00  0.00     0.037 A 
HETATM    7  C1  UNK     1      18.483  -1.119  36.243  1.00  0.00     0.001 A 
HETATM    8  C3  UNK     1      18.791  -0.654  34.969  1.00  0.00     0.089 A 
HETATM    9  C7  UNK     1      17.680  -0.331  37.072  1.00  0.00     0.038 A 
HETATM   10  O1  UNK     1      19.597  -1.419  34.103  1.00  0.00    -0.274 OA
HETATM   11  C9  UNK     1      18.321   0.572  34.502  1.00  0.00     0.040 A 
HETATM   12  C8  UNK     1      20.111  -2.656  34.482  1.00  0.00     0.304 A 
HETATM   13  O3  UNK     1      20.812  -3.316  33.721  1.00  0.00    -0.259 OA
HETATM   14  C11 UNK     1      17.522   1.351  35.334  1.00  0.00     0.026 A 
HETATM   15  C10 UNK     1      17.202   0.902  36.617  1.00  0.00     0.035 A 
HETATM   16 Cl1  UNK     1      16.214   1.870  37.642  1.00  0.00    -0.084 Cl
ENDBRANCH   3   5
BRANCH   2  17
HETATM   17  C6  UNK     1      19.788  -6.871  36.047  1.00  0.00     0.077 A 
HETATM   18  C12 UNK     1      19.057  -7.489  37.047  1.00  0.00     0.184 A 
HETATM   19  F1  UNK     1      18.158  -6.808  37.774  1.00  0.00    -0.200 F 
HETATM   20  C14 UNK     1      19.258  -8.846  37.300  1.00  0.00     0.195 A 
HETATM   21  F2  UNK     1      18.558  -9.459  38.262  1.00  0.00    -0.199 F 
HETATM   22  C16 UNK     1      20.188  -9.565  36.548  1.00  0.00     0.158 A 
HETATM   23  C15 UNK     1      20.916  -8.926  35.545  1.00  0.00     0.048 A 
HETATM   24  F3  UNK     1      20.381 -10.868  36.791  1.00  0.00    -0.203 F 
HETATM   25  C13 UNK     1      20.715  -7.569  35.292  1.00  0.00     0.036 A 
ENDBRANCH   2  17
TORSDOF 2
ENDMDL
MODEL 4
REMARK VINA RESULT:      -9.0      8.998     11.873
REMARK  2 active torsions:
REMARK  status: ('A' for Active; 'I' for Inactive)
REMARK       I    between atoms: C5_13  and  N1_8 
REMARK    1  A    between atoms: C6_14  and  N1_8 
REMARK    2  A    between atoms: C2_10  and  C5_13 
ROOT
HETATM    1  O2  UNK     1      20.151  -5.502  35.382  1.00  0.00    -0.267 OA
HETATM    2  N1  UNK     1      20.601  -4.545  37.486  1.00  0.00    -0.320 N 
HETATM    3  C5  UNK     1      20.186  -4.551  36.161  1.00  0.00     0.262 C 
HETATM    4  H3  UNK     1      20.590  -3.664  37.995  1.00  0.00     0.169 HD
ENDROOT
BRANCH   3   5
HETATM    5  C2  UNK     1      19.752  -3.224  35.710  1.00  0.00     0.108 A 
HETATM    6  C4  UNK     1      18.970  -2.540  36.554  1.00  0.00     0.037 A 
HETATM    7  C1  UNK     1      18.489  -1.214  36.196  1.00  0.00     0.001 A 
HETATM    8  C3  UNK     1      18.856  -0.674  34.968  1.00  0.00     0.089 A 
HETATM    9  C7  UNK     1      17.670  -0.465  37.045  1.00  0.00     0.038 A 
HETATM   10  O1  UNK     1      19.679  -1.398  34.084  1.00  0.00    -0.274 OA
HETATM   11  C9  UNK     1      18.428   0.590  34.566  1.00  0.00     0.040 A 
HETATM   12  C8  UNK     1      20.155  -2.669  34.399  1.00  0.00     0.304 A 
HETATM   13  O3  UNK     1      20.871  -3.292  33.623  1.00  0.00    -0.259 OA
HETATM   14  C11 UNK     1      17.612   1.330  35.418  1.00  0.00     0.026 A 
HETATM   15  C10 UNK     1      17.234   0.805  36.655  1.00  0.00     0.035 A 
HETATM   16 Cl1  UNK     1      16.227   1.726  37.705  1.00  0.00    -0.084 Cl
ENDBRANCH   3   5
BRANCH   2  17
HETATM   17  C6  UNK     1      21.079  -5.639  38.247  1.00  0.00     0.077 A 
HETATM   18  C12 UNK     1      20.194  -6.627  38.645  1.00  0.00     0.184 A 
HETATM   19  F1  UNK     1      18.894  -6.568  38.323  1.00  0.00    -0.200 F 
HETATM   20  C14 UNK     1      20.668  -7.704  39.394  1.00  0.00     0.195 A 
HETATM   21  F2  UNK     1      19.826  -8.669  39.787  1.00  0.00    -0.199 F 
HETATM   22  C16 UNK     1      22.019  -7.778  39.733  1.00  0.00     0.158 A 
HETATM   23  C15 UNK     1      22.896  -6.774  39.323  1.00  0.00     0.048 A 
HETATM   24  F3  UNK     1      22.474  -8.813  40.451  1.00  0.00    -0.203 F 
HETATM   25  C13 UNK     1      22.423  -5.697  38.574  1.00  0.00     0.036 A 
ENDBRANCH   2  17
TORSDOF 2
ENDMDL
MODEL 5
REMARK VINA RESULT:      -9.0      8.418     10.132
REMARK  2 active torsions:
REMARK  status: ('A' for Active; 'I' for Inactive)
REMARK       I    between atoms: C5_13  and  N1_8 
REMARK    1  A    between atoms: C6_14  and  N1_8 
REMARK    2  A    between atoms: C2_10  and  C5_13 
ROOT
HETATM    1  O2  UNK     1      20.965  -3.571  37.684  1.00  0.00    -0.267 OA
HETATM    2  N1  UNK     1      18.894  -3.455  36.568  1.00  0.00    -0.320 N 
HETATM    3  C5  UNK     1      20.015  -4.083  37.094  1.00  0.00     0.262 C 
HETATM    4  H3  UNK     1      18.201  -4.022  36.086  1.00  0.00     0.169 HD
ENDROOT
BRANCH   3   5
HETATM    5  C2  UNK     1      19.988  -5.535  36.880  1.00  0.00     0.108 A 
HETATM    6  C4  UNK     1      19.804  -6.290  37.970  1.00  0.00     0.037 A 
HETATM    7  C1  UNK     1      19.762  -7.740  37.858  1.00  0.00     0.001 A 
HETATM    8  C3  UNK     1      19.915  -8.324  36.605  1.00  0.00     0.089 A 
HETATM    9  C7  UNK     1      19.573  -8.567  38.969  1.00  0.00     0.038 A 
HETATM   10  O1  UNK     1      20.109  -7.524  35.462  1.00  0.00    -0.274 OA
HETATM   11  C9  UNK     1      19.886  -9.706  36.431  1.00  0.00     0.040 A 
HETATM   12  C8  UNK     1      20.153  -6.134  35.537  1.00  0.00     0.304 A 
HETATM   13  O3  UNK     1      20.322  -5.446  34.536  1.00  0.00    -0.259 OA
HETATM   14  C11 UNK     1      19.697 -10.523  37.543  1.00  0.00     0.026 A 
HETATM   15  C10 UNK     1      19.540  -9.955  38.809  1.00  0.00     0.035 A 
HETATM   16 Cl1  UNK     1      19.305 -10.971  40.180  1.00  0.00    -0.084 Cl
ENDBRANCH   3   5
BRANCH   2  17
HETATM   17  C6  UNK     1      18.587  -2.073  36.592  1.00  0.00     0.077 A 
HETATM   18  C12 UNK     1      18.826  -1.304  35.466  1.00  0.00     0.184 A 
HETATM   19  F1  UNK     1      19.340  -1.844  34.351  1.00  0.00    -0.200 F 
HETATM   20  C14 UNK     1      18.522   0.057  35.492  1.00  0.00     0.195 A 
HETATM   21  F2  UNK     1      18.745   0.814  34.411  1.00  0.00    -0.199 F 
HETATM   22  C16 UNK     1      17.984   0.629  36.646  1.00  0.00     0.158 A 
HETATM   23  C15 UNK     1      17.750  -0.160  37.771  1.00  0.00     0.048 A 
HETATM   24  F3  UNK     1      17.692   1.936  36.671  1.00  0.00    -0.203 F 
HETATM   25  C13 UNK     1      18.054  -1.521  37.745  1.00  0.00     0.036 A 
ENDBRANCH   2  17
TORSDOF 2
ENDMDL
MODEL 6
REMARK VINA RESULT:      -8.9      4.463      8.476
REMARK  2 active torsions:
REMARK  status: ('A' for Active; 'I' for Inactive)
REMARK       I    between atoms: C5_13  and  N1_8 
REMARK    1  A    between atoms: C6_14  and  N1_8 
REMARK    2  A    between atoms: C2_10  and  C5_13 
ROOT
HETATM    1  O2  UNK     1      19.385   5.171  30.431  1.00  0.00    -0.267 OA
HETATM    2  N1  UNK     1      17.979   3.441  31.191  1.00  0.00    -0.320 N 
HETATM    3  C5  UNK     1      18.513   4.723  31.172  1.00  0.00     0.262 C 
HETATM    4  H3  UNK     1      17.271   3.219  31.886  1.00  0.00     0.169 HD
ENDROOT
BRANCH   3   5
HETATM    5  C2  UNK     1      17.909   5.588  32.193  1.00  0.00     0.108 A 
HETATM    6  C4  UNK     1      17.177   6.614  31.740  1.00  0.00     0.037 A 
HETATM    7  C1  UNK     1      16.539   7.527  32.675  1.00  0.00     0.001 A 
HETATM    8  C3  UNK     1      16.701   7.315  34.041  1.00  0.00     0.089 A 
HETATM    9  C7  UNK     1      15.767   8.611  32.248  1.00  0.00     0.038 A 
HETATM   10  O1  UNK     1      17.471   6.235  34.511  1.00  0.00    -0.274 OA
HETATM   11  C9  UNK     1      16.116   8.154  34.987  1.00  0.00     0.040 A 
HETATM   12  C8  UNK     1      18.095   5.344  33.640  1.00  0.00     0.304 A 
HETATM   13  O3  UNK     1      18.765   4.406  34.058  1.00  0.00    -0.259 OA
HETATM   14  C11 UNK     1      15.348   9.232  34.553  1.00  0.00     0.026 A 
HETATM   15  C10 UNK     1      15.173   9.460  33.187  1.00  0.00     0.035 A 
HETATM   16 Cl1  UNK     1      14.222  10.794  32.656  1.00  0.00    -0.084 Cl
ENDBRANCH   3   5
BRANCH   2  17
HETATM   17  C6  UNK     1      18.320   2.352  30.353  1.00  0.00     0.077 A 
HETATM   18  C12 UNK     1      19.016   1.279  30.882  1.00  0.00     0.184 A 
HETATM   19  F1  UNK     1      19.373   1.251  32.175  1.00  0.00    -0.200 F 
HETATM   20  C14 UNK     1      19.350   0.207  30.055  1.00  0.00     0.195 A 
HETATM   21  F2  UNK     1      20.022  -0.839  30.551  1.00  0.00    -0.199 F 
HETATM   22  C16 UNK     1      18.982   0.224  28.709  1.00  0.00     0.158 A 
HETATM   23  C15 UNK     1      18.281   1.313  28.192  1.00  0.00     0.048 A 
HETATM   24  F3  UNK     1      19.302  -0.805  27.914  1.00  0.00    -0.203 F 
HETATM   25  C13 UNK     1      17.947   2.385  29.020  1.00  0.00     0.036 A 
ENDBRANCH   2  17
TORSDOF 2
ENDMDL
MODEL 7
REMARK VINA RESULT:      -8.8      8.205     10.094
REMARK  2 active torsions:
REMARK  status: ('A' for Active; 'I' for Inactive)
REMARK       I    between atoms: C5_13  and  N1_8 
REMARK    1  A    between atoms: C6_14  and  N1_8 
REMARK    2  A    between atoms: C2_10  and  C5_13 
ROOT
HETATM    1  O2  UNK     1      21.059  -3.827  36.873  1.00  0.00    -0.267 OA
HETATM    2  N1  UNK     1      18.722  -3.657  36.636  1.00  0.00    -0.320 N 
HETATM    3  C5  UNK     1      19.938  -4.317  36.758  1.00  0.00     0.262 C 
HETATM    4  H3  UNK     1      17.876  -4.211  36.527  1.00  0.00     0.169 HD
ENDROOT
BRANCH   3   5
HETATM    5  C2  UNK     1      19.779  -5.776  36.740  1.00  0.00     0.108 A 
HETATM    6  C4  UNK     1      20.898  -6.491  36.570  1.00  0.00     0.037 A 
HETATM    7  C1  UNK     1      20.842  -7.944  36.538  1.00  0.00     0.001 A 
HETATM    8  C3  UNK     1      19.610  -8.574  36.687  1.00  0.00     0.089 A 
HETATM    9  C7  UNK     1      21.984  -8.730  36.361  1.00  0.00     0.038 A 
HETATM   10  O1  UNK     1      18.436  -7.817  36.866  1.00  0.00    -0.274 OA
HETATM   11  C9  UNK     1      19.489  -9.962  36.665  1.00  0.00     0.040 A 
HETATM   12  C8  UNK     1      18.459  -6.424  36.901  1.00  0.00     0.304 A 
HETATM   13  O3  UNK     1      17.431  -5.774  37.057  1.00  0.00    -0.259 OA
HETATM   14  C11 UNK     1      20.632 -10.738  36.489  1.00  0.00     0.026 A 
HETATM   15  C10 UNK     1      21.877 -10.124  36.338  1.00  0.00     0.035 A 
HETATM   16 Cl1  UNK     1      23.287 -11.088  36.122  1.00  0.00    -0.084 Cl
ENDBRANCH   3   5
BRANCH   2  17
HETATM   17  C6  UNK     1      18.497  -2.259  36.618  1.00  0.00     0.077 A 
HETATM   18  C12 UNK     1      18.817  -1.534  35.482  1.00  0.00     0.184 A 
HETATM   19  F1  UNK     1      19.334  -2.131  34.398  1.00  0.00    -0.200 F 
HETATM   20  C14 UNK     1      18.594  -0.158  35.466  1.00  0.00     0.195 A 
HETATM   21  F2  UNK     1      18.896   0.558  34.376  1.00  0.00    -0.199 F 
HETATM   22  C16 UNK     1      18.053   0.474  36.587  1.00  0.00     0.158 A 
HETATM   23  C15 UNK     1      17.738  -0.271  37.723  1.00  0.00     0.048 A 
HETATM   24  F3  UNK     1      17.839   1.796  36.572  1.00  0.00    -0.203 F 
HETATM   25  C13 UNK     1      17.961  -1.648  37.738  1.00  0.00     0.036 A 
ENDBRANCH   2  17
TORSDOF 2
ENDMDL
MODEL 8
REMARK VINA RESULT:      -8.8     15.419     18.762
REMARK  2 active torsions:
REMARK  status: ('A' for Active; 'I' for Inactive)
REMARK       I    between atoms: C5_13  and  N1_8 
REMARK    1  A    between atoms: C6_14  and  N1_8 
REMARK    2  A    between atoms: C2_10  and  C5_13 
ROOT
HETATM    1  O2  UNK     1      17.766  -3.407  15.752  1.00  0.00    -0.267 OA
HETATM    2  N1  UNK     1      19.921  -3.257  14.815  1.00  0.00    -0.320 N 
HETATM    3  C5  UNK     1      18.794  -2.791  15.478  1.00  0.00     0.262 C 
HETATM    4  H3  UNK     1      20.688  -2.611  14.646  1.00  0.00     0.169 HD
ENDROOT
BRANCH   3   5
HETATM    5  C2  UNK     1      18.925  -1.382  15.868  1.00  0.00     0.108 A 
HETATM    6  C4  UNK     1      18.847  -1.122  17.179  1.00  0.00     0.037 A 
HETATM    7  C1  UNK     1      18.966   0.245  17.663  1.00  0.00     0.001 A 
HETATM    8  C3  UNK     1      19.162   1.271  16.743  1.00  0.00     0.089 A 
HETATM    9  C7  UNK     1      18.890   0.563  19.021  1.00  0.00     0.038 A 
HETATM   10  O1  UNK     1      19.243   0.991  15.366  1.00  0.00    -0.274 OA
HETATM   11  C9  UNK     1      19.282   2.600  17.143  1.00  0.00     0.040 A 
HETATM   12  C8  UNK     1      19.133  -0.308  14.873  1.00  0.00     0.304 A 
HETATM   13  O3  UNK     1      19.205  -0.542  13.671  1.00  0.00    -0.259 OA
HETATM   14  C11 UNK     1      19.205   2.909  18.499  1.00  0.00     0.026 A 
HETATM   15  C10 UNK     1      19.010   1.893  19.436  1.00  0.00     0.035 A 
HETATM   16 Cl1  UNK     1      18.917   2.280  21.111  1.00  0.00    -0.084 Cl
ENDBRANCH   3   5
BRANCH   2  17
HETATM   17  C6  UNK     1      20.144  -4.557  14.300  1.00  0.00     0.077 A 
HETATM   18  C12 UNK     1      19.607  -4.903  13.072  1.00  0.00     0.184 A 
HETATM   19  F1  UNK     1      18.882  -4.029  12.358  1.00  0.00    -0.200 F 
HETATM   20  C14 UNK     1      19.829  -6.184  12.567  1.00  0.00     0.195 A 
HETATM   21  F2  UNK     1      19.318  -6.534  11.380  1.00  0.00    -0.199 F 
HETATM   22  C16 UNK     1      20.584  -7.101  13.299  1.00  0.00     0.158 A 
HETATM   23  C15 UNK     1      21.117  -6.737  14.535  1.00  0.00     0.048 A 
HETATM   24  F3  UNK     1      20.797  -8.331  12.814  1.00  0.00    -0.203 F 
HETATM   25  C13 UNK     1      20.896  -5.455  15.039  1.00  0.00     0.036 A 
ENDBRANCH   2  17
TORSDOF 2
ENDMDL
MODEL 9
REMARK VINA RESULT:      -8.7      8.688     11.738
REMARK  2 active torsions:
REMARK  status: ('A' for Active; 'I' for Inactive)
REMARK       I    between atoms: C5_13  and  N1_8 
REMARK    1  A    between atoms: C6_14  and  N1_8 
REMARK    2  A    between atoms: C2_10  and  C5_13 
ROOT
HETATM    1  O2  UNK     1      21.457  -4.254  37.201  1.00  0.00    -0.267 OA
HETATM    2  N1  UNK     1      19.371  -5.291  36.860  1.00  0.00    -0.320 N 
HETATM    3  C5  UNK     1      20.330  -4.299  36.711  1.00  0.00     0.262 C 
HETATM    4  H3  UNK     1      18.471  -5.170  36.402  1.00  0.00     0.169 HD
ENDROOT
BRANCH   3   5
HETATM    5  C2  UNK     1      19.866  -3.206  35.849  1.00  0.00     0.108 A 
HETATM    6  C4  UNK     1      20.320  -3.213  34.589  1.00  0.00     0.037 A 
HETATM    7  C1  UNK     1      19.916  -2.170  33.659  1.00  0.00     0.001 A 
HETATM    8  C3  UNK     1      19.053  -1.172  34.100  1.00  0.00     0.089 A 
HETATM    9  C7  UNK     1      20.366  -2.137  32.336  1.00  0.00     0.038 A 
HETATM   10  O1  UNK     1      18.579  -1.169  35.425  1.00  0.00    -0.274 OA
HETATM   11  C9  UNK     1      18.630  -0.145  33.258  1.00  0.00     0.040 A 
HETATM   12  C8  UNK     1      18.948  -2.154  36.339  1.00  0.00     0.304 A 
HETATM   13  O3  UNK     1      18.531  -2.144  37.492  1.00  0.00    -0.259 OA
HETATM   14  C11 UNK     1      19.082  -0.120  31.941  1.00  0.00     0.026 A 
HETATM   15  C10 UNK     1      19.948  -1.113  31.481  1.00  0.00     0.035 A 
HETATM   16 Cl1  UNK     1      20.503  -1.078  29.851  1.00  0.00    -0.084 Cl
ENDBRANCH   3   5
BRANCH   2  17
HETATM   17  C6  UNK     1      19.473  -6.485  37.614  1.00  0.00     0.077 A 
HETATM   18  C12 UNK     1      19.040  -7.678  37.060  1.00  0.00     0.184 A 
HETATM   19  F1  UNK     1      18.527  -7.724  35.822  1.00  0.00    -0.200 F 
HETATM   20  C14 UNK     1      19.143  -8.853  37.804  1.00  0.00     0.195 A 
HETATM   21  F2  UNK     1      18.730 -10.015  37.283  1.00  0.00    -0.199 F 
HETATM   22  C16 UNK     1      19.678  -8.818  39.093  1.00  0.00     0.158 A 
HETATM   23  C15 UNK     1      20.109  -7.608  39.636  1.00  0.00     0.048 A 
HETATM   24  F3  UNK     1      19.777  -9.946  39.807  1.00  0.00    -0.203 F 
HETATM   25  C13 UNK     1      20.006  -6.433  38.891  1.00  0.00     0.036 A 
ENDBRANCH   2  17
TORSDOF 2
ENDMDL
MODEL 10
REMARK VINA RESULT:      -8.7     14.573     15.993
REMARK  2 active torsions:
REMARK  status: ('A' for Active; 'I' for Inactive)
REMARK       I    between atoms: C5_13  and  N1_8 
REMARK    1  A    between atoms: C6_14  and  N1_8 
REMARK    2  A    between atoms: C2_10  and  C5_13 
ROOT
HETATM    1  O2  UNK     1      25.782  -9.113  39.461  1.00  0.00    -0.267 OA
HETATM    2  N1  UNK     1      24.470  -7.708  38.102  1.00  0.00    -0.320 N 
HETATM    3  C5  UNK     1      25.602  -8.085  38.811  1.00  0.00     0.262 C 
HETATM    4  H3  UNK     1      24.470  -6.808  37.627  1.00  0.00     0.169 HD
ENDROOT
BRANCH   3   5
HETATM    5  C2  UNK     1      26.670  -7.082  38.722  1.00  0.00     0.108 A 
HETATM    6  C4  UNK     1      27.913  -7.554  38.565  1.00  0.00     0.037 A 
HETATM    7  C1  UNK     1      29.037  -6.636  38.467  1.00  0.00     0.001 A 
HETATM    8  C3  UNK     1      28.799  -5.268  38.539  1.00  0.00     0.089 A 
HETATM    9  C7  UNK     1      30.351  -7.084  38.303  1.00  0.00     0.038 A 
HETATM   10  O1  UNK     1      27.489  -4.777  38.705  1.00  0.00    -0.274 OA
HETATM   11  C9  UNK     1      29.833  -4.338  38.453  1.00  0.00     0.040 A 
HETATM   12  C8  UNK     1      26.392  -5.631  38.802  1.00  0.00     0.304 A 
HETATM   13  O3  UNK     1      25.255  -5.195  38.946  1.00  0.00    -0.259 OA
HETATM   14  C11 UNK     1      31.139  -4.792  38.290  1.00  0.00     0.026 A 
HETATM   15  C10 UNK     1      31.398  -6.162  38.214  1.00  0.00     0.035 A 
HETATM   16 Cl1  UNK     1      33.015  -6.717  38.011  1.00  0.00    -0.084 Cl
ENDBRANCH   3   5
BRANCH   2  17
HETATM   17  C6  UNK     1      23.257  -8.426  37.965  1.00  0.00     0.077 A 
HETATM   18  C12 UNK     1      22.302  -8.344  38.964  1.00  0.00     0.184 A 
HETATM   19  F1  UNK     1      22.503  -7.595  40.058  1.00  0.00    -0.200 F 
HETATM   20  C14 UNK     1      21.109  -9.052  38.827  1.00  0.00     0.195 A 
HETATM   21  F2  UNK     1      20.174  -8.983  39.783  1.00  0.00    -0.199 F 
HETATM   22  C16 UNK     1      20.887  -9.833  37.691  1.00  0.00     0.158 A 
HETATM   23  C15 UNK     1      21.860  -9.905  36.695  1.00  0.00     0.048 A 
HETATM   24  F3  UNK     1      19.741 -10.513  37.559  1.00  0.00    -0.203 F 
HETATM   25  C13 UNK     1      23.054  -9.196  36.832  1.00  0.00     0.036 A 
ENDBRANCH   2  17
TORSDOF 2
ENDMDL
