MODEL 1
REMARK VINA RESULT:      -8.3      0.000      0.000
REMARK  4 active torsions:
REMARK  status: ('A' for Active; 'I' for Inactive)
REMARK    1  A    between atoms: C11_19  and  O2_2 
REMARK    2  A    between atoms: C3_11  and  O2_2 
REMARK       I    between atoms: C10_18  and  N1_5 
REMARK    3  A    between atoms: N1_5  and  N2_6 
REMARK    4  A    between atoms: C10_18  and  C5_13 
ROOT
HETATM    1  O1  UNK     1      19.630  -0.980  34.919  1.00  0.00    -0.271 OA
HETATM    2  O3  UNK     1      20.635  -2.909  34.218  1.00  0.00    -0.259 OA
HETATM    3  C1  UNK     1      18.436  -0.950  37.037  1.00  0.00     0.002 A 
HETATM    4  C2  UNK     1      18.871  -0.296  35.888  1.00  0.00     0.123 A 
HETATM    5  C3  UNK     1      18.577   1.045  35.651  1.00  0.00     0.103 A 
HETATM    6  C4  UNK     1      18.779  -2.351  37.221  1.00  0.00     0.037 A 
HETATM    7  C5  UNK     1      19.500  -2.997  36.297  1.00  0.00     0.110 A 
HETATM    8  C6  UNK     1      17.687  -0.237  37.975  1.00  0.00     0.014 A 
HETATM    9  C7  UNK     1      17.828   1.749  36.592  1.00  0.00     0.040 A 
HETATM   10  C8  UNK     1      19.973  -2.321  35.067  1.00  0.00     0.304 A 
HETATM   11  C9  UNK     1      17.383   1.110  37.752  1.00  0.00     0.004 A 
ENDROOT
BRANCH   7  12
HETATM   12  C10 UNK     1      19.794  -4.407  36.573  1.00  0.00     0.276 C 
HETATM   13  O4  UNK     1      20.948  -4.786  36.772  1.00  0.00    -0.266 OA
HETATM   14  N1  UNK     1      18.658  -5.195  36.573  1.00  0.00    -0.257 N 
HETATM   15  H7  UNK     1      17.722  -4.853  36.378  1.00  0.00     0.191 HD
BRANCH  14  16
HETATM   16  N2  UNK     1      18.757  -6.538  36.813  1.00  0.00    -0.237 N 
HETATM   17  C13 UNK     1      18.712  -7.514  35.890  1.00  0.00     0.258 A 
HETATM   18  N3  UNK     1      18.835  -8.674  36.497  1.00  0.00    -0.142 NA
HETATM   19  N4  UNK     1      18.961  -8.422  37.849  1.00  0.00    -0.142 NA
HETATM   20  C14 UNK     1      18.911  -7.120  38.014  1.00  0.00     0.258 A 
ENDBRANCH  14  16
ENDBRANCH   7  12
BRANCH   5  21
HETATM   21  O2  UNK     1      19.008   1.672  34.524  1.00  0.00    -0.349 OA
BRANCH  21  22
HETATM   22  C11 UNK     1      18.009   2.186  33.643  1.00  0.00     0.171 C 
HETATM   23  C12 UNK     1      18.241   3.669  33.448  1.00  0.00     0.034 C 
ENDBRANCH  21  22
ENDBRANCH   5  21
TORSDOF 4
ENDMDL
MODEL 2
REMARK VINA RESULT:      -8.3      6.389     10.069
REMARK  4 active torsions:
REMARK  status: ('A' for Active; 'I' for Inactive)
REMARK    1  A    between atoms: C11_19  and  O2_2 
REMARK    2  A    between atoms: C3_11  and  O2_2 
REMARK       I    between atoms: C10_18  and  N1_5 
REMARK    3  A    between atoms: N1_5  and  N2_6 
REMARK    4  A    between atoms: C10_18  and  C5_13 
ROOT
HETATM    1  O1  UNK     1      18.700   0.809  32.635  1.00  0.00    -0.271 OA
HETATM    2  O3  UNK     1      17.897   2.722  33.594  1.00  0.00    -0.259 OA
HETATM    3  C1  UNK     1      19.454   0.851  30.324  1.00  0.00     0.002 A 
HETATM    4  C2  UNK     1      19.238   0.156  31.510  1.00  0.00     0.123 A 
HETATM    5  C3  UNK     1      19.540  -1.199  31.632  1.00  0.00     0.103 A 
HETATM    6  C4  UNK     1      19.116   2.264  30.265  1.00  0.00     0.037 A 
HETATM    7  C5  UNK     1      18.604   2.881  31.338  1.00  0.00     0.110 A 
HETATM    8  C6  UNK     1      19.990   0.168  29.231  1.00  0.00     0.014 A 
HETATM    9  C7  UNK     1      20.074  -1.873  30.536  1.00  0.00     0.040 A 
HETATM   10  C8  UNK     1      18.366   2.161  32.609  1.00  0.00     0.304 A 
HETATM   11  C9  UNK     1      20.299  -1.192  29.337  1.00  0.00     0.004 A 
ENDROOT
BRANCH   7  12
HETATM   12  C10 UNK     1      18.296   4.306  31.180  1.00  0.00     0.276 C 
HETATM   13  O4  UNK     1      18.653   4.924  30.179  1.00  0.00    -0.266 OA
HETATM   14  N1  UNK     1      17.591   4.818  32.255  1.00  0.00    -0.257 N 
HETATM   15  H7  UNK     1      17.333   4.284  33.079  1.00  0.00     0.191 HD
BRANCH  14  16
HETATM   16  N2  UNK     1      17.223   6.135  32.267  1.00  0.00    -0.237 N 
HETATM   17  C13 UNK     1      16.009   6.622  31.958  1.00  0.00     0.258 A 
HETATM   18  N3  UNK     1      16.036   7.930  32.079  1.00  0.00    -0.142 NA
HETATM   19  N4  UNK     1      17.311   8.282  32.477  1.00  0.00    -0.142 NA
HETATM   20  C14 UNK     1      18.011   7.176  32.584  1.00  0.00     0.258 A 
ENDBRANCH  14  16
ENDBRANCH   7  12
BRANCH   5  21
HETATM   21  O2  UNK     1      19.323  -1.867  32.796  1.00  0.00    -0.349 OA
BRANCH  21  22
HETATM   22  C11 UNK     1      20.464  -2.426  33.448  1.00  0.00     0.171 C 
HETATM   23  C12 UNK     1      20.233  -2.410  34.944  1.00  0.00     0.034 C 
ENDBRANCH  21  22
ENDBRANCH   5  21
TORSDOF 4
ENDMDL
MODEL 3
REMARK VINA RESULT:      -8.2      6.675      9.887
REMARK  4 active torsions:
REMARK  status: ('A' for Active; 'I' for Inactive)
REMARK    1  A    between atoms: C11_19  and  O2_2 
REMARK    2  A    between atoms: C3_11  and  O2_2 
REMARK       I    between atoms: C10_18  and  N1_5 
REMARK    3  A    between atoms: N1_5  and  N2_6 
REMARK    4  A    between atoms: C10_18  and  C5_13 
ROOT
HETATM    1  O1  UNK     1      18.273   1.517  32.084  1.00  0.00    -0.271 OA
HETATM    2  O3  UNK     1      18.149   3.197  30.540  1.00  0.00    -0.259 OA
HETATM    3  C1  UNK     1      18.341   2.066  34.452  1.00  0.00     0.002 A 
HETATM    4  C2  UNK     1      18.340   1.118  33.433  1.00  0.00     0.123 A 
HETATM    5  C3  UNK     1      18.404  -0.248  33.702  1.00  0.00     0.103 A 
HETATM    6  C4  UNK     1      18.273   3.476  34.101  1.00  0.00     0.037 A 
HETATM    7  C5  UNK     1      18.210   3.849  32.817  1.00  0.00     0.110 A 
HETATM    8  C6  UNK     1      18.408   1.631  35.777  1.00  0.00     0.014 A 
HETATM    9  C7  UNK     1      18.470  -0.673  35.027  1.00  0.00     0.040 A 
HETATM   10  C8  UNK     1      18.207   2.858  31.717  1.00  0.00     0.304 A 
HETATM   11  C9  UNK     1      18.472   0.264  36.063  1.00  0.00     0.004 A 
ENDROOT
BRANCH   7  12
HETATM   12  C10 UNK     1      18.143   5.293  32.564  1.00  0.00     0.276 C 
HETATM   13  O4  UNK     1      19.137   5.917  32.197  1.00  0.00    -0.266 OA
HETATM   14  N1  UNK     1      16.881   5.813  32.788  1.00  0.00    -0.257 N 
HETATM   15  H7  UNK     1      16.088   5.271  33.116  1.00  0.00     0.191 HD
BRANCH  14  16
HETATM   16  N2  UNK     1      16.648   7.147  32.598  1.00  0.00    -0.237 N 
HETATM   17  C13 UNK     1      17.061   8.146  33.398  1.00  0.00     0.258 A 
HETATM   18  N3  UNK     1      16.644   9.287  32.897  1.00  0.00    -0.142 NA
HETATM   19  N4  UNK     1      15.942   9.000  31.742  1.00  0.00    -0.142 NA
HETATM   20  C14 UNK     1      15.959   7.696  31.583  1.00  0.00     0.258 A 
ENDBRANCH  14  16
ENDBRANCH   7  12
BRANCH   5  21
HETATM   21  O2  UNK     1      18.402  -1.164  32.697  1.00  0.00    -0.349 OA
BRANCH  21  22
HETATM   22  C11 UNK     1      19.639  -1.816  32.409  1.00  0.00     0.171 C 
HETATM   23  C12 UNK     1      20.168  -1.307  31.085  1.00  0.00     0.034 C 
ENDBRANCH  21  22
ENDBRANCH   5  21
TORSDOF 4
ENDMDL
MODEL 4
REMARK VINA RESULT:      -8.0     18.677     20.717
REMARK  4 active torsions:
REMARK  status: ('A' for Active; 'I' for Inactive)
REMARK    1  A    between atoms: C11_19  and  O2_2 
REMARK    2  A    between atoms: C3_11  and  O2_2 
REMARK       I    between atoms: C10_18  and  N1_5 
REMARK    3  A    between atoms: N1_5  and  N2_6 
REMARK    4  A    between atoms: C10_18  and  C5_13 
ROOT
HETATM    1  O1  UNK     1      17.217  -3.527  15.595  1.00  0.00    -0.271 OA
HETATM    2  O3  UNK     1      16.322  -1.923  16.955  1.00  0.00    -0.259 OA
HETATM    3  C1  UNK     1      19.593  -3.475  15.081  1.00  0.00     0.002 A 
HETATM    4  C2  UNK     1      18.342  -4.069  14.944  1.00  0.00     0.123 A 
HETATM    5  C3  UNK     1      18.153  -5.211  14.167  1.00  0.00     0.103 A 
HETATM    6  C4  UNK     1      19.720  -2.285  15.907  1.00  0.00     0.037 A 
HETATM    7  C5  UNK     1      18.647  -1.774  16.523  1.00  0.00     0.110 A 
HETATM    8  C6  UNK     1      20.684  -4.043  14.421  1.00  0.00     0.014 A 
HETATM    9  C7  UNK     1      19.247  -5.770  13.512  1.00  0.00     0.040 A 
HETATM   10  C8  UNK     1      17.307  -2.389  16.392  1.00  0.00     0.304 A 
HETATM   11  C9  UNK     1      20.510  -5.188  13.637  1.00  0.00     0.004 A 
ENDROOT
BRANCH   7  12
HETATM   12  C10 UNK     1      18.876  -0.572  17.333  1.00  0.00     0.276 C 
HETATM   13  O4  UNK     1      19.106   0.514  16.804  1.00  0.00    -0.266 OA
HETATM   14  N1  UNK     1      18.801  -0.826  18.691  1.00  0.00    -0.257 N 
HETATM   15  H7  UNK     1      18.633  -1.742  19.095  1.00  0.00     0.191 HD
BRANCH  14  16
HETATM   16  N2  UNK     1      18.991   0.188  19.588  1.00  0.00    -0.237 N 
HETATM   17  C13 UNK     1      20.169   0.583  20.101  1.00  0.00     0.258 A 
HETATM   18  N3  UNK     1      19.956   1.580  20.929  1.00  0.00    -0.142 NA
HETATM   19  N4  UNK     1      18.596   1.823  20.942  1.00  0.00    -0.142 NA
HETATM   20  C14 UNK     1      18.034   0.966  20.121  1.00  0.00     0.258 A 
ENDBRANCH  14  16
ENDBRANCH   7  12
BRANCH   5  21
HETATM   21  O2  UNK     1      16.925  -5.781  14.042  1.00  0.00    -0.349 OA
BRANCH  21  22
HETATM   22  C11 UNK     1      16.763  -7.099  14.567  1.00  0.00     0.171 C 
HETATM   23  C12 UNK     1      16.492  -7.007  16.053  1.00  0.00     0.034 C 
ENDBRANCH  21  22
ENDBRANCH   5  21
TORSDOF 4
ENDMDL
MODEL 5
REMARK VINA RESULT:      -8.0      3.092      8.170
REMARK  4 active torsions:
REMARK  status: ('A' for Active; 'I' for Inactive)
REMARK    1  A    between atoms: C11_19  and  O2_2 
REMARK    2  A    between atoms: C3_11  and  O2_2 
REMARK       I    between atoms: C10_18  and  N1_5 
REMARK    3  A    between atoms: N1_5  and  N2_6 
REMARK    4  A    between atoms: C10_18  and  C5_13 
ROOT
HETATM    1  O1  UNK     1      20.362  -7.366  35.863  1.00  0.00    -0.271 OA
HETATM    2  O3  UNK     1      20.328  -5.373  34.744  1.00  0.00    -0.259 OA
HETATM    3  C1  UNK     1      20.071  -7.392  38.277  1.00  0.00     0.002 A 
HETATM    4  C2  UNK     1      20.274  -8.070  37.079  1.00  0.00     0.123 A 
HETATM    5  C3  UNK     1      20.398  -9.457  37.034  1.00  0.00     0.103 A 
HETATM    6  C4  UNK     1      19.950  -5.942  38.253  1.00  0.00     0.037 A 
HETATM    7  C5  UNK     1      20.034  -5.277  37.094  1.00  0.00     0.110 A 
HETATM    8  C6  UNK     1      19.988  -8.126  39.461  1.00  0.00     0.014 A 
HETATM    9  C7  UNK     1      20.316 -10.182  38.220  1.00  0.00     0.040 A 
HETATM   10  C8  UNK     1      20.250  -5.978  35.808  1.00  0.00     0.304 A 
HETATM   11  C9  UNK     1      20.111  -9.519  39.432  1.00  0.00     0.004 A 
ENDROOT
BRANCH   7  12
HETATM   12  C10 UNK     1      19.900  -3.819  37.172  1.00  0.00     0.276 C 
HETATM   13  O4  UNK     1      20.777  -3.130  37.690  1.00  0.00    -0.266 OA
HETATM   14  N1  UNK     1      18.718  -3.364  36.616  1.00  0.00    -0.257 N 
HETATM   15  H7  UNK     1      18.003  -3.965  36.219  1.00  0.00     0.191 HD
BRANCH  14  16
HETATM   16  N2  UNK     1      18.436  -2.027  36.607  1.00  0.00    -0.237 N 
HETATM   17  C13 UNK     1      18.752  -1.155  35.633  1.00  0.00     0.258 A 
HETATM   18  N3  UNK     1      18.324   0.038  35.979  1.00  0.00    -0.142 NA
HETATM   19  N4  UNK     1      17.717  -0.082  37.214  1.00  0.00    -0.142 NA
HETATM   20  C14 UNK     1      17.798  -1.343  37.572  1.00  0.00     0.258 A 
ENDBRANCH  14  16
ENDBRANCH   7  12
BRANCH   5  21
HETATM   21  O2  UNK     1      20.597 -10.108  35.856  1.00  0.00    -0.349 OA
BRANCH  21  22
HETATM   22  C11 UNK     1      21.632 -11.091  35.823  1.00  0.00     0.171 C 
HETATM   23  C12 UNK     1      22.974 -10.396  35.927  1.00  0.00     0.034 C 
ENDBRANCH  21  22
ENDBRANCH   5  21
TORSDOF 4
ENDMDL
MODEL 6
REMARK VINA RESULT:      -8.0      8.001      9.743
REMARK  4 active torsions:
REMARK  status: ('A' for Active; 'I' for Inactive)
REMARK    1  A    between atoms: C11_19  and  O2_2 
REMARK    2  A    between atoms: C3_11  and  O2_2 
REMARK       I    between atoms: C10_18  and  N1_5 
REMARK    3  A    between atoms: N1_5  and  N2_6 
REMARK    4  A    between atoms: C10_18  and  C5_13 
ROOT
HETATM    1  O1  UNK     1      18.982   7.435  32.428  1.00  0.00    -0.271 OA
HETATM    2  O3  UNK     1      20.232   5.824  31.394  1.00  0.00    -0.259 OA
HETATM    3  C1  UNK     1      16.727   6.912  33.169  1.00  0.00     0.002 A 
HETATM    4  C2  UNK     1      17.775   7.819  33.042  1.00  0.00     0.123 A 
HETATM    5  C3  UNK     1      17.674   9.127  33.511  1.00  0.00     0.103 A 
HETATM    6  C4  UNK     1      16.899   5.562  32.658  1.00  0.00     0.037 A 
HETATM    7  C5  UNK     1      18.049   5.202  32.074  1.00  0.00     0.110 A 
HETATM    8  C6  UNK     1      15.545   7.330  33.785  1.00  0.00     0.014 A 
HETATM    9  C7  UNK     1      16.492   9.536  34.123  1.00  0.00     0.040 A 
HETATM   10  C8  UNK     1      19.177   6.150  31.928  1.00  0.00     0.304 A 
HETATM   11  C9  UNK     1      15.429   8.640  34.261  1.00  0.00     0.004 A 
ENDROOT
BRANCH   7  12
HETATM   12  C10 UNK     1      18.126   3.819  31.590  1.00  0.00     0.276 C 
HETATM   13  O4  UNK     1      17.801   2.878  32.312  1.00  0.00    -0.266 OA
HETATM   14  N1  UNK     1      18.590   3.738  30.290  1.00  0.00    -0.257 N 
HETATM   15  H7  UNK     1      18.874   4.537  29.731  1.00  0.00     0.191 HD
BRANCH  14  16
HETATM   16  N2  UNK     1      18.723   2.519  29.686  1.00  0.00    -0.237 N 
HETATM   17  C13 UNK     1      19.562   1.536  30.058  1.00  0.00     0.258 A 
HETATM   18  N3  UNK     1      19.410   0.519  29.240  1.00  0.00    -0.142 NA
HETATM   19  N4  UNK     1      18.443   0.870  28.319  1.00  0.00    -0.142 NA
HETATM   20  C14 UNK     1      18.042   2.087  28.611  1.00  0.00     0.258 A 
ENDBRANCH  14  16
ENDBRANCH   7  12
BRANCH   5  21
HETATM   21  O2  UNK     1      18.706  10.003  33.380  1.00  0.00    -0.349 OA
BRANCH  21  22
HETATM   22  C11 UNK     1      19.437  10.328  34.562  1.00  0.00     0.171 C 
HETATM   23  C12 UNK     1      20.766   9.602  34.534  1.00  0.00     0.034 C 
ENDBRANCH  21  22
ENDBRANCH   5  21
TORSDOF 4
ENDMDL
MODEL 7
REMARK VINA RESULT:      -7.9      3.181      4.772
REMARK  4 active torsions:
REMARK  status: ('A' for Active; 'I' for Inactive)
REMARK    1  A    between atoms: C11_19  and  O2_2 
REMARK    2  A    between atoms: C3_11  and  O2_2 
REMARK       I    between atoms: C10_18  and  N1_5 
REMARK    3  A    between atoms: N1_5  and  N2_6 
REMARK    4  A    between atoms: C10_18  and  C5_13 
ROOT
HETATM    1  O1  UNK     1      18.733   0.011  32.500  1.00  0.00    -0.271 OA
HETATM    2  O3  UNK     1      18.529  -0.454  34.729  1.00  0.00    -0.259 OA
HETATM    3  C1  UNK     1      20.340  -1.226  31.159  1.00  0.00     0.002 A 
HETATM    4  C2  UNK     1      19.354  -0.250  31.264  1.00  0.00     0.123 A 
HETATM    5  C3  UNK     1      18.945   0.501  30.163  1.00  0.00     0.103 A 
HETATM    6  C4  UNK     1      20.719  -1.973  32.347  1.00  0.00     0.037 A 
HETATM    7  C5  UNK     1      20.126  -1.722  33.521  1.00  0.00     0.110 A 
HETATM    8  C6  UNK     1      20.931  -1.456  29.915  1.00  0.00     0.014 A 
HETATM    9  C7  UNK     1      19.541   0.266  28.926  1.00  0.00     0.040 A 
HETATM   10  C8  UNK     1      19.075  -0.688  33.655  1.00  0.00     0.304 A 
HETATM   11  C9  UNK     1      20.532  -0.710  28.801  1.00  0.00     0.004 A 
ENDROOT
BRANCH   7  12
HETATM   12  C10 UNK     1      20.576  -2.527  34.661  1.00  0.00     0.276 C 
HETATM   13  O4  UNK     1      21.657  -2.306  35.204  1.00  0.00    -0.266 OA
HETATM   14  N1  UNK     1      19.665  -3.508  35.010  1.00  0.00    -0.257 N 
HETATM   15  H7  UNK     1      18.792  -3.679  34.522  1.00  0.00     0.191 HD
BRANCH  14  16
HETATM   16  N2  UNK     1      19.932  -4.348  36.055  1.00  0.00    -0.237 N 
HETATM   17  C13 UNK     1      20.227  -3.980  37.314  1.00  0.00     0.258 A 
HETATM   18  N3  UNK     1      20.426  -5.061  38.034  1.00  0.00    -0.142 NA
HETATM   19  N4  UNK     1      20.252  -6.150  37.202  1.00  0.00    -0.142 NA
HETATM   20  C14 UNK     1      19.953  -5.691  36.008  1.00  0.00     0.258 A 
ENDBRANCH  14  16
ENDBRANCH   7  12
BRANCH   5  21
HETATM   21  O2  UNK     1      17.981   1.453  30.280  1.00  0.00    -0.349 OA
BRANCH  21  22
HETATM   22  C11 UNK     1      18.385   2.812  30.116  1.00  0.00     0.171 C 
HETATM   23  C12 UNK     1      18.305   3.514  31.455  1.00  0.00     0.034 C 
ENDBRANCH  21  22
ENDBRANCH   5  21
TORSDOF 4
ENDMDL
MODEL 8
REMARK VINA RESULT:      -7.9      6.289      9.805
REMARK  4 active torsions:
REMARK  status: ('A' for Active; 'I' for Inactive)
REMARK    1  A    between atoms: C11_19  and  O2_2 
REMARK    2  A    between atoms: C3_11  and  O2_2 
REMARK       I    between atoms: C10_18  and  N1_5 
REMARK    3  A    between atoms: N1_5  and  N2_6 
REMARK    4  A    between atoms: C10_18  and  C5_13 
ROOT
HETATM    1  O1  UNK     1      18.662   0.591  32.925  1.00  0.00    -0.271 OA
HETATM    2  O3  UNK     1      17.817   2.187  34.326  1.00  0.00    -0.259 OA
HETATM    3  C1  UNK     1      19.250   1.187  30.643  1.00  0.00     0.002 A 
HETATM    4  C2  UNK     1      19.158   0.237  31.656  1.00  0.00     0.123 A 
HETATM    5  C3  UNK     1      19.548  -1.086  31.459  1.00  0.00     0.103 A 
HETATM    6  C4  UNK     1      18.825   2.550  30.916  1.00  0.00     0.037 A 
HETATM    7  C5  UNK     1      18.354   2.881  32.125  1.00  0.00     0.110 A 
HETATM    8  C6  UNK     1      19.748   0.797  29.398  1.00  0.00     0.014 A 
HETATM    9  C7  UNK     1      20.043  -1.466  30.214  1.00  0.00     0.040 A 
HETATM   10  C8  UNK     1      18.248   1.888  33.217  1.00  0.00     0.304 A 
HETATM   11  C9  UNK     1      20.143  -0.527  29.184  1.00  0.00     0.004 A 
ENDROOT
BRANCH   7  12
HETATM   12  C10 UNK     1      17.951   4.281  32.303  1.00  0.00     0.276 C 
HETATM   13  O4  UNK     1      17.057   4.774  31.617  1.00  0.00    -0.266 OA
HETATM   14  N1  UNK     1      18.679   4.920  33.290  1.00  0.00    -0.257 N 
HETATM   15  H7  UNK     1      19.429   4.488  33.821  1.00  0.00     0.191 HD
BRANCH  14  16
HETATM   16  N2  UNK     1      18.428   6.232  33.583  1.00  0.00    -0.237 N 
HETATM   17  C13 UNK     1      19.182   7.284  33.220  1.00  0.00     0.258 A 
HETATM   18  N3  UNK     1      18.629   8.381  33.686  1.00  0.00    -0.142 NA
HETATM   19  N4  UNK     1      17.486   8.010  34.368  1.00  0.00    -0.142 NA
HETATM   20  C14 UNK     1      17.387   6.703  34.291  1.00  0.00     0.258 A 
ENDBRANCH  14  16
ENDBRANCH   7  12
BRANCH   5  21
HETATM   21  O2  UNK     1      19.453  -2.004  32.458  1.00  0.00    -0.349 OA
BRANCH  21  22
HETATM   22  C11 UNK     1      20.673  -2.453  33.046  1.00  0.00     0.171 C 
HETATM   23  C12 UNK     1      20.461  -2.646  34.533  1.00  0.00     0.034 C 
ENDBRANCH  21  22
ENDBRANCH   5  21
TORSDOF 4
ENDMDL
MODEL 9
REMARK VINA RESULT:      -7.8     19.460     21.446
REMARK  4 active torsions:
REMARK  status: ('A' for Active; 'I' for Inactive)
REMARK    1  A    between atoms: C11_19  and  O2_2 
REMARK    2  A    between atoms: C3_11  and  O2_2 
REMARK       I    between atoms: C10_18  and  N1_5 
REMARK    3  A    between atoms: N1_5  and  N2_6 
REMARK    4  A    between atoms: C10_18  and  C5_13 
ROOT
HETATM    1  O1  UNK     1      19.770  -0.880  13.886  1.00  0.00    -0.271 OA
HETATM    2  O3  UNK     1      19.319   1.006  15.096  1.00  0.00    -0.259 OA
HETATM    3  C1  UNK     1      19.508  -3.063  14.926  1.00  0.00     0.002 A 
HETATM    4  C2  UNK     1      19.838  -2.285  13.820  1.00  0.00     0.123 A 
HETATM    5  C3  UNK     1      20.244  -2.857  12.616  1.00  0.00     0.103 A 
HETATM    6  C4  UNK     1      19.092  -2.401  16.152  1.00  0.00     0.037 A 
HETATM    7  C5  UNK     1      19.029  -1.065  16.210  1.00  0.00     0.110 A 
HETATM    8  C6  UNK     1      19.588  -4.453  14.819  1.00  0.00     0.014 A 
HETATM    9  C7  UNK     1      20.321  -4.244  12.518  1.00  0.00     0.040 A 
HETATM   10  C8  UNK     1      19.375  -0.218  15.046  1.00  0.00     0.304 A 
HETATM   11  C9  UNK     1      19.994  -5.042  13.618  1.00  0.00     0.004 A 
ENDROOT
BRANCH   7  12
HETATM   12  C10 UNK     1      18.599  -0.492  17.490  1.00  0.00     0.276 C 
HETATM   13  O4  UNK     1      17.457  -0.670  17.911  1.00  0.00    -0.266 OA
HETATM   14  N1  UNK     1      19.601   0.232  18.110  1.00  0.00    -0.257 N 
HETATM   15  H7  UNK     1      20.527   0.380  17.721  1.00  0.00     0.191 HD
BRANCH  14  16
HETATM   16  N2  UNK     1      19.365   0.835  19.315  1.00  0.00    -0.237 N 
HETATM   17  C13 UNK     1      18.865   2.069  19.500  1.00  0.00     0.258 A 
HETATM   18  N3  UNK     1      18.784   2.302  20.791  1.00  0.00    -0.142 NA
HETATM   19  N4  UNK     1      19.249   1.177  21.444  1.00  0.00    -0.142 NA
HETATM   20  C14 UNK     1      19.594   0.303  20.527  1.00  0.00     0.258 A 
ENDBRANCH  14  16
ENDBRANCH   7  12
BRANCH   5  21
HETATM   21  O2  UNK     1      20.563  -2.085  11.542  1.00  0.00    -0.349 OA
BRANCH  21  22
HETATM   22  C11 UNK     1      20.410  -2.672  10.250  1.00  0.00     0.171 C 
HETATM   23  C12 UNK     1      21.675  -2.439   9.451  1.00  0.00     0.034 C 
ENDBRANCH  21  22
ENDBRANCH   5  21
TORSDOF 4
ENDMDL
MODEL 10
REMARK VINA RESULT:      -7.7      5.365      8.547
REMARK  4 active torsions:
REMARK  status: ('A' for Active; 'I' for Inactive)
REMARK    1  A    between atoms: C11_19  and  O2_2 
REMARK    2  A    between atoms: C3_11  and  O2_2 
REMARK       I    between atoms: C10_18  and  N1_5 
REMARK    3  A    between atoms: N1_5  and  N2_6 
REMARK    4  A    between atoms: C10_18  and  C5_13 
ROOT
HETATM    1  O1  UNK     1      18.816  -0.572  34.285  1.00  0.00    -0.271 OA
HETATM    2  O3  UNK     1      19.037   0.112  32.115  1.00  0.00    -0.259 OA
HETATM    3  C1  UNK     1      17.935   0.970  35.945  1.00  0.00     0.002 A 
HETATM    4  C2  UNK     1      18.438  -0.284  35.610  1.00  0.00     0.123 A 
HETATM    5  C3  UNK     1      18.587  -1.292  36.560  1.00  0.00     0.103 A 
HETATM    6  C4  UNK     1      17.807   1.978  34.905  1.00  0.00     0.037 A 
HETATM    7  C5  UNK     1      18.168   1.698  33.646  1.00  0.00     0.110 A 
HETATM    8  C6  UNK     1      17.570   1.217  37.270  1.00  0.00     0.014 A 
HETATM    9  C7  UNK     1      18.221  -1.037  37.879  1.00  0.00     0.040 A 
HETATM   10  C8  UNK     1      18.705   0.372  33.267  1.00  0.00     0.304 A 
HETATM   11  C9  UNK     1      17.714   0.215  38.235  1.00  0.00     0.004 A 
ENDROOT
BRANCH   7  12
HETATM   12  C10 UNK     1      18.001   2.779  32.668  1.00  0.00     0.276 C 
HETATM   13  O4  UNK     1      17.653   2.539  31.514  1.00  0.00    -0.266 OA
HETATM   14  N1  UNK     1      18.276   4.025  33.203  1.00  0.00    -0.257 N 
HETATM   15  H7  UNK     1      18.586   4.184  34.156  1.00  0.00     0.191 HD
BRANCH  14  16
HETATM   16  N2  UNK     1      18.168   5.142  32.423  1.00  0.00    -0.237 N 
HETATM   17  C13 UNK     1      19.080   5.583  31.538  1.00  0.00     0.258 A 
HETATM   18  N3  UNK     1      18.630   6.686  30.983  1.00  0.00    -0.142 NA
HETATM   19  N4  UNK     1      17.393   6.952  31.536  1.00  0.00    -0.142 NA
HETATM   20  C14 UNK     1      17.136   6.002  32.405  1.00  0.00     0.258 A 
ENDBRANCH  14  16
ENDBRANCH   7  12
BRANCH   5  21
HETATM   21  O2  UNK     1      19.080  -2.513  36.219  1.00  0.00    -0.349 OA
BRANCH  21  22
HETATM   22  C11 UNK     1      20.446  -2.775  36.540  1.00  0.00     0.171 C 
HETATM   23  C12 UNK     1      20.523  -4.043  37.364  1.00  0.00     0.034 C 
ENDBRANCH  21  22
ENDBRANCH   5  21
TORSDOF 4
ENDMDL
