MODEL 1
REMARK VINA RESULT:      -8.7      0.000      0.000
REMARK  6 active torsions:
REMARK  status: ('A' for Active; 'I' for Inactive)
REMARK    1  A    between atoms: C16_23  and  O2_2 
REMARK    2  A    between atoms: C5_12  and  O2_2 
REMARK    3  A    between atoms: C10_17  and  O3_3 
REMARK    4  A    between atoms: C17_24  and  O3_3 
REMARK    5  A    between atoms: C15_22  and  O5_5 
REMARK    6  A    between atoms: C2_9  and  C6_13 
ROOT
HETATM    1  O1  UNK     1      18.706   4.912  30.206  1.00  0.00    -0.321 OA
HETATM    2  O4  UNK     1      17.864   4.915  34.199  1.00  0.00    -0.286 OA
HETATM    3  C1  UNK     1      18.364   3.671  32.264  1.00  0.00     0.083 A 
HETATM    4  C2  UNK     1      18.140   6.178  32.199  1.00  0.00     0.048 A 
HETATM    5  C3  UNK     1      18.657   3.731  30.902  1.00  0.00     0.094 A 
HETATM    6  C4  UNK     1      18.097   4.922  32.997  1.00  0.00     0.200 A 
HETATM    7  C5  UNK     1      18.328   2.438  32.921  1.00  0.00     0.099 A 
HETATM    8  C7  UNK     1      18.917   2.560  30.190  1.00  0.00     0.075 A 
HETATM    9  C8  UNK     1      18.435   6.069  30.895  1.00  0.00     0.159 A 
HETATM   10  C9  UNK     1      18.589   1.267  32.206  1.00  0.00     0.076 A 
HETATM   11  C10 UNK     1      18.882   1.328  30.844  1.00  0.00     0.084 A 
ENDROOT
BRANCH   4  12
HETATM   12  C6  UNK     1      17.854   7.492  32.799  1.00  0.00    -0.020 A 
HETATM   13  C11 UNK     1      16.577   8.046  32.699  1.00  0.00     0.015 A 
HETATM   14  C13 UNK     1      16.306   9.290  33.268  1.00  0.00     0.037 A 
HETATM   15  C15 UNK     1      17.313   9.984  33.939  1.00  0.00     0.068 A 
HETATM   16  C14 UNK     1      18.591   9.432  34.041  1.00  0.00     0.037 A 
HETATM   17  C12 UNK     1      18.862   8.188  33.472  1.00  0.00     0.015 A 
BRANCH  15  18
HETATM   18  O5  UNK     1      17.049  11.198  34.495  1.00  0.00    -0.356 OA
HETATM   19  C19 UNK     1      18.003  12.235  34.273  1.00  0.00     0.210 C 
ENDBRANCH  15  18
ENDBRANCH   4  12
BRANCH   7  20
HETATM   20  O2  UNK     1      18.049   2.321  34.250  1.00  0.00    -0.278 OA
BRANCH  20  21
HETATM   21  C16 UNK     1      17.401   1.125  34.595  1.00  0.00     0.260 C 
HETATM   22  O6  UNK     1      16.304   0.763  34.191  1.00  0.00    -0.265 OA
HETATM   23  C18 UNK     1      18.252   0.338  35.547  1.00  0.00     0.126 C 
ENDBRANCH  20  21
ENDBRANCH   7  20
BRANCH  11  24
HETATM   24  O3  UNK     1      19.133   0.183  30.151  1.00  0.00    -0.279 OA
BRANCH  24  25
HETATM   25  C17 UNK     1      20.468  -0.247  30.221  1.00  0.00     0.260 C 
HETATM   26  O7  UNK     1      21.176  -0.223  31.219  1.00  0.00    -0.265 OA
HETATM   27  C20 UNK     1      20.917  -0.746  28.879  1.00  0.00     0.126 C 
ENDBRANCH  24  25
ENDBRANCH  11  24
TORSDOF 6
ENDMDL
MODEL 2
REMARK VINA RESULT:      -8.2      1.770      3.458
REMARK  6 active torsions:
REMARK  status: ('A' for Active; 'I' for Inactive)
REMARK    1  A    between atoms: C16_23  and  O2_2 
REMARK    2  A    between atoms: C5_12  and  O2_2 
REMARK    3  A    between atoms: C10_17  and  O3_3 
REMARK    4  A    between atoms: C17_24  and  O3_3 
REMARK    5  A    between atoms: C15_22  and  O5_5 
REMARK    6  A    between atoms: C2_9  and  C6_13 
ROOT
HETATM    1  O1  UNK     1      18.131   2.226  34.361  1.00  0.00    -0.321 OA
HETATM    2  O4  UNK     1      18.684   4.118  30.789  1.00  0.00    -0.286 OA
HETATM    3  C1  UNK     1      18.730   2.108  32.012  1.00  0.00     0.083 A 
HETATM    4  C2  UNK     1      18.138   4.300  33.099  1.00  0.00     0.048 A 
HETATM    5  C3  UNK     1      18.516   1.512  33.255  1.00  0.00     0.094 A 
HETATM    6  C4  UNK     1      18.535   3.563  31.869  1.00  0.00     0.200 A 
HETATM    7  C5  UNK     1      19.121   1.330  30.918  1.00  0.00     0.099 A 
HETATM    8  C7  UNK     1      18.690   0.137  33.411  1.00  0.00     0.075 A 
HETATM    9  C8  UNK     1      17.973   3.583  34.221  1.00  0.00     0.159 A 
HETATM   10  C9  UNK     1      19.295  -0.046  31.077  1.00  0.00     0.076 A 
HETATM   11  C10 UNK     1      19.081  -0.641  32.321  1.00  0.00     0.084 A 
ENDROOT
BRANCH   4  12
HETATM   12  C6  UNK     1      17.948   5.761  33.105  1.00  0.00    -0.020 A 
HETATM   13  C11 UNK     1      16.805   6.321  32.531  1.00  0.00     0.015 A 
HETATM   14  C13 UNK     1      16.625   7.704  32.537  1.00  0.00     0.037 A 
HETATM   15  C15 UNK     1      17.588   8.530  33.116  1.00  0.00     0.068 A 
HETATM   16  C14 UNK     1      18.731   7.972  33.691  1.00  0.00     0.037 A 
HETATM   17  C12 UNK     1      18.911   6.589  33.685  1.00  0.00     0.015 A 
BRANCH  15  18
HETATM   18  O5  UNK     1      17.412   9.880  33.122  1.00  0.00    -0.356 OA
HETATM   19  C19 UNK     1      16.768  10.446  34.262  1.00  0.00     0.210 C 
ENDBRANCH  15  18
ENDBRANCH   4  12
BRANCH   7  20
HETATM   20  O2  UNK     1      19.342   1.859  29.682  1.00  0.00    -0.278 OA
BRANCH  20  21
HETATM   21  C16 UNK     1      18.403   1.465  28.716  1.00  0.00     0.260 C 
HETATM   22  O6  UNK     1      17.411   2.099  28.382  1.00  0.00    -0.265 OA
HETATM   23  C18 UNK     1      18.789   0.136  28.138  1.00  0.00     0.126 C 
ENDBRANCH  20  21
ENDBRANCH   7  20
BRANCH  11  24
HETATM   24  O3  UNK     1      19.254  -1.983  32.471  1.00  0.00    -0.279 OA
BRANCH  24  25
HETATM   25  C17 UNK     1      20.598  -2.391  32.465  1.00  0.00     0.260 C 
HETATM   26  O7  UNK     1      21.405  -2.210  33.367  1.00  0.00    -0.265 OA
HETATM   27  C20 UNK     1      20.916  -3.090  31.176  1.00  0.00     0.126 C 
ENDBRANCH  24  25
ENDBRANCH  11  24
TORSDOF 6
ENDMDL
MODEL 3
REMARK VINA RESULT:      -8.1      4.794     10.748
REMARK  6 active torsions:
REMARK  status: ('A' for Active; 'I' for Inactive)
REMARK    1  A    between atoms: C16_23  and  O2_2 
REMARK    2  A    between atoms: C5_12  and  O2_2 
REMARK    3  A    between atoms: C10_17  and  O3_3 
REMARK    4  A    between atoms: C17_24  and  O3_3 
REMARK    5  A    between atoms: C15_22  and  O5_5 
REMARK    6  A    between atoms: C2_9  and  C6_13 
ROOT
HETATM    1  O1  UNK     1      18.377  -1.231  36.731  1.00  0.00    -0.321 OA
HETATM    2  O4  UNK     1      20.513  -3.646  34.232  1.00  0.00    -0.286 OA
HETATM    3  C1  UNK     1      19.237  -1.689  34.508  1.00  0.00     0.083 A 
HETATM    4  C2  UNK     1      19.652  -3.273  36.420  1.00  0.00     0.048 A 
HETATM    5  C3  UNK     1      18.526  -0.896  35.410  1.00  0.00     0.094 A 
HETATM    6  C4  UNK     1      19.858  -2.938  34.985  1.00  0.00     0.200 A 
HETATM    7  C5  UNK     1      19.357  -1.297  33.172  1.00  0.00     0.099 A 
HETATM    8  C7  UNK     1      17.935   0.292  34.981  1.00  0.00     0.075 A 
HETATM    9  C8  UNK     1      18.942  -2.407  37.159  1.00  0.00     0.159 A 
HETATM   10  C9  UNK     1      18.764  -0.107  32.746  1.00  0.00     0.076 A 
HETATM   11  C10 UNK     1      18.054   0.685  33.648  1.00  0.00     0.084 A 
ENDROOT
BRANCH   4  12
HETATM   12  C6  UNK     1      20.186  -4.510  37.015  1.00  0.00    -0.020 A 
HETATM   13  C11 UNK     1      19.476  -5.707  36.898  1.00  0.00     0.015 A 
HETATM   14  C13 UNK     1      19.982  -6.879  37.460  1.00  0.00     0.037 A 
HETATM   15  C15 UNK     1      21.198  -6.856  38.143  1.00  0.00     0.068 A 
HETATM   16  C14 UNK     1      21.909  -5.661  38.261  1.00  0.00     0.037 A 
HETATM   17  C12 UNK     1      21.404  -4.489  37.699  1.00  0.00     0.015 A 
BRANCH  15  18
HETATM   18  O5  UNK     1      21.692  -7.999  38.692  1.00  0.00    -0.356 OA
HETATM   19  C19 UNK     1      22.547  -7.859  39.826  1.00  0.00     0.210 C 
ENDBRANCH  15  18
ENDBRANCH   4  12
BRANCH   7  20
HETATM   20  O2  UNK     1      20.040  -2.031  32.250  1.00  0.00    -0.278 OA
BRANCH  20  21
HETATM   21  C16 UNK     1      20.575  -1.272  31.197  1.00  0.00     0.260 C 
HETATM   22  O6  UNK     1      21.220  -0.239  31.314  1.00  0.00    -0.265 OA
HETATM   23  C18 UNK     1      20.242  -1.914  29.882  1.00  0.00     0.126 C 
ENDBRANCH  20  21
ENDBRANCH   7  20
BRANCH  11  24
HETATM   24  O3  UNK     1      17.475   1.843  33.226  1.00  0.00    -0.279 OA
BRANCH  24  25
HETATM   25  C17 UNK     1      18.203   3.000  33.553  1.00  0.00     0.260 C 
HETATM   26  O7  UNK     1      18.733   3.230  34.631  1.00  0.00    -0.265 OA
HETATM   27  C20 UNK     1      18.239   3.932  32.379  1.00  0.00     0.126 C 
ENDBRANCH  24  25
ENDBRANCH  11  24
TORSDOF 6
ENDMDL
MODEL 4
REMARK VINA RESULT:      -8.1      1.678      2.154
REMARK  6 active torsions:
REMARK  status: ('A' for Active; 'I' for Inactive)
REMARK    1  A    between atoms: C16_23  and  O2_2 
REMARK    2  A    between atoms: C5_12  and  O2_2 
REMARK    3  A    between atoms: C10_17  and  O3_3 
REMARK    4  A    between atoms: C17_24  and  O3_3 
REMARK    5  A    between atoms: C15_22  and  O5_5 
REMARK    6  A    between atoms: C2_9  and  C6_13 
ROOT
HETATM    1  O1  UNK     1      18.862   2.645  30.691  1.00  0.00    -0.321 OA
HETATM    2  O4  UNK     1      18.030   3.588  34.573  1.00  0.00    -0.286 OA
HETATM    3  C1  UNK     1      18.466   1.918  32.973  1.00  0.00     0.083 A 
HETATM    4  C2  UNK     1      18.361   4.354  32.342  1.00  0.00     0.048 A 
HETATM    5  C3  UNK     1      18.759   1.655  31.635  1.00  0.00     0.094 A 
HETATM    6  C4  UNK     1      18.260   3.314  33.402  1.00  0.00     0.200 A 
HETATM    7  C5  UNK     1      18.374   0.868  33.891  1.00  0.00     0.099 A 
HETATM    8  C7  UNK     1      18.962   0.342  31.208  1.00  0.00     0.075 A 
HETATM    9  C8  UNK     1      18.648   3.939  31.099  1.00  0.00     0.159 A 
HETATM   10  C9  UNK     1      18.577  -0.444  33.462  1.00  0.00     0.076 A 
HETATM   11  C10 UNK     1      18.870  -0.706  32.123  1.00  0.00     0.084 A 
ENDROOT
BRANCH   4  12
HETATM   12  C6  UNK     1      18.139   5.781  32.627  1.00  0.00    -0.020 A 
HETATM   13  C11 UNK     1      16.922   6.381  32.296  1.00  0.00     0.015 A 
HETATM   14  C13 UNK     1      16.712   7.733  32.568  1.00  0.00     0.037 A 
HETATM   15  C15 UNK     1      17.718   8.488  33.171  1.00  0.00     0.068 A 
HETATM   16  C14 UNK     1      18.934   7.890  33.503  1.00  0.00     0.037 A 
HETATM   17  C12 UNK     1      19.145   6.538  33.231  1.00  0.00     0.015 A 
BRANCH  15  18
HETATM   18  O5  UNK     1      17.512   9.807  33.436  1.00  0.00    -0.356 OA
HETATM   19  C19 UNK     1      18.615  10.543  33.962  1.00  0.00     0.210 C 
ENDBRANCH  15  18
ENDBRANCH   4  12
BRANCH   7  20
HETATM   20  O2  UNK     1      18.093   1.068  35.210  1.00  0.00    -0.278 OA
BRANCH  20  21
HETATM   21  C16 UNK     1      17.223   0.114  35.760  1.00  0.00     0.260 C 
HETATM   22  O6  UNK     1      17.541  -0.795  36.514  1.00  0.00    -0.265 OA
HETATM   23  C18 UNK     1      15.822   0.365  35.286  1.00  0.00     0.126 C 
ENDBRANCH  20  21
ENDBRANCH   7  20
BRANCH  11  24
HETATM   24  O3  UNK     1      19.065  -1.989  31.709  1.00  0.00    -0.279 OA
BRANCH  24  25
HETATM   25  C17 UNK     1      20.381  -2.264  31.299  1.00  0.00     0.260 C 
HETATM   26  O7  UNK     1      20.773  -2.317  30.141  1.00  0.00    -0.265 OA
HETATM   27  C20 UNK     1      21.253  -2.494  32.497  1.00  0.00     0.126 C 
ENDBRANCH  24  25
ENDBRANCH  11  24
TORSDOF 6
ENDMDL
MODEL 5
REMARK VINA RESULT:      -7.9     14.362     16.875
REMARK  6 active torsions:
REMARK  status: ('A' for Active; 'I' for Inactive)
REMARK    1  A    between atoms: C16_23  and  O2_2 
REMARK    2  A    between atoms: C5_12  and  O2_2 
REMARK    3  A    between atoms: C10_17  and  O3_3 
REMARK    4  A    between atoms: C17_24  and  O3_3 
REMARK    5  A    between atoms: C15_22  and  O5_5 
REMARK    6  A    between atoms: C2_9  and  C6_13 
ROOT
HETATM    1  O1  UNK     1      25.817  -5.051  38.800  1.00  0.00    -0.321 OA
HETATM    2  O4  UNK     1      26.130  -9.119  38.767  1.00  0.00    -0.286 OA
HETATM    3  C1  UNK     1      27.219  -7.033  38.767  1.00  0.00     0.083 A 
HETATM    4  C2  UNK     1      24.707  -7.210  38.748  1.00  0.00     0.048 A 
HETATM    5  C3  UNK     1      27.052  -5.648  38.789  1.00  0.00     0.094 A 
HETATM    6  C4  UNK     1      26.026  -7.900  38.757  1.00  0.00     0.200 A 
HETATM    7  C5  UNK     1      28.502  -7.586  38.758  1.00  0.00     0.099 A 
HETATM    8  C7  UNK     1      28.167  -4.809  38.804  1.00  0.00     0.075 A 
HETATM    9  C8  UNK     1      24.714  -5.868  38.770  1.00  0.00     0.159 A 
HETATM   10  C9  UNK     1      29.616  -6.744  38.772  1.00  0.00     0.076 A 
HETATM   11  C10 UNK     1      29.448  -5.359  38.794  1.00  0.00     0.084 A 
ENDROOT
BRANCH   4  12
HETATM   12  C6  UNK     1      23.438  -7.956  38.699  1.00  0.00    -0.020 A 
HETATM   13  C11 UNK     1      23.000  -8.514  37.497  1.00  0.00     0.015 A 
HETATM   14  C13 UNK     1      21.799  -9.222  37.451  1.00  0.00     0.037 A 
HETATM   15  C15 UNK     1      21.033  -9.372  38.607  1.00  0.00     0.068 A 
HETATM   16  C14 UNK     1      21.470  -8.815  39.810  1.00  0.00     0.037 A 
HETATM   17  C12 UNK     1      22.671  -8.107  39.856  1.00  0.00     0.015 A 
BRANCH  15  18
HETATM   18  O5  UNK     1      19.861 -10.062  38.563  1.00  0.00    -0.356 OA
HETATM   19  C19 UNK     1      19.590 -10.807  37.376  1.00  0.00     0.210 C 
ENDBRANCH  15  18
ENDBRANCH   4  12
BRANCH   7  20
HETATM   20  O2  UNK     1      28.723  -8.930  38.739  1.00  0.00    -0.278 OA
BRANCH  20  21
HETATM   21  C16 UNK     1      29.552  -9.358  37.690  1.00  0.00     0.260 C 
HETATM   22  O6  UNK     1      29.296  -9.278  36.496  1.00  0.00    -0.265 OA
HETATM   23  C18 UNK     1      30.819  -9.940  38.244  1.00  0.00     0.126 C 
ENDBRANCH  20  21
ENDBRANCH   7  20
BRANCH  11  24
HETATM   24  O3  UNK     1      30.538  -4.543  38.805  1.00  0.00    -0.279 OA
BRANCH  24  25
HETATM   25  C17 UNK     1      31.432  -4.765  37.744  1.00  0.00     0.260 C 
HETATM   26  O7  UNK     1      31.183  -4.609  36.556  1.00  0.00    -0.265 OA
HETATM   27  C20 UNK     1      32.755  -5.230  38.276  1.00  0.00     0.126 C 
ENDBRANCH  24  25
ENDBRANCH  11  24
TORSDOF 6
ENDMDL
MODEL 6
REMARK VINA RESULT:      -7.8      2.094      8.694
REMARK  6 active torsions:
REMARK  status: ('A' for Active; 'I' for Inactive)
REMARK    1  A    between atoms: C16_23  and  O2_2 
REMARK    2  A    between atoms: C5_12  and  O2_2 
REMARK    3  A    between atoms: C10_17  and  O3_3 
REMARK    4  A    between atoms: C17_24  and  O3_3 
REMARK    5  A    between atoms: C15_22  and  O5_5 
REMARK    6  A    between atoms: C2_9  and  C6_13 
ROOT
HETATM    1  O1  UNK     1      20.009   7.810  33.573  1.00  0.00    -0.321 OA
HETATM    2  O4  UNK     1      16.465   6.735  31.860  1.00  0.00    -0.286 OA
HETATM    3  C1  UNK     1      17.706   8.355  33.033  1.00  0.00     0.083 A 
HETATM    4  C2  UNK     1      18.702   6.128  32.408  1.00  0.00     0.048 A 
HETATM    5  C3  UNK     1      18.943   8.673  33.593  1.00  0.00     0.094 A 
HETATM    6  C4  UNK     1      17.526   7.041  32.388  1.00  0.00     0.200 A 
HETATM    7  C5  UNK     1      16.655   9.275  33.082  1.00  0.00     0.099 A 
HETATM    8  C7  UNK     1      19.136   9.912  34.204  1.00  0.00     0.075 A 
HETATM    9  C8  UNK     1      19.823   6.581  32.989  1.00  0.00     0.159 A 
HETATM   10  C9  UNK     1      16.851  10.515  33.694  1.00  0.00     0.076 A 
HETATM   11  C10 UNK     1      18.089  10.832  34.255  1.00  0.00     0.084 A 
ENDROOT
BRANCH   4  12
HETATM   12  C6  UNK     1      18.645   4.773  31.834  1.00  0.00    -0.020 A 
HETATM   13  C11 UNK     1      18.938   4.571  30.485  1.00  0.00     0.015 A 
HETATM   14  C13 UNK     1      18.886   3.288  29.941  1.00  0.00     0.037 A 
HETATM   15  C15 UNK     1      18.540   2.203  30.747  1.00  0.00     0.068 A 
HETATM   16  C14 UNK     1      18.247   2.402  32.097  1.00  0.00     0.037 A 
HETATM   17  C12 UNK     1      18.299   3.686  32.640  1.00  0.00     0.015 A 
BRANCH  15  18
HETATM   18  O5  UNK     1      18.489   0.950  30.217  1.00  0.00    -0.356 OA
HETATM   19  C19 UNK     1      19.518   0.592  29.297  1.00  0.00     0.210 C 
ENDBRANCH  15  18
ENDBRANCH   4  12
BRANCH   7  20
HETATM   20  O2  UNK     1      15.428   9.018  32.550  1.00  0.00    -0.278 OA
BRANCH  20  21
HETATM   21  C16 UNK     1      14.390   8.986  33.494  1.00  0.00     0.260 C 
HETATM   22  O6  UNK     1      13.754   9.953  33.892  1.00  0.00    -0.265 OA
HETATM   23  C18 UNK     1      14.164   7.578  33.959  1.00  0.00     0.126 C 
ENDBRANCH  20  21
ENDBRANCH   7  20
BRANCH  11  24
HETATM   24  O3  UNK     1      18.274  12.041  34.852  1.00  0.00    -0.279 OA
BRANCH  24  25
HETATM   25  C17 UNK     1      18.214  13.132  33.969  1.00  0.00     0.260 C 
HETATM   26  O7  UNK     1      18.786  13.211  32.890  1.00  0.00    -0.265 OA
HETATM   27  C20 UNK     1      17.340  14.208  34.542  1.00  0.00     0.126 C 
ENDBRANCH  24  25
ENDBRANCH  11  24
TORSDOF 6
ENDMDL
MODEL 7
REMARK VINA RESULT:      -7.7      2.502      8.406
REMARK  6 active torsions:
REMARK  status: ('A' for Active; 'I' for Inactive)
REMARK    1  A    between atoms: C16_23  and  O2_2 
REMARK    2  A    between atoms: C5_12  and  O2_2 
REMARK    3  A    between atoms: C10_17  and  O3_3 
REMARK    4  A    between atoms: C17_24  and  O3_3 
REMARK    5  A    between atoms: C15_22  and  O5_5 
REMARK    6  A    between atoms: C2_9  and  C6_13 
ROOT
HETATM    1  O1  UNK     1      19.086   3.455  35.454  1.00  0.00    -0.321 OA
HETATM    2  O4  UNK     1      18.045   0.520  32.818  1.00  0.00    -0.286 OA
HETATM    3  C1  UNK     1      18.315   2.819  33.242  1.00  0.00     0.083 A 
HETATM    4  C2  UNK     1      18.754   1.089  35.019  1.00  0.00     0.048 A 
HETATM    5  C3  UNK     1      18.691   3.779  34.181  1.00  0.00     0.094 A 
HETATM    6  C4  UNK     1      18.340   1.394  33.622  1.00  0.00     0.200 A 
HETATM    7  C5  UNK     1      17.922   3.208  31.958  1.00  0.00     0.099 A 
HETATM    8  C7  UNK     1      18.679   5.132  33.841  1.00  0.00     0.075 A 
HETATM    9  C8  UNK     1      19.085   2.127  35.802  1.00  0.00     0.159 A 
HETATM   10  C9  UNK     1      17.911   4.563  31.621  1.00  0.00     0.076 A 
HETATM   11  C10 UNK     1      18.287   5.522  32.561  1.00  0.00     0.084 A 
ENDROOT
BRANCH   4  12
HETATM   12  C6  UNK     1      18.785  -0.288  35.539  1.00  0.00    -0.020 A 
HETATM   13  C11 UNK     1      19.846  -1.135  35.214  1.00  0.00     0.015 A 
HETATM   14  C13 UNK     1      19.877  -2.440  35.707  1.00  0.00     0.037 A 
HETATM   15  C15 UNK     1      18.845  -2.900  36.526  1.00  0.00     0.068 A 
HETATM   16  C14 UNK     1      17.785  -2.054  36.853  1.00  0.00     0.037 A 
HETATM   17  C12 UNK     1      17.754  -0.750  36.359  1.00  0.00     0.015 A 
BRANCH  15  18
HETATM   18  O5  UNK     1      18.875  -4.172  37.008  1.00  0.00    -0.356 OA
HETATM   19  C19 UNK     1      20.142  -4.827  37.037  1.00  0.00     0.210 C 
ENDBRANCH  15  18
ENDBRANCH   4  12
BRANCH   7  20
HETATM   20  O2  UNK     1      17.547   2.313  31.002  1.00  0.00    -0.278 OA
BRANCH  20  21
HETATM   21  C16 UNK     1      18.523   2.079  30.022  1.00  0.00     0.260 C 
HETATM   22  O6  UNK     1      19.704   1.836  30.231  1.00  0.00    -0.265 OA
HETATM   23  C18 UNK     1      17.911   2.172  28.656  1.00  0.00     0.126 C 
ENDBRANCH  20  21
ENDBRANCH   7  20
BRANCH  11  24
HETATM   24  O3  UNK     1      18.272   6.842  32.228  1.00  0.00    -0.279 OA
BRANCH  24  25
HETATM   25  C17 UNK     1      17.006   7.325  31.855  1.00  0.00     0.260 C 
HETATM   26  O7  UNK     1      16.722   7.829  30.777  1.00  0.00    -0.265 OA
HETATM   27  C20 UNK     1      16.034   7.138  32.982  1.00  0.00     0.126 C 
ENDBRANCH  24  25
ENDBRANCH  11  24
TORSDOF 6
ENDMDL
MODEL 8
REMARK VINA RESULT:      -7.6     14.142     17.183
REMARK  6 active torsions:
REMARK  status: ('A' for Active; 'I' for Inactive)
REMARK    1  A    between atoms: C16_23  and  O2_2 
REMARK    2  A    between atoms: C5_12  and  O2_2 
REMARK    3  A    between atoms: C10_17  and  O3_3 
REMARK    4  A    between atoms: C17_24  and  O3_3 
REMARK    5  A    between atoms: C15_22  and  O5_5 
REMARK    6  A    between atoms: C2_9  and  C6_13 
ROOT
HETATM    1  O1  UNK     1      28.054  -9.870  38.450  1.00  0.00    -0.321 OA
HETATM    2  O4  UNK     1      26.473  -6.139  37.968  1.00  0.00    -0.286 OA
HETATM    3  C1  UNK     1      28.394  -7.479  38.201  1.00  0.00     0.083 A 
HETATM    4  C2  UNK     1      26.079  -8.470  38.260  1.00  0.00     0.048 A 
HETATM    5  C3  UNK     1      28.879  -8.778  38.356  1.00  0.00     0.094 A 
HETATM    6  C4  UNK     1      26.937  -7.260  38.132  1.00  0.00     0.200 A 
HETATM    7  C5  UNK     1      29.282  -6.404  38.109  1.00  0.00     0.099 A 
HETATM    8  C7  UNK     1      30.253  -9.008  38.418  1.00  0.00     0.075 A 
HETATM    9  C8  UNK     1      26.699  -9.651  38.406  1.00  0.00     0.159 A 
HETATM   10  C9  UNK     1      30.657  -6.638  38.172  1.00  0.00     0.076 A 
HETATM   11  C10 UNK     1      31.141  -7.937  38.328  1.00  0.00     0.084 A 
ENDROOT
BRANCH   4  12
HETATM   12  C6  UNK     1      24.609  -8.387  38.247  1.00  0.00    -0.020 A 
HETATM   13  C11 UNK     1      23.932  -7.789  39.311  1.00  0.00     0.015 A 
HETATM   14  C13 UNK     1      22.539  -7.709  39.298  1.00  0.00     0.037 A 
HETATM   15  C15 UNK     1      21.821  -8.228  38.221  1.00  0.00     0.068 A 
HETATM   16  C14 UNK     1      22.496  -8.825  37.156  1.00  0.00     0.037 A 
HETATM   17  C12 UNK     1      23.889  -8.905  37.169  1.00  0.00     0.015 A 
BRANCH  15  18
HETATM   18  O5  UNK     1      20.462  -8.151  38.208  1.00  0.00    -0.356 OA
HETATM   19  C19 UNK     1      19.867  -7.062  38.913  1.00  0.00     0.210 C 
ENDBRANCH  15  18
ENDBRANCH   4  12
BRANCH   7  20
HETATM   20  O2  UNK     1      28.864  -5.116  37.955  1.00  0.00    -0.278 OA
BRANCH  20  21
HETATM   21  C16 UNK     1      29.660  -4.173  38.622  1.00  0.00     0.260 C 
HETATM   22  O6  UNK     1      29.618  -3.918  39.818  1.00  0.00    -0.265 OA
HETATM   23  C18 UNK     1      30.588  -3.506  37.650  1.00  0.00     0.126 C 
ENDBRANCH  20  21
ENDBRANCH   7  20
BRANCH  11  24
HETATM   24  O3  UNK     1      32.483  -8.159  38.391  1.00  0.00    -0.279 OA
BRANCH  24  25
HETATM   25  C17 UNK     1      33.164  -7.901  37.189  1.00  0.00     0.260 C 
HETATM   26  O7  UNK     1      32.938  -8.434  36.111  1.00  0.00    -0.265 OA
HETATM   27  C20 UNK     1      34.227  -6.867  37.414  1.00  0.00     0.126 C 
ENDBRANCH  24  25
ENDBRANCH  11  24
TORSDOF 6
ENDMDL
MODEL 9
REMARK VINA RESULT:      -7.6      2.718      5.500
REMARK  6 active torsions:
REMARK  status: ('A' for Active; 'I' for Inactive)
REMARK    1  A    between atoms: C16_23  and  O2_2 
REMARK    2  A    between atoms: C5_12  and  O2_2 
REMARK    3  A    between atoms: C10_17  and  O3_3 
REMARK    4  A    between atoms: C17_24  and  O3_3 
REMARK    5  A    between atoms: C15_22  and  O5_5 
REMARK    6  A    between atoms: C2_9  and  C6_13 
ROOT
HETATM    1  O1  UNK     1      19.606   8.666  34.398  1.00  0.00    -0.321 OA
HETATM    2  O4  UNK     1      16.178  10.240  32.842  1.00  0.00    -0.286 OA
HETATM    3  C1  UNK     1      17.533   8.345  33.176  1.00  0.00     0.083 A 
HETATM    4  C2  UNK     1      18.223  10.622  34.001  1.00  0.00     0.048 A 
HETATM    5  C3  UNK     1      18.715   7.860  33.737  1.00  0.00     0.094 A 
HETATM    6  C4  UNK     1      17.218   9.781  33.295  1.00  0.00     0.200 A 
HETATM    7  C5  UNK     1      16.661   7.476  32.515  1.00  0.00     0.099 A 
HETATM    8  C7  UNK     1      19.030   6.504  33.640  1.00  0.00     0.075 A 
HETATM    9  C8  UNK     1      19.312  10.005  34.483  1.00  0.00     0.159 A 
HETATM   10  C9  UNK     1      16.979   6.120  32.419  1.00  0.00     0.076 A 
HETATM   11  C10 UNK     1      18.162   5.636  32.979  1.00  0.00     0.084 A 
ENDROOT
BRANCH   4  12
HETATM   12  C6  UNK     1      18.050  12.076  34.155  1.00  0.00    -0.020 A 
HETATM   13  C11 UNK     1      18.783  12.957  33.358  1.00  0.00     0.015 A 
HETATM   14  C13 UNK     1      18.619  14.335  33.504  1.00  0.00     0.037 A 
HETATM   15  C15 UNK     1      17.722  14.834  34.447  1.00  0.00     0.068 A 
HETATM   16  C14 UNK     1      16.987  13.955  35.245  1.00  0.00     0.037 A 
HETATM   17  C12 UNK     1      17.152  12.578  35.099  1.00  0.00     0.015 A 
BRANCH  15  18
HETATM   18  O5  UNK     1      17.561  16.178  34.589  1.00  0.00    -0.356 OA
HETATM   19  C19 UNK     1      18.221  17.015  33.641  1.00  0.00     0.210 C 
ENDBRANCH  15  18
ENDBRANCH   4  12
BRANCH   7  20
HETATM   20  O2  UNK     1      15.494   7.895  31.951  1.00  0.00    -0.278 OA
BRANCH  20  21
HETATM   21  C16 UNK     1      14.352   7.251  32.453  1.00  0.00     0.260 C 
HETATM   22  O6  UNK     1      13.569   6.572  31.803  1.00  0.00    -0.265 OA
HETATM   23  C18 UNK     1      14.221   7.515  33.924  1.00  0.00     0.126 C 
ENDBRANCH  20  21
ENDBRANCH   7  20
BRANCH  11  24
HETATM   24  O3  UNK     1      18.468   4.313  32.881  1.00  0.00    -0.279 OA
BRANCH  24  25
HETATM   25  C17 UNK     1      18.261   3.770  31.602  1.00  0.00     0.260 C 
HETATM   26  O7  UNK     1      17.460   2.889  31.321  1.00  0.00    -0.265 OA
HETATM   27  C20 UNK     1      19.177   4.426  30.612  1.00  0.00     0.126 C 
ENDBRANCH  24  25
ENDBRANCH  11  24
TORSDOF 6
ENDMDL
MODEL 10
REMARK VINA RESULT:      -7.4     23.670     25.211
REMARK  6 active torsions:
REMARK  status: ('A' for Active; 'I' for Inactive)
REMARK    1  A    between atoms: C16_23  and  O2_2 
REMARK    2  A    between atoms: C5_12  and  O2_2 
REMARK    3  A    between atoms: C10_17  and  O3_3 
REMARK    4  A    between atoms: C17_24  and  O3_3 
REMARK    5  A    between atoms: C15_22  and  O5_5 
REMARK    6  A    between atoms: C2_9  and  C6_13 
ROOT
HETATM    1  O1  UNK     1      12.187   7.059   7.732  1.00  0.00    -0.321 OA
HETATM    2  O4  UNK     1      12.526  10.199  10.316  1.00  0.00    -0.286 OA
HETATM    3  C1  UNK     1      11.133   8.624   9.259  1.00  0.00     0.083 A 
HETATM    4  C2  UNK     1      13.605   8.722   8.790  1.00  0.00     0.048 A 
HETATM    5  C3  UNK     1      11.078   7.547   8.374  1.00  0.00     0.094 A 
HETATM    6  C4  UNK     1      12.432   9.270   9.524  1.00  0.00     0.200 A 
HETATM    7  C5  UNK     1       9.969   9.077   9.887  1.00  0.00     0.099 A 
HETATM    8  C7  UNK     1       9.860   6.918   8.113  1.00  0.00     0.075 A 
HETATM    9  C8  UNK     1      13.387   7.683   7.970  1.00  0.00     0.159 A 
HETATM   10  C9  UNK     1       8.752   8.446   9.623  1.00  0.00     0.076 A 
HETATM   11  C10 UNK     1       8.698   7.370   8.737  1.00  0.00     0.084 A 
ENDROOT
BRANCH   4  12
HETATM   12  C6  UNK     1      14.952   9.300   8.932  1.00  0.00    -0.020 A 
HETATM   13  C11 UNK     1      15.293  10.463   8.240  1.00  0.00     0.015 A 
HETATM   14  C13 UNK     1      16.568  11.011   8.376  1.00  0.00     0.037 A 
HETATM   15  C15 UNK     1      17.506  10.396   9.205  1.00  0.00     0.068 A 
HETATM   16  C14 UNK     1      17.167   9.233   9.899  1.00  0.00     0.037 A 
HETATM   17  C12 UNK     1      15.892   8.685   9.763  1.00  0.00     0.015 A 
BRANCH  15  18
HETATM   18  O5  UNK     1      18.751  10.930   9.339  1.00  0.00    -0.356 OA
HETATM   19  C19 UNK     1      19.182  11.834   8.323  1.00  0.00     0.210 C 
ENDBRANCH  15  18
ENDBRANCH   4  12
BRANCH   7  20
HETATM   20  O2  UNK     1       9.966  10.123  10.760  1.00  0.00    -0.278 OA
BRANCH  20  21
HETATM   21  C16 UNK     1       9.324  11.272  10.274  1.00  0.00     0.260 C 
HETATM   22  O6  UNK     1       9.627  11.888   9.261  1.00  0.00    -0.265 OA
HETATM   23  C18 UNK     1       8.194  11.652  11.185  1.00  0.00     0.126 C 
ENDBRANCH  20  21
ENDBRANCH   7  20
BRANCH  11  24
HETATM   24  O3  UNK     1       7.508   6.759   8.482  1.00  0.00    -0.279 OA
BRANCH  24  25
HETATM   25  C17 UNK     1       7.450   5.419   8.901  1.00  0.00     0.260 C 
HETATM   26  O7  UNK     1       7.419   4.441   8.165  1.00  0.00    -0.265 OA
HETATM   27  C20 UNK     1       7.427   5.350  10.399  1.00  0.00     0.126 C 
ENDBRANCH  24  25
ENDBRANCH  11  24
TORSDOF 6
ENDMDL
