MODEL 1
REMARK VINA RESULT:     -10.0      0.000      0.000
REMARK  3 active torsions:
REMARK  status: ('A' for Active; 'I' for Inactive)
REMARK    1  A    between atoms: C5_13  and  N1_7 
REMARK       I    between atoms: C6_14  and  N1_7 
REMARK    2  A    between atoms: C10_18  and  N2_8 
REMARK    3  A    between atoms: C2_10  and  C6_14 
ROOT
HETATM    1  O2  UNK     1      17.057  -1.773  17.000  1.00  0.00    -0.267 OA
HETATM    2  N1  UNK     1      19.140  -0.698  16.773  1.00  0.00    -0.321 N 
HETATM    3  C6  UNK     1      18.125  -1.577  16.423  1.00  0.00     0.262 C 
HETATM    4  H3  UNK     1      19.946  -0.686  16.158  1.00  0.00     0.169 HD
ENDROOT
BRANCH   3   5
HETATM    5  C2  UNK     1      18.439  -2.326  15.200  1.00  0.00     0.108 A 
HETATM    6  C4  UNK     1      18.171  -3.638  15.224  1.00  0.00     0.037 A 
HETATM    7  C1  UNK     1      18.448  -4.465  14.061  1.00  0.00     0.001 A 
HETATM    8  C3  UNK     1      18.995  -3.871  12.927  1.00  0.00     0.089 A 
HETATM    9  C7  UNK     1      18.184  -5.837  14.042  1.00  0.00     0.038 A 
HETATM   10  O1  UNK     1      19.276  -2.491  12.908  1.00  0.00    -0.274 OA
HETATM   11  C9  UNK     1      19.284  -4.607  11.781  1.00  0.00     0.040 A 
HETATM   12  C8  UNK     1      19.021  -1.674  14.006  1.00  0.00     0.304 A 
HETATM   13  O3  UNK     1      19.269  -0.474  13.980  1.00  0.00    -0.259 OA
HETATM   14  C12 UNK     1      19.018  -5.975  11.770  1.00  0.00     0.026 A 
HETATM   15  C11 UNK     1      18.469  -6.588  12.899  1.00  0.00     0.035 A 
HETATM   16 Cl1  UNK     1      18.142  -8.278  12.881  1.00  0.00    -0.084 Cl
ENDBRANCH   3   5
BRANCH   2  17
HETATM   17  C5  UNK     1      19.178   0.178  17.885  1.00  0.00     0.068 A 
HETATM   18  C10 UNK     1      19.233   1.551  17.699  1.00  0.00     0.129 A 
HETATM   19  C14 UNK     1      19.267   2.391  18.812  1.00  0.00     0.038 A 
HETATM   20  C16 UNK     1      19.247   1.847  20.098  1.00  0.00     0.003 A 
HETATM   21  C15 UNK     1      19.191   0.464  20.268  1.00  0.00     0.002 A 
HETATM   22  C13 UNK     1      19.157  -0.375  19.156  1.00  0.00     0.032 A 
BRANCH  18  23
HETATM   23  N2  UNK     1      19.257   2.131  16.400  1.00  0.00    -0.113 N 
HETATM   24  O4  UNK     1      18.417   3.017  16.118  1.00  0.00    -0.532 OA
HETATM   25  O5  UNK     1      20.118   1.738  15.578  1.00  0.00    -0.532 OA
ENDBRANCH  18  23
ENDBRANCH   2  17
TORSDOF 3
ENDMDL
MODEL 2
REMARK VINA RESULT:      -9.8      1.972      2.603
REMARK  3 active torsions:
REMARK  status: ('A' for Active; 'I' for Inactive)
REMARK    1  A    between atoms: C5_13  and  N1_7 
REMARK       I    between atoms: C6_14  and  N1_7 
REMARK    2  A    between atoms: C10_18  and  N2_8 
REMARK    3  A    between atoms: C2_10  and  C6_14 
ROOT
HETATM    1  O2  UNK     1      17.072  -1.865  16.967  1.00  0.00    -0.267 OA
HETATM    2  N1  UNK     1      19.139  -0.769  16.695  1.00  0.00    -0.321 N 
HETATM    3  C6  UNK     1      18.140  -1.682  16.385  1.00  0.00     0.262 C 
HETATM    4  H3  UNK     1      19.948  -0.776  16.084  1.00  0.00     0.169 HD
ENDROOT
BRANCH   3   5
HETATM    5  C2  UNK     1      18.474  -2.489  15.206  1.00  0.00     0.108 A 
HETATM    6  C4  UNK     1      19.222  -1.890  14.271  1.00  0.00     0.037 A 
HETATM    7  C1  UNK     1      19.604  -2.607  13.065  1.00  0.00     0.001 A 
HETATM    8  C3  UNK     1      19.179  -3.923  12.902  1.00  0.00     0.089 A 
HETATM    9  C7  UNK     1      20.383  -2.022  12.065  1.00  0.00     0.038 A 
HETATM   10  O1  UNK     1      18.392  -4.548  13.889  1.00  0.00    -0.274 OA
HETATM   11  C9  UNK     1      19.510  -4.665  11.771  1.00  0.00     0.040 A 
HETATM   12  C8  UNK     1      18.011  -3.886  15.053  1.00  0.00     0.304 A 
HETATM   13  O3  UNK     1      17.325  -4.438  15.906  1.00  0.00    -0.259 OA
HETATM   14  C12 UNK     1      20.287  -4.073  10.777  1.00  0.00     0.026 A 
HETATM   15  C11 UNK     1      20.723  -2.755  10.924  1.00  0.00     0.035 A 
HETATM   16 Cl1  UNK     1      21.683  -2.028   9.694  1.00  0.00    -0.084 Cl
ENDBRANCH   3   5
BRANCH   2  17
HETATM   17  C5  UNK     1      19.155   0.165  17.759  1.00  0.00     0.068 A 
HETATM   18  C10 UNK     1      19.236   1.524  17.503  1.00  0.00     0.129 A 
HETATM   19  C14 UNK     1      19.249   2.423  18.570  1.00  0.00     0.038 A 
HETATM   20  C16 UNK     1      19.181   1.949  19.881  1.00  0.00     0.003 A 
HETATM   21  C15 UNK     1      19.099   0.578  20.123  1.00  0.00     0.002 A 
HETATM   22  C13 UNK     1      19.087  -0.320  19.056  1.00  0.00     0.032 A 
BRANCH  18  23
HETATM   23  N2  UNK     1      19.310   2.034  16.176  1.00  0.00    -0.113 N 
HETATM   24  O4  UNK     1      18.611   3.029  15.871  1.00  0.00    -0.532 OA
HETATM   25  O5  UNK     1      20.070   1.473  15.353  1.00  0.00    -0.532 OA
ENDBRANCH  18  23
ENDBRANCH   2  17
TORSDOF 3
ENDMDL
MODEL 3
REMARK VINA RESULT:      -9.5     19.839     22.084
REMARK  3 active torsions:
REMARK  status: ('A' for Active; 'I' for Inactive)
REMARK    1  A    between atoms: C5_13  and  N1_7 
REMARK       I    between atoms: C6_14  and  N1_7 
REMARK    2  A    between atoms: C10_18  and  N2_8 
REMARK    3  A    between atoms: C2_10  and  C6_14 
ROOT
HETATM    1  O2  UNK     1      21.401  -4.398  37.065  1.00  0.00    -0.267 OA
HETATM    2  N1  UNK     1      19.187  -5.197  36.990  1.00  0.00    -0.321 N 
HETATM    3  C6  UNK     1      20.206  -4.274  36.801  1.00  0.00     0.262 C 
HETATM    4  H3  UNK     1      18.261  -4.898  36.702  1.00  0.00     0.169 HD
ENDROOT
BRANCH   3   5
HETATM    5  C2  UNK     1      19.718  -3.023  36.208  1.00  0.00     0.108 A 
HETATM    6  C4  UNK     1      18.986  -2.236  37.006  1.00  0.00     0.037 A 
HETATM    7  C1  UNK     1      18.457  -0.976  36.508  1.00  0.00     0.001 A 
HETATM    8  C3  UNK     1      18.724  -0.606  35.194  1.00  0.00     0.089 A 
HETATM    9  C7  UNK     1      17.690  -0.124  37.305  1.00  0.00     0.038 A 
HETATM   10  O1  UNK     1      19.494  -1.439  34.359  1.00  0.00    -0.274 OA
HETATM   11  C9  UNK     1      18.247   0.587  34.656  1.00  0.00     0.040 A 
HETATM   12  C8  UNK     1      20.014  -2.650  34.807  1.00  0.00     0.304 A 
HETATM   13  O3  UNK     1      20.683  -3.369  34.072  1.00  0.00    -0.259 OA
HETATM   14  C12 UNK     1      17.482   1.432  35.458  1.00  0.00     0.026 A 
HETATM   15  C11 UNK     1      17.204   1.077  36.779  1.00  0.00     0.035 A 
HETATM   16 Cl1  UNK     1      16.258   2.124  37.766  1.00  0.00    -0.084 Cl
ENDBRANCH   3   5
BRANCH   2  17
HETATM   17  C5  UNK     1      19.291  -6.500  37.534  1.00  0.00     0.068 A 
HETATM   18  C10 UNK     1      18.896  -7.605  36.798  1.00  0.00     0.129 A 
HETATM   19  C14 UNK     1      19.012  -8.878  37.358  1.00  0.00     0.038 A 
HETATM   20  C16 UNK     1      19.521  -9.028  38.649  1.00  0.00     0.003 A 
HETATM   21  C15 UNK     1      19.915  -7.905  39.377  1.00  0.00     0.002 A 
HETATM   22  C13 UNK     1      19.799  -6.634  38.817  1.00  0.00     0.032 A 
BRANCH  18  23
HETATM   23  N2  UNK     1      18.371  -7.481  35.481  1.00  0.00    -0.113 N 
HETATM   24  O4  UNK     1      19.136  -7.115  34.558  1.00  0.00    -0.532 OA
HETATM   25  O5  UNK     1      17.161  -7.740  35.285  1.00  0.00    -0.532 OA
ENDBRANCH  18  23
ENDBRANCH   2  17
TORSDOF 3
ENDMDL
MODEL 4
REMARK VINA RESULT:      -9.2     14.137     16.747
REMARK  3 active torsions:
REMARK  status: ('A' for Active; 'I' for Inactive)
REMARK    1  A    between atoms: C5_13  and  N1_7 
REMARK       I    between atoms: C6_14  and  N1_7 
REMARK    2  A    between atoms: C10_18  and  N2_8 
REMARK    3  A    between atoms: C2_10  and  C6_14 
ROOT
HETATM    1  O2  UNK     1      17.593   3.457  32.921  1.00  0.00    -0.267 OA
HETATM    2  N1  UNK     1      18.483   4.983  31.363  1.00  0.00    -0.321 N 
HETATM    3  C6  UNK     1      18.175   3.729  31.872  1.00  0.00     0.262 C 
HETATM    4  H3  UNK     1      18.968   4.992  30.473  1.00  0.00     0.169 HD
ENDROOT
BRANCH   3   5
HETATM    5  C2  UNK     1      18.628   2.647  30.990  1.00  0.00     0.108 A 
HETATM    6  C4  UNK     1      19.053   1.530  31.593  1.00  0.00     0.037 A 
HETATM    7  C1  UNK     1      19.524   0.403  30.805  1.00  0.00     0.001 A 
HETATM    8  C3  UNK     1      19.524   0.506  29.417  1.00  0.00     0.089 A 
HETATM    9  C7  UNK     1      19.975  -0.781  31.392  1.00  0.00     0.038 A 
HETATM   10  O1  UNK     1      19.076   1.684  28.787  1.00  0.00    -0.274 OA
HETATM   11  C9  UNK     1      19.961  -0.537  28.604  1.00  0.00     0.040 A 
HETATM   12  C8  UNK     1      18.620   2.779  29.516  1.00  0.00     0.304 A 
HETATM   13  O3  UNK     1      18.233   3.800  28.959  1.00  0.00    -0.259 OA
HETATM   14  C12 UNK     1      20.411  -1.715  29.198  1.00  0.00     0.026 A 
HETATM   15  C11 UNK     1      20.417  -1.836  30.589  1.00  0.00     0.035 A 
HETATM   16 Cl1  UNK     1      20.973  -3.293  31.319  1.00  0.00    -0.084 Cl
ENDBRANCH   3   5
BRANCH   2  17
HETATM   17  C5  UNK     1      18.197   6.243  31.942  1.00  0.00     0.068 A 
HETATM   18  C10 UNK     1      19.042   6.788  32.896  1.00  0.00     0.129 A 
HETATM   19  C14 UNK     1      18.738   8.032  33.449  1.00  0.00     0.038 A 
HETATM   20  C16 UNK     1      17.592   8.716  33.040  1.00  0.00     0.003 A 
HETATM   21  C15 UNK     1      16.752   8.155  32.079  1.00  0.00     0.002 A 
HETATM   22  C13 UNK     1      17.056   6.911  31.527  1.00  0.00     0.032 A 
BRANCH  18  23
HETATM   23  N2  UNK     1      20.215   6.112  33.333  1.00  0.00    -0.113 N 
HETATM   24  O4  UNK     1      20.140   5.350  34.325  1.00  0.00    -0.532 OA
HETATM   25  O5  UNK     1      21.288   6.299  32.713  1.00  0.00    -0.532 OA
ENDBRANCH  18  23
ENDBRANCH   2  17
TORSDOF 3
ENDMDL
MODEL 5
REMARK VINA RESULT:      -9.0     20.215     21.551
REMARK  3 active torsions:
REMARK  status: ('A' for Active; 'I' for Inactive)
REMARK    1  A    between atoms: C5_13  and  N1_7 
REMARK       I    between atoms: C6_14  and  N1_7 
REMARK    2  A    between atoms: C10_18  and  N2_8 
REMARK    3  A    between atoms: C2_10  and  C6_14 
ROOT
HETATM    1  O2  UNK     1      20.855  -4.127  37.958  1.00  0.00    -0.267 OA
HETATM    2  N1  UNK     1      18.964  -3.964  36.563  1.00  0.00    -0.321 N 
HETATM    3  C6  UNK     1      19.971  -4.619  37.258  1.00  0.00     0.262 C 
HETATM    4  H3  UNK     1      18.328  -4.558  36.042  1.00  0.00     0.169 HD
ENDROOT
BRANCH   3   5
HETATM    5  C2  UNK     1      19.903  -6.075  37.091  1.00  0.00     0.108 A 
HETATM    6  C4  UNK     1      21.066  -6.701  36.869  1.00  0.00     0.037 A 
HETATM    7  C1  UNK     1      21.101  -8.143  36.689  1.00  0.00     0.001 A 
HETATM    8  C3  UNK     1      19.909  -8.859  36.752  1.00  0.00     0.089 A 
HETATM    9  C7  UNK     1      22.291  -8.836  36.455  1.00  0.00     0.038 A 
HETATM   10  O1  UNK     1      18.688  -8.195  36.985  1.00  0.00    -0.274 OA
HETATM   11  C9  UNK     1      19.873 -10.241  36.588  1.00  0.00     0.040 A 
HETATM   12  C8  UNK     1      18.624  -6.816  37.161  1.00  0.00     0.304 A 
HETATM   13  O3  UNK     1      17.556  -6.247  37.363  1.00  0.00    -0.259 OA
HETATM   14  C12 UNK     1      21.065 -10.925  36.355  1.00  0.00     0.026 A 
HETATM   15  C11 UNK     1      22.271 -10.224  36.289  1.00  0.00     0.035 A 
HETATM   16 Cl1  UNK     1      23.740 -11.074  36.001  1.00  0.00    -0.084 Cl
ENDBRANCH   3   5
BRANCH   2  17
HETATM   17  C5  UNK     1      18.725  -2.570  36.498  1.00  0.00     0.068 A 
HETATM   18  C10 UNK     1      19.558  -1.746  35.757  1.00  0.00     0.129 A 
HETATM   19  C14 UNK     1      19.299  -0.376  35.710  1.00  0.00     0.038 A 
HETATM   20  C16 UNK     1      18.209   0.152  36.404  1.00  0.00     0.003 A 
HETATM   21  C15 UNK     1      17.380  -0.690  37.145  1.00  0.00     0.002 A 
HETATM   22  C13 UNK     1      17.640  -2.059  37.193  1.00  0.00     0.032 A 
BRANCH  18  23
HETATM   23  N2  UNK     1      20.677  -2.258  35.042  1.00  0.00    -0.113 N 
HETATM   24  O4  UNK     1      21.824  -1.858  35.349  1.00  0.00    -0.532 OA
HETATM   25  O5  UNK     1      20.480  -3.091  34.127  1.00  0.00    -0.532 OA
ENDBRANCH  18  23
ENDBRANCH   2  17
TORSDOF 3
ENDMDL
MODEL 6
REMARK VINA RESULT:      -9.0      3.376      7.437
REMARK  3 active torsions:
REMARK  status: ('A' for Active; 'I' for Inactive)
REMARK    1  A    between atoms: C5_13  and  N1_7 
REMARK       I    between atoms: C6_14  and  N1_7 
REMARK    2  A    between atoms: C10_18  and  N2_8 
REMARK    3  A    between atoms: C2_10  and  C6_14 
ROOT
HETATM    1  O2  UNK     1      17.846  -3.411  15.637  1.00  0.00    -0.267 OA
HETATM    2  N1  UNK     1      20.015  -3.197  14.745  1.00  0.00    -0.321 N 
HETATM    3  C6  UNK     1      18.867  -2.769  15.398  1.00  0.00     0.262 C 
HETATM    4  H3  UNK     1      20.752  -2.508  14.650  1.00  0.00     0.169 HD
ENDROOT
BRANCH   3   5
HETATM    5  C2  UNK     1      18.963  -1.369  15.826  1.00  0.00     0.108 A 
HETATM    6  C4  UNK     1      18.869  -1.145  17.143  1.00  0.00     0.037 A 
HETATM    7  C1  UNK     1      18.951   0.210  17.665  1.00  0.00     0.001 A 
HETATM    8  C3  UNK     1      19.131   1.264  16.775  1.00  0.00     0.089 A 
HETATM    9  C7  UNK     1      18.858   0.489  19.030  1.00  0.00     0.038 A 
HETATM   10  O1  UNK     1      19.229   1.023  15.391  1.00  0.00    -0.274 OA
HETATM   11  C9  UNK     1      19.218   2.585  17.210  1.00  0.00     0.040 A 
HETATM   12  C8  UNK     1      19.154  -0.262  14.862  1.00  0.00     0.304 A 
HETATM   13  O3  UNK     1      19.240  -0.463  13.655  1.00  0.00    -0.259 OA
HETATM   14  C12 UNK     1      19.123   2.855  18.574  1.00  0.00     0.026 A 
HETATM   15  C11 UNK     1      18.944   1.809  19.482  1.00  0.00     0.035 A 
HETATM   16 Cl1  UNK     1      18.827   2.148  21.166  1.00  0.00    -0.084 Cl
ENDBRANCH   3   5
BRANCH   2  17
HETATM   17  C5  UNK     1      20.271  -4.479  14.200  1.00  0.00     0.068 A 
HETATM   18  C10 UNK     1      20.105  -4.715  12.845  1.00  0.00     0.129 A 
HETATM   19  C14 UNK     1      20.366  -5.987  12.334  1.00  0.00     0.038 A 
HETATM   20  C16 UNK     1      20.791  -7.006  13.187  1.00  0.00     0.003 A 
HETATM   21  C15 UNK     1      20.954  -6.753  14.549  1.00  0.00     0.002 A 
HETATM   22  C13 UNK     1      20.692  -5.482  15.059  1.00  0.00     0.032 A 
BRANCH  18  23
HETATM   23  N2  UNK     1      19.671  -3.694  11.953  1.00  0.00    -0.113 N 
HETATM   24  O4  UNK     1      20.446  -2.741  11.702  1.00  0.00    -0.532 OA
HETATM   25  O5  UNK     1      18.527  -3.778  11.448  1.00  0.00    -0.532 OA
ENDBRANCH  18  23
ENDBRANCH   2  17
TORSDOF 3
ENDMDL
MODEL 7
REMARK VINA RESULT:      -9.0     14.271     16.966
REMARK  3 active torsions:
REMARK  status: ('A' for Active; 'I' for Inactive)
REMARK    1  A    between atoms: C5_13  and  N1_7 
REMARK       I    between atoms: C6_14  and  N1_7 
REMARK    2  A    between atoms: C10_18  and  N2_8 
REMARK    3  A    between atoms: C2_10  and  C6_14 
ROOT
HETATM    1  O2  UNK     1      17.683   4.105  33.257  1.00  0.00    -0.267 OA
HETATM    2  N1  UNK     1      18.951   5.588  31.939  1.00  0.00    -0.321 N 
HETATM    3  C6  UNK     1      18.368   4.373  32.271  1.00  0.00     0.262 C 
HETATM    4  H3  UNK     1      19.480   5.601  31.074  1.00  0.00     0.169 HD
ENDROOT
BRANCH   3   5
HETATM    5  C2  UNK     1      18.646   3.333  31.274  1.00  0.00     0.108 A 
HETATM    6  C4  UNK     1      19.028   2.142  31.751  1.00  0.00     0.037 A 
HETATM    7  C1  UNK     1      19.328   1.048  30.841  1.00  0.00     0.001 A 
HETATM    8  C3  UNK     1      19.210   1.261  29.471  1.00  0.00     0.089 A 
HETATM    9  C7  UNK     1      19.729  -0.210  31.295  1.00  0.00     0.038 A 
HETATM   10  O1  UNK     1      18.809   2.517  28.974  1.00  0.00    -0.274 OA
HETATM   11  C9  UNK     1      19.482   0.257  28.546  1.00  0.00     0.040 A 
HETATM   12  C8  UNK     1      18.515   3.582  29.821  1.00  0.00     0.304 A 
HETATM   13  O3  UNK     1      18.167   4.672  29.380  1.00  0.00    -0.259 OA
HETATM   14  C12 UNK     1      19.882  -0.996  29.007  1.00  0.00     0.026 A 
HETATM   15  C11 UNK     1      20.005  -1.229  30.378  1.00  0.00     0.035 A 
HETATM   16 Cl1  UNK     1      20.499  -2.778  30.943  1.00  0.00    -0.084 Cl
ENDBRANCH   3   5
BRANCH   2  17
HETATM   17  C5  UNK     1      18.892   6.802  32.665  1.00  0.00     0.068 A 
HETATM   18  C10 UNK     1      17.803   7.649  32.533  1.00  0.00     0.129 A 
HETATM   19  C14 UNK     1      17.769   8.838  33.262  1.00  0.00     0.038 A 
HETATM   20  C16 UNK     1      18.826   9.165  34.113  1.00  0.00     0.003 A 
HETATM   21  C15 UNK     1      19.914   8.302  34.235  1.00  0.00     0.002 A 
HETATM   22  C13 UNK     1      19.948   7.114  33.507  1.00  0.00     0.032 A 
BRANCH  18  23
HETATM   23  N2  UNK     1      16.713   7.342  31.671  1.00  0.00    -0.113 N 
HETATM   24  O4  UNK     1      16.612   7.955  30.583  1.00  0.00    -0.532 OA
HETATM   25  O5  UNK     1      15.888   6.468  32.027  1.00  0.00    -0.532 OA
ENDBRANCH  18  23
ENDBRANCH   2  17
TORSDOF 3
ENDMDL
MODEL 8
REMARK VINA RESULT:      -9.0     19.779     21.775
REMARK  3 active torsions:
REMARK  status: ('A' for Active; 'I' for Inactive)
REMARK    1  A    between atoms: C5_13  and  N1_7 
REMARK       I    between atoms: C6_14  and  N1_7 
REMARK    2  A    between atoms: C10_18  and  N2_8 
REMARK    3  A    between atoms: C2_10  and  C6_14 
ROOT
HETATM    1  O2  UNK     1      20.839  -4.239  37.646  1.00  0.00    -0.267 OA
HETATM    2  N1  UNK     1      19.613  -5.291  35.932  1.00  0.00    -0.321 N 
HETATM    3  C6  UNK     1      20.113  -4.216  36.653  1.00  0.00     0.262 C 
HETATM    4  H3  UNK     1      19.030  -5.057  35.137  1.00  0.00     0.169 HD
ENDROOT
BRANCH   3   5
HETATM    5  C2  UNK     1      19.681  -2.928  36.098  1.00  0.00     0.108 A 
HETATM    6  C4  UNK     1      18.897  -2.178  36.883  1.00  0.00     0.037 A 
HETATM    7  C1  UNK     1      18.416  -0.886  36.421  1.00  0.00     0.001 A 
HETATM    8  C3  UNK     1      18.785  -0.444  35.154  1.00  0.00     0.089 A 
HETATM    9  C7  UNK     1      17.597  -0.072  37.206  1.00  0.00     0.038 A 
HETATM   10  O1  UNK     1      19.610  -1.238  34.332  1.00  0.00    -0.274 OA
HETATM   11  C9  UNK     1      18.360   0.782  34.651  1.00  0.00     0.040 A 
HETATM   12  C8  UNK     1      20.085  -2.478  34.747  1.00  0.00     0.304 A 
HETATM   13  O3  UNK     1      20.802  -3.162  34.025  1.00  0.00    -0.259 OA
HETATM   14  C12 UNK     1      17.542   1.589  35.441  1.00  0.00     0.026 A 
HETATM   15  C11 UNK     1      17.162   1.163  36.715  1.00  0.00     0.035 A 
HETATM   16 Cl1  UNK     1      16.152   2.163  37.687  1.00  0.00    -0.084 Cl
ENDBRANCH   3   5
BRANCH   2  17
HETATM   17  C5  UNK     1      19.824  -6.670  36.179  1.00  0.00     0.068 A 
HETATM   18  C10 UNK     1      18.766  -7.564  36.135  1.00  0.00     0.129 A 
HETATM   19  C14 UNK     1      19.002  -8.916  36.380  1.00  0.00     0.038 A 
HETATM   20  C16 UNK     1      20.295  -9.358  36.667  1.00  0.00     0.003 A 
HETATM   21  C15 UNK     1      21.350  -8.446  36.707  1.00  0.00     0.002 A 
HETATM   22  C13 UNK     1      21.113  -7.094  36.462  1.00  0.00     0.032 A 
BRANCH  18  23
HETATM   23  N2  UNK     1      17.438  -7.140  35.847  1.00  0.00    -0.113 N 
HETATM   24  O4  UNK     1      16.881  -6.329  36.623  1.00  0.00    -0.532 OA
HETATM   25  O5  UNK     1      16.866  -7.593  34.828  1.00  0.00    -0.532 OA
ENDBRANCH  18  23
ENDBRANCH   2  17
TORSDOF 3
ENDMDL
MODEL 9
REMARK VINA RESULT:      -8.9     19.960     21.669
REMARK  3 active torsions:
REMARK  status: ('A' for Active; 'I' for Inactive)
REMARK    1  A    between atoms: C5_13  and  N1_7 
REMARK       I    between atoms: C6_14  and  N1_7 
REMARK    2  A    between atoms: C10_18  and  N2_8 
REMARK    3  A    between atoms: C2_10  and  C6_14 
ROOT
HETATM    1  O2  UNK     1      20.903  -3.756  37.874  1.00  0.00    -0.267 OA
HETATM    2  N1  UNK     1      18.965  -3.570  36.550  1.00  0.00    -0.321 N 
HETATM    3  C6  UNK     1      20.010  -4.234  37.176  1.00  0.00     0.262 C 
HETATM    4  H3  UNK     1      18.328  -4.152  36.017  1.00  0.00     0.169 HD
ENDROOT
BRANCH   3   5
HETATM    5  C2  UNK     1      19.974  -5.680  36.931  1.00  0.00     0.108 A 
HETATM    6  C4  UNK     1      19.783  -6.458  38.003  1.00  0.00     0.037 A 
HETATM    7  C1  UNK     1      19.734  -7.905  37.862  1.00  0.00     0.001 A 
HETATM    8  C3  UNK     1      19.888  -8.462  36.596  1.00  0.00     0.089 A 
HETATM    9  C7  UNK     1      19.536  -8.754  38.953  1.00  0.00     0.038 A 
HETATM   10  O1  UNK     1      20.089  -7.639  35.471  1.00  0.00    -0.274 OA
HETATM   11  C9  UNK     1      19.851  -9.839  36.392  1.00  0.00     0.040 A 
HETATM   12  C8  UNK     1      20.141  -6.252  35.576  1.00  0.00     0.304 A 
HETATM   13  O3  UNK     1      20.317  -5.543  34.591  1.00  0.00    -0.259 OA
HETATM   14  C12 UNK     1      19.654 -10.680  37.486  1.00  0.00     0.026 A 
HETATM   15  C11 UNK     1      19.496 -10.138  38.763  1.00  0.00     0.035 A 
HETATM   16 Cl1  UNK     1      19.253 -11.181  40.112  1.00  0.00    -0.084 Cl
ENDBRANCH   3   5
BRANCH   2  17
HETATM   17  C5  UNK     1      18.688  -2.181  36.569  1.00  0.00     0.068 A 
HETATM   18  C10 UNK     1      19.124  -1.361  35.541  1.00  0.00     0.129 A 
HETATM   19  C14 UNK     1      18.836   0.003  35.585  1.00  0.00     0.038 A 
HETATM   20  C16 UNK     1      18.114   0.530  36.658  1.00  0.00     0.003 A 
HETATM   21  C15 UNK     1      17.682  -0.309  37.685  1.00  0.00     0.002 A 
HETATM   22  C13 UNK     1      17.970  -1.672  37.641  1.00  0.00     0.032 A 
BRANCH  18  23
HETATM   23  N2  UNK     1      19.863  -1.871  34.437  1.00  0.00    -0.113 N 
HETATM   24  O4  UNK     1      19.334  -1.865  33.301  1.00  0.00    -0.532 OA
HETATM   25  O5  UNK     1      21.020  -2.311  34.635  1.00  0.00    -0.532 OA
ENDBRANCH  18  23
ENDBRANCH   2  17
TORSDOF 3
ENDMDL
MODEL 10
REMARK VINA RESULT:      -8.9     15.294     18.177
REMARK  3 active torsions:
REMARK  status: ('A' for Active; 'I' for Inactive)
REMARK    1  A    between atoms: C5_13  and  N1_7 
REMARK       I    between atoms: C6_14  and  N1_7 
REMARK    2  A    between atoms: C10_18  and  N2_8 
REMARK    3  A    between atoms: C2_10  and  C6_14 
ROOT
HETATM    1  O2  UNK     1      17.433   1.728  29.729  1.00  0.00    -0.267 OA
HETATM    2  N1  UNK     1      19.440   1.586  30.953  1.00  0.00    -0.321 N 
HETATM    3  C6  UNK     1      18.331   2.220  30.411  1.00  0.00     0.262 C 
HETATM    4  H3  UNK     1      20.066   2.175  31.491  1.00  0.00     0.169 HD
ENDROOT
BRANCH   3   5
HETATM    5  C2  UNK     1      18.295   3.650  30.738  1.00  0.00     0.108 A 
HETATM    6  C4  UNK     1      17.901   3.964  31.978  1.00  0.00     0.037 A 
HETATM    7  C1  UNK     1      17.832   5.355  32.397  1.00  0.00     0.001 A 
HETATM    8  C3  UNK     1      18.182   6.349  31.488  1.00  0.00     0.089 A 
HETATM    9  C7  UNK     1      17.428   5.727  33.681  1.00  0.00     0.038 A 
HETATM   10  O1  UNK     1      18.595   6.013  30.184  1.00  0.00    -0.274 OA
HETATM   11  C9  UNK     1      18.137   7.700  31.825  1.00  0.00     0.040 A 
HETATM   12  C8  UNK     1      18.670   4.691  29.755  1.00  0.00     0.304 A 
HETATM   13  O3  UNK     1      19.030   4.408  28.618  1.00  0.00    -0.259 OA
HETATM   14  C12 UNK     1      17.732   8.063  33.108  1.00  0.00     0.026 A 
HETATM   15  C11 UNK     1      17.378   7.079  34.033  1.00  0.00     0.035 A 
HETATM   16 Cl1  UNK     1      16.879   7.533  35.617  1.00  0.00    -0.084 Cl
ENDBRANCH   3   5
BRANCH   2  17
HETATM   17  C5  UNK     1      19.794   0.220  30.842  1.00  0.00     0.068 A 
HETATM   18  C10 UNK     1      19.386  -0.694  31.801  1.00  0.00     0.129 A 
HETATM   19  C14 UNK     1      19.748  -2.035  31.667  1.00  0.00     0.038 A 
HETATM   20  C16 UNK     1      20.513  -2.444  30.573  1.00  0.00     0.003 A 
HETATM   21  C15 UNK     1      20.916  -1.513  29.617  1.00  0.00     0.002 A 
HETATM   22  C13 UNK     1      20.554  -0.173  29.752  1.00  0.00     0.032 A 
BRANCH  18  23
HETATM   23  N2  UNK     1      18.608  -0.303  32.927  1.00  0.00    -0.113 N 
HETATM   24  O4  UNK     1      17.553  -0.932  33.180  1.00  0.00    -0.532 OA
HETATM   25  O5  UNK     1      19.000   0.658  33.629  1.00  0.00    -0.532 OA
ENDBRANCH  18  23
ENDBRANCH   2  17
TORSDOF 3
ENDMDL
