MODEL 1
REMARK VINA RESULT:      -7.6      0.000      0.000
REMARK  3 active torsions:
REMARK  status: ('A' for Active; 'I' for Inactive)
REMARK    1  A    between atoms: C10_17  and  O3_3 
REMARK    2  A    between atoms: C5_12  and  N1_7 
REMARK    3  A    between atoms: C10_17  and  C7_14 
ROOT
HETATM    1  O1  UNK     1      19.300   0.781  15.006  1.00  0.00    -0.274 OA
HETATM    2  O2  UNK     1      19.336  -0.784  13.340  1.00  0.00    -0.259 OA
HETATM    3  C1  UNK     1      18.940   0.077  17.305  1.00  0.00     0.001 A 
HETATM    4  C2  UNK     1      19.165   1.086  16.374  1.00  0.00     0.089 A 
HETATM    5  C3  UNK     1      18.812   0.419  18.653  1.00  0.00     0.050 A 
HETATM    6  C4  UNK     1      18.847  -1.299  16.842  1.00  0.00     0.039 A 
HETATM    7  C5  UNK     1      18.909   1.758  19.047  1.00  0.00     0.103 A 
HETATM    8  C6  UNK     1      19.264   2.424  16.752  1.00  0.00     0.041 A 
HETATM    9  C7  UNK     1      18.976  -1.584  15.542  1.00  0.00     0.114 A 
HETATM   10  C8  UNK     1      19.135   2.758  18.098  1.00  0.00     0.039 A 
HETATM   11  C9  UNK     1      19.215  -0.527  14.534  1.00  0.00     0.305 A 
ENDROOT
BRANCH   9  12
HETATM   12  C10 UNK     1      18.868  -3.000  15.174  1.00  0.00     0.182 C 
HETATM   13  O4  UNK     1      19.582  -3.881  15.613  1.00  0.00    -0.646 OA
BRANCH  12  14
HETATM   14  O3  UNK     1      17.865  -3.159  14.285  1.00  0.00    -0.772 OA
HETATM   15  H5  UNK     1      17.170  -3.766  14.617  1.00  0.00     0.167 HD
ENDBRANCH  12  14
ENDBRANCH   9  12
BRANCH   7  16
HETATM   16  N1  UNK     1      18.779   2.102  20.418  1.00  0.00    -0.116 N 
HETATM   17  O5  UNK     1      19.794   2.494  21.045  1.00  0.00    -0.532 OA
HETATM   18  O6  UNK     1      17.654   2.007  20.966  1.00  0.00    -0.532 OA
ENDBRANCH   7  16
TORSDOF 3
ENDMDL
MODEL 2
REMARK VINA RESULT:      -7.6     12.342     15.109
REMARK  3 active torsions:
REMARK  status: ('A' for Active; 'I' for Inactive)
REMARK    1  A    between atoms: C10_17  and  O3_3 
REMARK    2  A    between atoms: C5_12  and  N1_7 
REMARK    3  A    between atoms: C10_17  and  C7_14 
ROOT
HETATM    1  O1  UNK     1      20.835  -2.764  30.739  1.00  0.00    -0.274 OA
HETATM    2  O2  UNK     1      21.422  -4.251  32.372  1.00  0.00    -0.259 OA
HETATM    3  C1  UNK     1      19.736  -0.684  31.350  1.00  0.00     0.001 A 
HETATM    4  C2  UNK     1      20.255  -1.532  30.378  1.00  0.00     0.089 A 
HETATM    5  C3  UNK     1      19.168   0.530  30.953  1.00  0.00     0.050 A 
HETATM    6  C4  UNK     1      19.802  -1.088  32.746  1.00  0.00     0.039 A 
HETATM    7  C5  UNK     1      19.128   0.872  29.597  1.00  0.00     0.103 A 
HETATM    8  C6  UNK     1      20.222  -1.204  29.024  1.00  0.00     0.041 A 
HETATM    9  C7  UNK     1      20.355  -2.258  33.084  1.00  0.00     0.114 A 
HETATM   10  C8  UNK     1      19.654   0.007  28.636  1.00  0.00     0.039 A 
HETATM   11  C9  UNK     1      20.913  -3.177  32.067  1.00  0.00     0.305 A 
ENDROOT
BRANCH   9  12
HETATM   12  C10 UNK     1      20.376  -2.577  34.516  1.00  0.00     0.182 C 
HETATM   13  O4  UNK     1      20.622  -1.773  35.395  1.00  0.00    -0.646 OA
BRANCH  12  14
HETATM   14  O3  UNK     1      20.083  -3.882  34.692  1.00  0.00    -0.772 OA
HETATM   15  H5  UNK     1      19.120  -4.055  34.636  1.00  0.00     0.167 HD
ENDBRANCH  12  14
ENDBRANCH   9  12
BRANCH   7  16
HETATM   16  N1  UNK     1      18.551   2.106  29.198  1.00  0.00    -0.116 N 
HETATM   17  O5  UNK     1      17.950   2.168  28.097  1.00  0.00    -0.532 OA
HETATM   18  O6  UNK     1      18.655   3.101  29.955  1.00  0.00    -0.532 OA
ENDBRANCH   7  16
TORSDOF 3
ENDMDL
MODEL 3
REMARK VINA RESULT:      -7.5     12.450     14.565
REMARK  3 active torsions:
REMARK  status: ('A' for Active; 'I' for Inactive)
REMARK    1  A    between atoms: C10_17  and  O3_3 
REMARK    2  A    between atoms: C5_12  and  N1_7 
REMARK    3  A    between atoms: C10_17  and  C7_14 
ROOT
HETATM    1  O1  UNK     1      19.002   0.603  28.649  1.00  0.00    -0.274 OA
HETATM    2  O2  UNK     1      18.062   2.622  28.140  1.00  0.00    -0.259 OA
HETATM    3  C1  UNK     1      19.659   0.129  30.942  1.00  0.00     0.001 A 
HETATM    4  C2  UNK     1      19.554  -0.265  29.612  1.00  0.00     0.089 A 
HETATM    5  C3  UNK     1      20.212  -0.759  31.867  1.00  0.00     0.050 A 
HETATM    6  C4  UNK     1      19.189   1.452  31.322  1.00  0.00     0.039 A 
HETATM    7  C5  UNK     1      20.651  -2.020  31.449  1.00  0.00     0.103 A 
HETATM    8  C6  UNK     1      19.986  -1.518  29.182  1.00  0.00     0.041 A 
HETATM    9  C7  UNK     1      18.664   2.272  30.405  1.00  0.00     0.114 A 
HETATM   10  C8  UNK     1      20.537  -2.399  30.110  1.00  0.00     0.039 A 
HETATM   11  C9  UNK     1      18.544   1.874  28.984  1.00  0.00     0.305 A 
ENDROOT
BRANCH   9  12
HETATM   12  C10 UNK     1      18.218   3.584  30.887  1.00  0.00     0.182 C 
HETATM   13  O4  UNK     1      17.433   3.750  31.801  1.00  0.00    -0.646 OA
BRANCH  12  14
HETATM   14  O3  UNK     1      18.810   4.555  30.161  1.00  0.00    -0.772 OA
HETATM   15  H5  UNK     1      19.757   4.364  29.992  1.00  0.00     0.167 HD
ENDBRANCH  12  14
ENDBRANCH   9  12
BRANCH   7  16
HETATM   16  N1  UNK     1      21.212  -2.921  32.393  1.00  0.00    -0.116 N 
HETATM   17  O5  UNK     1      21.389  -4.118  32.059  1.00  0.00    -0.532 OA
HETATM   18  O6  UNK     1      21.516  -2.496  33.533  1.00  0.00    -0.532 OA
ENDBRANCH   7  16
TORSDOF 3
ENDMDL
MODEL 4
REMARK VINA RESULT:      -7.2     14.885     17.342
REMARK  3 active torsions:
REMARK  status: ('A' for Active; 'I' for Inactive)
REMARK    1  A    between atoms: C10_17  and  O3_3 
REMARK    2  A    between atoms: C5_12  and  N1_7 
REMARK    3  A    between atoms: C10_17  and  C7_14 
ROOT
HETATM    1  O1  UNK     1      20.158  -2.535  34.417  1.00  0.00    -0.274 OA
HETATM    2  O2  UNK     1      21.421  -3.247  32.651  1.00  0.00    -0.259 OA
HETATM    3  C1  UNK     1      18.498  -0.792  34.079  1.00  0.00     0.001 A 
HETATM    4  C2  UNK     1      19.148  -1.691  34.918  1.00  0.00     0.089 A 
HETATM    5  C3  UNK     1      17.502   0.029  34.613  1.00  0.00     0.050 A 
HETATM    6  C4  UNK     1      18.877  -0.738  32.676  1.00  0.00     0.039 A 
HETATM    7  C5  UNK     1      17.174  -0.060  35.970  1.00  0.00     0.103 A 
HETATM    8  C6  UNK     1      18.832  -1.791  36.272  1.00  0.00     0.041 A 
HETATM    9  C7  UNK     1      19.836  -1.543  32.204  1.00  0.00     0.114 A 
HETATM   10  C8  UNK     1      17.839  -0.969  36.797  1.00  0.00     0.039 A 
HETATM   11  C9  UNK     1      20.542  -2.506  33.079  1.00  0.00     0.305 A 
ENDROOT
BRANCH   9  12
HETATM   12  C10 UNK     1      20.147  -1.415  30.776  1.00  0.00     0.182 C 
HETATM   13  O4  UNK     1      20.644  -0.429  30.266  1.00  0.00    -0.646 OA
BRANCH  12  14
HETATM   14  O3  UNK     1      19.796  -2.550  30.136  1.00  0.00    -0.772 OA
HETATM   15  H5  UNK     1      19.078  -3.029  30.601  1.00  0.00     0.167 HD
ENDBRANCH  12  14
ENDBRANCH   9  12
BRANCH   7  16
HETATM   16  N1  UNK     1      16.161   0.776  36.508  1.00  0.00    -0.116 N 
HETATM   17  O5  UNK     1      16.474   1.634  37.369  1.00  0.00    -0.532 OA
HETATM   18  O6  UNK     1      14.980   0.635  36.108  1.00  0.00    -0.532 OA
ENDBRANCH   7  16
TORSDOF 3
ENDMDL
MODEL 5
REMARK VINA RESULT:      -7.2     12.691     15.355
REMARK  3 active torsions:
REMARK  status: ('A' for Active; 'I' for Inactive)
REMARK    1  A    between atoms: C10_17  and  O3_3 
REMARK    2  A    between atoms: C5_12  and  N1_7 
REMARK    3  A    between atoms: C10_17  and  C7_14 
ROOT
HETATM    1  O1  UNK     1      18.423   2.556  32.920  1.00  0.00    -0.274 OA
HETATM    2  O2  UNK     1      18.992   0.482  32.147  1.00  0.00    -0.259 OA
HETATM    3  C1  UNK     1      18.189   4.398  31.351  1.00  0.00     0.001 A 
HETATM    4  C2  UNK     1      18.143   3.910  32.653  1.00  0.00     0.089 A 
HETATM    5  C3  UNK     1      17.905   5.747  31.126  1.00  0.00     0.050 A 
HETATM    6  C4  UNK     1      18.530   3.487  30.270  1.00  0.00     0.039 A 
HETATM    7  C5  UNK     1      17.583   6.583  32.201  1.00  0.00     0.103 A 
HETATM    8  C6  UNK     1      17.824   4.731  33.734  1.00  0.00     0.041 A 
HETATM    9  C7  UNK     1      18.794   2.201  30.529  1.00  0.00     0.114 A 
HETATM   10  C8  UNK     1      17.543   6.075  33.502  1.00  0.00     0.039 A 
HETATM   11  C9  UNK     1      18.752   1.660  31.906  1.00  0.00     0.305 A 
ENDROOT
BRANCH   9  12
HETATM   12  C10 UNK     1      19.126   1.361  29.372  1.00  0.00     0.182 C 
HETATM   13  O4  UNK     1      18.459   1.293  28.358  1.00  0.00    -0.646 OA
BRANCH  12  14
HETATM   14  O3  UNK     1      20.271   0.691  29.617  1.00  0.00    -0.772 OA
HETATM   15  H5  UNK     1      20.373  -0.091  29.034  1.00  0.00     0.167 HD
ENDBRANCH  12  14
ENDBRANCH   9  12
BRANCH   7  16
HETATM   16  N1  UNK     1      17.295   7.954  31.968  1.00  0.00    -0.116 N 
HETATM   17  O5  UNK     1      17.734   8.812  32.773  1.00  0.00    -0.532 OA
HETATM   18  O6  UNK     1      16.611   8.269  30.965  1.00  0.00    -0.532 OA
ENDBRANCH   7  16
TORSDOF 3
ENDMDL
MODEL 6
REMARK VINA RESULT:      -7.0      4.733      6.580
REMARK  3 active torsions:
REMARK  status: ('A' for Active; 'I' for Inactive)
REMARK    1  A    between atoms: C10_17  and  O3_3 
REMARK    2  A    between atoms: C5_12  and  N1_7 
REMARK    3  A    between atoms: C10_17  and  C7_14 
ROOT
HETATM    1  O1  UNK     1      18.995  -4.902  13.099  1.00  0.00    -0.274 OA
HETATM    2  O2  UNK     1      19.961  -3.336  11.743  1.00  0.00    -0.259 OA
HETATM    3  C1  UNK     1      17.788  -4.187  15.085  1.00  0.00     0.001 A 
HETATM    4  C2  UNK     1      18.245  -5.204  14.252  1.00  0.00     0.089 A 
HETATM    5  C3  UNK     1      17.046  -4.526  16.219  1.00  0.00     0.050 A 
HETATM    6  C4  UNK     1      18.098  -2.807  14.746  1.00  0.00     0.039 A 
HETATM    7  C5  UNK     1      16.775  -5.869  16.501  1.00  0.00     0.103 A 
HETATM    8  C6  UNK     1      17.982  -6.546  14.521  1.00  0.00     0.041 A 
HETATM    9  C7  UNK     1      18.811  -2.525  13.650  1.00  0.00     0.114 A 
HETATM   10  C8  UNK     1      17.242  -6.876  15.654  1.00  0.00     0.039 A 
HETATM   11  C9  UNK     1      19.308  -3.590  12.750  1.00  0.00     0.305 A 
ENDROOT
BRANCH   9  12
HETATM   12  C10 UNK     1      19.072  -1.104  13.392  1.00  0.00     0.182 C 
HETATM   13  O4  UNK     1      19.634  -0.357  14.169  1.00  0.00    -0.646 OA
BRANCH  12  14
HETATM   14  O3  UNK     1      18.592  -0.772  12.176  1.00  0.00    -0.772 OA
HETATM   15  H5  UNK     1      18.545   0.200  12.050  1.00  0.00     0.167 HD
ENDBRANCH  12  14
ENDBRANCH   9  12
BRANCH   7  16
HETATM   16  N1  UNK     1      16.020  -6.210  17.655  1.00  0.00    -0.116 N 
HETATM   17  O5  UNK     1      15.784  -7.421  17.891  1.00  0.00    -0.532 OA
HETATM   18  O6  UNK     1      15.611  -5.293  18.407  1.00  0.00    -0.532 OA
ENDBRANCH   7  16
TORSDOF 3
ENDMDL
MODEL 7
REMARK VINA RESULT:      -7.0     12.364     13.551
REMARK  3 active torsions:
REMARK  status: ('A' for Active; 'I' for Inactive)
REMARK    1  A    between atoms: C10_17  and  O3_3 
REMARK    2  A    between atoms: C5_12  and  N1_7 
REMARK    3  A    between atoms: C10_17  and  C7_14 
ROOT
HETATM    1  O1  UNK     1      11.056   6.669   6.144  1.00  0.00    -0.274 OA
HETATM    2  O2  UNK     1       8.868   6.813   5.500  1.00  0.00    -0.259 OA
HETATM    3  C1  UNK     1      11.601   5.823   8.357  1.00  0.00     0.001 A 
HETATM    4  C2  UNK     1      12.007   6.329   7.126  1.00  0.00     0.089 A 
HETATM    5  C3  UNK     1      12.574   5.497   9.305  1.00  0.00     0.050 A 
HETATM    6  C4  UNK     1      10.180   5.652   8.614  1.00  0.00     0.039 A 
HETATM    7  C5  UNK     1      13.929   5.681   9.009  1.00  0.00     0.103 A 
HETATM    8  C6  UNK     1      13.352   6.517   6.817  1.00  0.00     0.041 A 
HETATM    9  C7  UNK     1       9.281   5.976   7.678  1.00  0.00     0.114 A 
HETATM   10  C8  UNK     1      14.316   6.190   7.768  1.00  0.00     0.039 A 
HETATM   11  C9  UNK     1       9.689   6.515   6.362  1.00  0.00     0.305 A 
ENDROOT
BRANCH   9  12
HETATM   12  C10 UNK     1       7.872   5.766   8.031  1.00  0.00     0.182 C 
HETATM   13  O4  UNK     1       7.384   4.684   8.295  1.00  0.00    -0.646 OA
BRANCH  12  14
HETATM   14  O3  UNK     1       7.223   6.948   8.015  1.00  0.00    -0.772 OA
HETATM   15  H5  UNK     1       6.533   7.001   8.710  1.00  0.00     0.167 HD
ENDBRANCH  12  14
ENDBRANCH   9  12
BRANCH   7  16
HETATM   16  N1  UNK     1      14.915   5.348   9.975  1.00  0.00    -0.116 N 
HETATM   17  O5  UNK     1      15.573   4.289   9.831  1.00  0.00    -0.532 OA
HETATM   18  O6  UNK     1      15.102   6.121  10.945  1.00  0.00    -0.532 OA
ENDBRANCH   7  16
TORSDOF 3
ENDMDL
MODEL 8
REMARK VINA RESULT:      -7.0     11.392     12.930
REMARK  3 active torsions:
REMARK  status: ('A' for Active; 'I' for Inactive)
REMARK    1  A    between atoms: C10_17  and  O3_3 
REMARK    2  A    between atoms: C5_12  and  N1_7 
REMARK    3  A    between atoms: C10_17  and  C7_14 
ROOT
HETATM    1  O1  UNK     1      13.322   7.535  10.284  1.00  0.00    -0.274 OA
HETATM    2  O2  UNK     1      15.366   7.163  11.236  1.00  0.00    -0.259 OA
HETATM    3  C1  UNK     1      12.499   6.012   8.577  1.00  0.00     0.001 A 
HETATM    4  C2  UNK     1      12.326   7.144   9.368  1.00  0.00     0.089 A 
HETATM    5  C3  UNK     1      11.489   5.656   7.680  1.00  0.00     0.050 A 
HETATM    6  C4  UNK     1      13.725   5.240   8.711  1.00  0.00     0.039 A 
HETATM    7  C5  UNK     1      10.329   6.433   7.588  1.00  0.00     0.103 A 
HETATM    8  C6  UNK     1      11.176   7.927   9.287  1.00  0.00     0.041 A 
HETATM    9  C7  UNK     1      14.667   5.616   9.583  1.00  0.00     0.114 A 
HETATM   10  C8  UNK     1      10.174   7.565   8.391  1.00  0.00     0.039 A 
HETATM   11  C9  UNK     1      14.505   6.816  10.434  1.00  0.00     0.305 A 
ENDROOT
BRANCH   9  12
HETATM   12  C10 UNK     1      15.866   4.772   9.646  1.00  0.00     0.182 C 
HETATM   13  O4  UNK     1      15.856   3.582   9.896  1.00  0.00    -0.646 OA
BRANCH  12  14
HETATM   14  O3  UNK     1      16.958   5.522   9.388  1.00  0.00    -0.772 OA
HETATM   15  H5  UNK     1      16.888   6.421   9.772  1.00  0.00     0.167 HD
ENDBRANCH  12  14
ENDBRANCH   9  12
BRANCH   7  16
HETATM   16  N1  UNK     1       9.304   6.066   6.676  1.00  0.00    -0.116 N 
HETATM   17  O5  UNK     1       8.344   5.371   7.089  1.00  0.00    -0.532 OA
HETATM   18  O6  UNK     1       9.385   6.450   5.484  1.00  0.00    -0.532 OA
ENDBRANCH   7  16
TORSDOF 3
ENDMDL
MODEL 9
REMARK VINA RESULT:      -7.0     13.205     15.703
REMARK  3 active torsions:
REMARK  status: ('A' for Active; 'I' for Inactive)
REMARK    1  A    between atoms: C10_17  and  O3_3 
REMARK    2  A    between atoms: C5_12  and  N1_7 
REMARK    3  A    between atoms: C10_17  and  C7_14 
ROOT
HETATM    1  O1  UNK     1      18.497   1.770  31.676  1.00  0.00    -0.274 OA
HETATM    2  O2  UNK     1      18.947   2.201  29.478  1.00  0.00    -0.259 OA
HETATM    3  C1  UNK     1      19.023  -0.416  32.602  1.00  0.00     0.001 A 
HETATM    4  C2  UNK     1      18.520   0.871  32.761  1.00  0.00     0.089 A 
HETATM    5  C3  UNK     1      19.030  -1.278  33.701  1.00  0.00     0.050 A 
HETATM    6  C4  UNK     1      19.525  -0.819  31.297  1.00  0.00     0.039 A 
HETATM    7  C5  UNK     1      18.535  -0.842  34.935  1.00  0.00     0.103 A 
HETATM    8  C6  UNK     1      18.024   1.319  33.984  1.00  0.00     0.041 A 
HETATM    9  C7  UNK     1      19.501   0.038  30.270  1.00  0.00     0.114 A 
HETATM   10  C8  UNK     1      18.034   0.454  35.075  1.00  0.00     0.039 A 
HETATM   11  C9  UNK     1      18.970   1.412  30.417  1.00  0.00     0.305 A 
ENDROOT
BRANCH   9  12
HETATM   12  C10 UNK     1      20.030  -0.461  28.996  1.00  0.00     0.182 C 
HETATM   13  O4  UNK     1      21.183  -0.806  28.818  1.00  0.00    -0.646 OA
BRANCH  12  14
HETATM   14  O3  UNK     1      19.045  -0.472  28.074  1.00  0.00    -0.772 OA
HETATM   15  H5  UNK     1      18.227  -0.042  28.401  1.00  0.00     0.167 HD
ENDBRANCH  12  14
ENDBRANCH   9  12
BRANCH   7  16
HETATM   16  N1  UNK     1      18.545  -1.721  36.050  1.00  0.00    -0.116 N 
HETATM   17  O5  UNK     1      17.606  -1.657  36.882  1.00  0.00    -0.532 OA
HETATM   18  O6  UNK     1      19.489  -2.538  36.172  1.00  0.00    -0.532 OA
ENDBRANCH   7  16
TORSDOF 3
ENDMDL
MODEL 10
REMARK VINA RESULT:      -7.0     11.993     14.574
REMARK  3 active torsions:
REMARK  status: ('A' for Active; 'I' for Inactive)
REMARK    1  A    between atoms: C10_17  and  O3_3 
REMARK    2  A    between atoms: C5_12  and  N1_7 
REMARK    3  A    between atoms: C10_17  and  C7_14 
ROOT
HETATM    1  O1  UNK     1      18.971   0.514  32.356  1.00  0.00    -0.274 OA
HETATM    2  O2  UNK     1      19.616  -1.445  31.372  1.00  0.00    -0.259 OA
HETATM    3  C1  UNK     1      18.721   2.514  30.997  1.00  0.00     0.001 A 
HETATM    4  C2  UNK     1      18.660   1.882  32.235  1.00  0.00     0.089 A 
HETATM    5  C3  UNK     1      18.404   3.872  30.916  1.00  0.00     0.050 A 
HETATM    6  C4  UNK     1      19.111   1.738  29.830  1.00  0.00     0.039 A 
HETATM    7  C5  UNK     1      18.036   4.574  32.069  1.00  0.00     0.103 A 
HETATM    8  C6  UNK     1      18.294   2.568  33.391  1.00  0.00     0.041 A 
HETATM    9  C7  UNK     1      19.405   0.439  29.950  1.00  0.00     0.114 A 
HETATM   10  C8  UNK     1      17.980   3.923  33.303  1.00  0.00     0.039 A 
HETATM   11  C9  UNK     1      19.348  -0.254  31.257  1.00  0.00     0.305 A 
ENDROOT
BRANCH   9  12
HETATM   12  C10 UNK     1      19.787  -0.258  28.716  1.00  0.00     0.182 C 
HETATM   13  O4  UNK     1      19.112  -0.283  27.705  1.00  0.00    -0.646 OA
BRANCH  12  14
HETATM   14  O3  UNK     1      20.986  -0.852  28.887  1.00  0.00    -0.772 OA
HETATM   15  H5  UNK     1      21.176  -1.509  28.184  1.00  0.00     0.167 HD
ENDBRANCH  12  14
ENDBRANCH   9  12
BRANCH   7  16
HETATM   16  N1  UNK     1      17.714   5.954  31.983  1.00  0.00    -0.116 N 
HETATM   17  O5  UNK     1      16.819   6.417  32.732  1.00  0.00    -0.532 OA
HETATM   18  O6  UNK     1      18.333   6.673  31.162  1.00  0.00    -0.532 OA
ENDBRANCH   7  16
TORSDOF 3
ENDMDL
