MODEL 1
REMARK VINA RESULT:      -6.7      0.000      0.000
REMARK  3 active torsions:
REMARK  status: ('A' for Active; 'I' for Inactive)
REMARK    1  A    between atoms: C11_14  and  O2_2 
REMARK    2  A    between atoms: C5_8  and  O2_2 
REMARK    3  A    between atoms: C11_14  and  C12_15 
ROOT
HETATM    1  O1  UNK     1      18.139   5.328  34.117  1.00  0.00    -0.275 OA
HETATM    2  O3  UNK     1      18.131   7.582  34.498  1.00  0.00    -0.260 OA
HETATM    3  C1  UNK     1      18.535   4.501  31.852  1.00  0.00     0.007 A 
HETATM    4  C2  UNK     1      18.656   5.891  31.393  1.00  0.00    -0.043 A 
HETATM    5  C3  UNK     1      18.279   4.263  33.204  1.00  0.00     0.090 A 
HETATM    6  C4  UNK     1      18.661   3.389  31.010  1.00  0.00     0.051 A 
HETATM    7  C5  UNK     1      18.533   2.090  31.516  1.00  0.00     0.070 A 
HETATM    8  C6  UNK     1      18.149   2.974  33.722  1.00  0.00     0.041 A 
HETATM    9  C7  UNK     1      18.278   1.883  32.870  1.00  0.00     0.039 A 
HETATM   10  C8  UNK     1      18.519   6.883  32.284  1.00  0.00     0.090 A 
HETATM   11  C9  UNK     1      18.930   6.181  29.946  1.00  0.00     0.049 C 
HETATM   12  C10 UNK     1      18.250   6.650  33.713  1.00  0.00     0.288 A 
ENDROOT
BRANCH   7  13
HETATM   13  O2  UNK     1      18.661   1.022  30.679  1.00  0.00    -0.347 OA
BRANCH  13  14
HETATM   14  C11 UNK     1      18.909   1.302  29.303  1.00  0.00     0.202 C 
BRANCH  14  15
HETATM   15  C12 UNK     1      19.390   0.054  28.640  1.00  0.00    -0.011 C 
HETATM   16  C13 UNK     1      20.536  -0.563  28.949  1.00  0.00     0.009 C 
ENDBRANCH  14  15
ENDBRANCH  13  14
ENDBRANCH   7  13
TORSDOF 3
ENDMDL
MODEL 2
REMARK VINA RESULT:      -6.7      4.474      7.005
REMARK  3 active torsions:
REMARK  status: ('A' for Active; 'I' for Inactive)
REMARK    1  A    between atoms: C11_14  and  O2_2 
REMARK    2  A    between atoms: C5_8  and  O2_2 
REMARK    3  A    between atoms: C11_14  and  C12_15 
ROOT
HETATM    1  O1  UNK     1      20.532  -3.203  35.291  1.00  0.00    -0.275 OA
HETATM    2  O3  UNK     1      20.490  -3.881  37.474  1.00  0.00    -0.260 OA
HETATM    3  C1  UNK     1      19.023  -1.425  34.563  1.00  0.00     0.007 A 
HETATM    4  C2  UNK     1      18.497  -1.345  35.933  1.00  0.00    -0.043 A 
HETATM    5  C3  UNK     1      20.026  -2.354  34.285  1.00  0.00     0.090 A 
HETATM    6  C4  UNK     1      18.574  -0.619  33.510  1.00  0.00     0.051 A 
HETATM    7  C5  UNK     1      19.120  -0.748  32.227  1.00  0.00     0.070 A 
HETATM    8  C6  UNK     1      20.580  -2.495  33.012  1.00  0.00     0.041 A 
HETATM    9  C7  UNK     1      20.122  -1.685  31.979  1.00  0.00     0.039 A 
HETATM   10  C8  UNK     1      18.998  -2.163  36.869  1.00  0.00     0.090 A 
HETATM   11  C9  UNK     1      17.418  -0.356  36.265  1.00  0.00     0.049 C 
HETATM   12  C10 UNK     1      20.057  -3.149  36.592  1.00  0.00     0.288 A 
ENDROOT
BRANCH   7  13
HETATM   13  O2  UNK     1      18.671   0.047  31.216  1.00  0.00    -0.347 OA
BRANCH  13  14
HETATM   14  C11 UNK     1      19.652   0.593  30.336  1.00  0.00     0.202 C 
BRANCH  14  15
HETATM   15  C12 UNK     1      19.020   0.836  29.006  1.00  0.00    -0.011 C 
HETATM   16  C13 UNK     1      18.007   1.686  28.804  1.00  0.00     0.009 C 
ENDBRANCH  14  15
ENDBRANCH  13  14
ENDBRANCH   7  13
TORSDOF 3
ENDMDL
MODEL 3
REMARK VINA RESULT:      -6.7      1.289      2.525
REMARK  3 active torsions:
REMARK  status: ('A' for Active; 'I' for Inactive)
REMARK    1  A    between atoms: C11_14  and  O2_2 
REMARK    2  A    between atoms: C5_8  and  O2_2 
REMARK    3  A    between atoms: C11_14  and  C12_15 
ROOT
HETATM    1  O1  UNK     1      19.330   6.400  31.703  1.00  0.00    -0.275 OA
HETATM    2  O3  UNK     1      19.650   7.800  33.482  1.00  0.00    -0.260 OA
HETATM    3  C1  UNK     1      18.568   4.114  32.103  1.00  0.00     0.007 A 
HETATM    4  C2  UNK     1      18.557   4.397  33.545  1.00  0.00    -0.043 A 
HETATM    5  C3  UNK     1      18.956   5.128  31.226  1.00  0.00     0.090 A 
HETATM    6  C4  UNK     1      18.211   2.878  31.550  1.00  0.00     0.051 A 
HETATM    7  C5  UNK     1      18.244   2.677  30.165  1.00  0.00     0.070 A 
HETATM    8  C6  UNK     1      18.994   4.943  29.843  1.00  0.00     0.041 A 
HETATM    9  C7  UNK     1      18.635   3.709  29.313  1.00  0.00     0.039 A 
HETATM   10  C8  UNK     1      18.917   5.616  33.970  1.00  0.00     0.090 A 
HETATM   11  C9  UNK     1      18.146   3.328  34.515  1.00  0.00     0.049 C 
HETATM   12  C10 UNK     1      19.328   6.697  33.057  1.00  0.00     0.288 A 
ENDROOT
BRANCH   7  13
HETATM   13  O2  UNK     1      17.892   1.468  29.647  1.00  0.00    -0.347 OA
BRANCH  13  14
HETATM   14  C11 UNK     1      18.751   0.913  28.653  1.00  0.00     0.202 C 
BRANCH  14  15
HETATM   15  C12 UNK     1      19.963   0.358  29.323  1.00  0.00    -0.011 C 
HETATM   16  C13 UNK     1      20.512  -0.823  29.017  1.00  0.00     0.009 C 
ENDBRANCH  14  15
ENDBRANCH  13  14
ENDBRANCH   7  13
TORSDOF 3
ENDMDL
MODEL 4
REMARK VINA RESULT:      -6.5     10.985     13.787
REMARK  3 active torsions:
REMARK  status: ('A' for Active; 'I' for Inactive)
REMARK    1  A    between atoms: C11_14  and  O2_2 
REMARK    2  A    between atoms: C5_8  and  O2_2 
REMARK    3  A    between atoms: C11_14  and  C12_15 
ROOT
HETATM    1  O1  UNK     1      19.535  -9.690  38.889  1.00  0.00    -0.275 OA
HETATM    2  O3  UNK     1      19.290 -11.946  38.607  1.00  0.00    -0.260 OA
HETATM    3  C1  UNK     1      20.659  -8.385  37.157  1.00  0.00     0.007 A 
HETATM    4  C2  UNK     1      20.848  -9.620  36.384  1.00  0.00    -0.043 A 
HETATM    5  C3  UNK     1      20.007  -8.460  38.389  1.00  0.00     0.090 A 
HETATM    6  C4  UNK     1      21.098  -7.125  36.731  1.00  0.00     0.051 A 
HETATM    7  C5  UNK     1      20.884  -5.988  37.520  1.00  0.00     0.070 A 
HETATM    8  C6  UNK     1      19.787  -7.336  39.187  1.00  0.00     0.041 A 
HETATM    9  C7  UNK     1      20.229  -6.094  38.746  1.00  0.00     0.039 A 
HETATM   10  C8  UNK     1      20.388 -10.775  36.884  1.00  0.00     0.090 A 
HETATM   11  C9  UNK     1      21.545  -9.573  35.056  1.00  0.00     0.049 C 
HETATM   12  C10 UNK     1      19.697 -10.872  38.182  1.00  0.00     0.288 A 
ENDROOT
BRANCH   7  13
HETATM   13  O2  UNK     1      21.318  -4.772  37.086  1.00  0.00    -0.347 OA
BRANCH  13  14
HETATM   14  C11 UNK     1      20.535  -3.637  37.450  1.00  0.00     0.202 C 
BRANCH  14  15
HETATM   15  C12 UNK     1      19.720  -3.218  36.271  1.00  0.00    -0.011 C 
HETATM   16  C13 UNK     1      20.230  -2.637  35.179  1.00  0.00     0.009 C 
ENDBRANCH  14  15
ENDBRANCH  13  14
ENDBRANCH   7  13
TORSDOF 3
ENDMDL
MODEL 5
REMARK VINA RESULT:      -6.5      2.115      6.432
REMARK  3 active torsions:
REMARK  status: ('A' for Active; 'I' for Inactive)
REMARK    1  A    between atoms: C11_14  and  O2_2 
REMARK    2  A    between atoms: C5_8  and  O2_2 
REMARK    3  A    between atoms: C11_14  and  C12_15 
ROOT
HETATM    1  O1  UNK     1      20.014  -0.585  29.804  1.00  0.00    -0.275 OA
HETATM    2  O3  UNK     1      20.741  -2.736  30.073  1.00  0.00    -0.260 OA
HETATM    3  C1  UNK     1      18.932   0.553  31.675  1.00  0.00     0.007 A 
HETATM    4  C2  UNK     1      19.112  -0.659  32.484  1.00  0.00    -0.043 A 
HETATM    5  C3  UNK     1      19.390   0.551  30.356  1.00  0.00     0.090 A 
HETATM    6  C4  UNK     1      18.323   1.722  32.149  1.00  0.00     0.051 A 
HETATM    7  C5  UNK     1      18.183   2.843  31.322  1.00  0.00     0.070 A 
HETATM    8  C6  UNK     1      19.258   1.661  29.519  1.00  0.00     0.041 A 
HETATM    9  C7  UNK     1      18.651   2.812  30.009  1.00  0.00     0.039 A 
HETATM   10  C8  UNK     1      19.710  -1.725  31.933  1.00  0.00     0.090 A 
HETATM   11  C9  UNK     1      18.631  -0.690  33.906  1.00  0.00     0.049 C 
HETATM   12  C10 UNK     1      20.199  -1.743  30.543  1.00  0.00     0.288 A 
ENDROOT
BRANCH   7  13
HETATM   13  O2  UNK     1      17.589   3.970  31.802  1.00  0.00    -0.347 OA
BRANCH  13  14
HETATM   14  C11 UNK     1      18.346   4.763  32.715  1.00  0.00     0.202 C 
BRANCH  14  15
HETATM   15  C12 UNK     1      18.838   5.977  32.000  1.00  0.00    -0.011 C 
HETATM   16  C13 UNK     1      19.995   6.032  31.330  1.00  0.00     0.009 C 
ENDBRANCH  14  15
ENDBRANCH  13  14
ENDBRANCH   7  13
TORSDOF 3
ENDMDL
MODEL 6
REMARK VINA RESULT:      -6.5      2.239      3.593
REMARK  3 active torsions:
REMARK  status: ('A' for Active; 'I' for Inactive)
REMARK    1  A    between atoms: C11_14  and  O2_2 
REMARK    2  A    between atoms: C5_8  and  O2_2 
REMARK    3  A    between atoms: C11_14  and  C12_15 
ROOT
HETATM    1  O1  UNK     1      18.055   8.887  34.084  1.00  0.00    -0.275 OA
HETATM    2  O3  UNK     1      16.561  10.411  34.905  1.00  0.00    -0.260 OA
HETATM    3  C1  UNK     1      17.271   7.148  32.558  1.00  0.00     0.007 A 
HETATM    4  C2  UNK     1      15.914   7.700  32.666  1.00  0.00    -0.043 A 
HETATM    5  C3  UNK     1      18.301   7.761  33.273  1.00  0.00     0.090 A 
HETATM    6  C4  UNK     1      17.598   6.033  31.775  1.00  0.00     0.051 A 
HETATM    7  C5  UNK     1      18.914   5.560  31.719  1.00  0.00     0.070 A 
HETATM    8  C6  UNK     1      19.618   7.300  33.227  1.00  0.00     0.041 A 
HETATM    9  C7  UNK     1      19.923   6.193  32.444  1.00  0.00     0.039 A 
HETATM   10  C8  UNK     1      15.710   8.773  33.443  1.00  0.00     0.090 A 
HETATM   11  C9  UNK     1      14.784   7.064  31.910  1.00  0.00     0.049 C 
HETATM   12  C10 UNK     1      16.786   9.432  34.204  1.00  0.00     0.288 A 
ENDROOT
BRANCH   7  13
HETATM   13  O2  UNK     1      19.212   4.475  30.950  1.00  0.00    -0.347 OA
BRANCH  13  14
HETATM   14  C11 UNK     1      18.313   3.369  31.015  1.00  0.00     0.202 C 
BRANCH  14  15
HETATM   15  C12 UNK     1      18.699   2.377  29.968  1.00  0.00    -0.011 C 
HETATM   16  C13 UNK     1      17.958   2.103  28.889  1.00  0.00     0.009 C 
ENDBRANCH  14  15
ENDBRANCH  13  14
ENDBRANCH   7  13
TORSDOF 3
ENDMDL
MODEL 7
REMARK VINA RESULT:      -6.5      2.337      5.993
REMARK  3 active torsions:
REMARK  status: ('A' for Active; 'I' for Inactive)
REMARK    1  A    between atoms: C11_14  and  O2_2 
REMARK    2  A    between atoms: C5_8  and  O2_2 
REMARK    3  A    between atoms: C11_14  and  C12_15 
ROOT
HETATM    1  O1  UNK     1      19.568  -1.164  33.385  1.00  0.00    -0.275 OA
HETATM    2  O3  UNK     1      20.649  -3.170  33.197  1.00  0.00    -0.260 OA
HETATM    3  C1  UNK     1      19.433   0.308  31.440  1.00  0.00     0.007 A 
HETATM    4  C2  UNK     1      20.187  -0.688  30.666  1.00  0.00    -0.043 A 
HETATM    5  C3  UNK     1      19.147   0.037  32.779  1.00  0.00     0.090 A 
HETATM    6  C4  UNK     1      18.980   1.523  30.912  1.00  0.00     0.051 A 
HETATM    7  C5  UNK     1      18.266   2.427  31.708  1.00  0.00     0.070 A 
HETATM    8  C6  UNK     1      18.437   0.928  33.585  1.00  0.00     0.041 A 
HETATM    9  C7  UNK     1      17.994   2.129  33.042  1.00  0.00     0.039 A 
HETATM   10  C8  UNK     1      20.573  -1.821  31.269  1.00  0.00     0.090 A 
HETATM   11  C9  UNK     1      20.511  -0.427  29.224  1.00  0.00     0.049 C 
HETATM   12  C10 UNK     1      20.279  -2.122  32.680  1.00  0.00     0.288 A 
ENDROOT
BRANCH   7  13
HETATM   13  O2  UNK     1      17.832   3.603  31.175  1.00  0.00    -0.347 OA
BRANCH  13  14
HETATM   14  C11 UNK     1      18.203   4.800  31.856  1.00  0.00     0.202 C 
BRANCH  14  15
HETATM   15  C12 UNK     1      19.442   5.345  31.228  1.00  0.00    -0.011 C 
HETATM   16  C13 UNK     1      19.495   5.837  29.985  1.00  0.00     0.009 C 
ENDBRANCH  14  15
ENDBRANCH  13  14
ENDBRANCH   7  13
TORSDOF 3
ENDMDL
MODEL 8
REMARK VINA RESULT:      -6.4      3.596      5.613
REMARK  3 active torsions:
REMARK  status: ('A' for Active; 'I' for Inactive)
REMARK    1  A    between atoms: C11_14  and  O2_2 
REMARK    2  A    between atoms: C5_8  and  O2_2 
REMARK    3  A    between atoms: C11_14  and  C12_15 
ROOT
HETATM    1  O1  UNK     1      17.949   1.851  36.942  1.00  0.00    -0.275 OA
HETATM    2  O3  UNK     1      17.698   1.577  39.198  1.00  0.00    -0.260 OA
HETATM    3  C1  UNK     1      18.236  -0.118  35.525  1.00  0.00     0.007 A 
HETATM    4  C2  UNK     1      18.147  -0.963  36.723  1.00  0.00    -0.043 A 
HETATM    5  C3  UNK     1      18.134   1.266  35.673  1.00  0.00     0.090 A 
HETATM    6  C4  UNK     1      18.419  -0.620  34.230  1.00  0.00     0.051 A 
HETATM    7  C5  UNK     1      18.495   0.244  33.132  1.00  0.00     0.070 A 
HETATM    8  C6  UNK     1      18.208   2.140  34.588  1.00  0.00     0.041 A 
HETATM    9  C7  UNK     1      18.389   1.622  33.311  1.00  0.00     0.039 A 
HETATM   10  C8  UNK     1      17.970  -0.379  37.917  1.00  0.00     0.090 A 
HETATM   11  C9  UNK     1      18.253  -2.455  36.598  1.00  0.00     0.049 C 
HETATM   12  C10 UNK     1      17.859   1.079  38.091  1.00  0.00     0.288 A 
ENDROOT
BRANCH   7  13
HETATM   13  O2  UNK     1      18.672  -0.265  31.880  1.00  0.00    -0.347 OA
BRANCH  13  14
HETATM   14  C11 UNK     1      19.384   0.544  30.946  1.00  0.00     0.202 C 
BRANCH  14  15
HETATM   15  C12 UNK     1      20.551  -0.232  30.432  1.00  0.00    -0.011 C 
HETATM   16  C13 UNK     1      20.674  -0.645  29.165  1.00  0.00     0.009 C 
ENDBRANCH  14  15
ENDBRANCH  13  14
ENDBRANCH   7  13
TORSDOF 3
ENDMDL
MODEL 9
REMARK VINA RESULT:      -6.4     21.823     23.629
REMARK  3 active torsions:
REMARK  status: ('A' for Active; 'I' for Inactive)
REMARK    1  A    between atoms: C11_14  and  O2_2 
REMARK    2  A    between atoms: C5_8  and  O2_2 
REMARK    3  A    between atoms: C11_14  and  C12_15 
ROOT
HETATM    1  O1  UNK     1      16.199   6.282   9.410  1.00  0.00    -0.275 OA
HETATM    2  O3  UNK     1      18.037   7.349  10.253  1.00  0.00    -0.260 OA
HETATM    3  C1  UNK     1      13.973   7.137   9.940  1.00  0.00     0.007 A 
HETATM    4  C2  UNK     1      14.599   8.202  10.736  1.00  0.00    -0.043 A 
HETATM    5  C3  UNK     1      14.796   6.208   9.301  1.00  0.00     0.090 A 
HETATM    6  C4  UNK     1      12.589   6.996   9.782  1.00  0.00     0.051 A 
HETATM    7  C5  UNK     1      12.059   5.956   9.008  1.00  0.00     0.070 A 
HETATM    8  C6  UNK     1      14.283   5.167   8.526  1.00  0.00     0.041 A 
HETATM    9  C7  UNK     1      12.906   5.043   8.381  1.00  0.00     0.039 A 
HETATM   10  C8  UNK     1      15.936   8.248  10.821  1.00  0.00     0.090 A 
HETATM   11  C9  UNK     1      13.743   9.217  11.436  1.00  0.00     0.049 C 
HETATM   12  C10 UNK     1      16.818   7.276  10.152  1.00  0.00     0.288 A 
ENDROOT
BRANCH   7  13
HETATM   13  O2  UNK     1      10.710   5.837   8.866  1.00  0.00    -0.347 OA
BRANCH  13  14
HETATM   14  C11 UNK     1      10.042   6.859   8.129  1.00  0.00     0.202 C 
BRANCH  14  15
HETATM   15  C12 UNK     1       9.409   6.245   6.925  1.00  0.00    -0.011 C 
HETATM   16  C13 UNK     1      10.011   6.141   5.735  1.00  0.00     0.009 C 
ENDBRANCH  14  15
ENDBRANCH  13  14
ENDBRANCH   7  13
TORSDOF 3
ENDMDL
MODEL 10
REMARK VINA RESULT:      -6.3     11.341     13.603
REMARK  3 active torsions:
REMARK  status: ('A' for Active; 'I' for Inactive)
REMARK    1  A    between atoms: C11_14  and  O2_2 
REMARK    2  A    between atoms: C5_8  and  O2_2 
REMARK    3  A    between atoms: C11_14  and  C12_15 
ROOT
HETATM    1  O1  UNK     1      20.571  -5.901  36.080  1.00  0.00    -0.275 OA
HETATM    2  O3  UNK     1      20.328  -3.794  36.933  1.00  0.00    -0.260 OA
HETATM    3  C1  UNK     1      21.743  -7.595  37.393  1.00  0.00     0.007 A 
HETATM    4  C2  UNK     1      21.949  -6.596  38.451  1.00  0.00    -0.043 A 
HETATM    5  C3  UNK     1      21.059  -7.214  36.238  1.00  0.00     0.090 A 
HETATM    6  C4  UNK     1      22.196  -8.917  37.474  1.00  0.00     0.051 A 
HETATM    7  C5  UNK     1      21.965  -9.818  36.427  1.00  0.00     0.070 A 
HETATM    8  C6  UNK     1      20.821  -8.100  35.186  1.00  0.00     0.041 A 
HETATM    9  C7  UNK     1      21.278  -9.409  35.285  1.00  0.00     0.039 A 
HETATM   10  C8  UNK     1      21.473  -5.355  38.273  1.00  0.00     0.090 A 
HETATM   11  C9  UNK     1      22.682  -6.972  39.705  1.00  0.00     0.049 C 
HETATM   12  C10 UNK     1      20.748  -4.938  37.060  1.00  0.00     0.288 A 
ENDROOT
BRANCH   7  13
HETATM   13  O2  UNK     1      22.413 -11.101  36.526  1.00  0.00    -0.347 OA
BRANCH  13  14
HETATM   14  C11 UNK     1      23.121 -11.628  35.406  1.00  0.00     0.202 C 
BRANCH  14  15
HETATM   15  C12 UNK     1      24.387 -12.253  35.891  1.00  0.00    -0.011 C 
HETATM   16  C13 UNK     1      25.431 -11.560  36.358  1.00  0.00     0.009 C 
ENDBRANCH  14  15
ENDBRANCH  13  14
ENDBRANCH   7  13
TORSDOF 3
ENDMDL
