MODEL 1
REMARK VINA RESULT:      -7.3      0.000      0.000
REMARK  1 active torsions:
REMARK  status: ('A' for Active; 'I' for Inactive)
REMARK    1  A    between atoms: C6_9  and  O2_2 
ROOT
HETATM    1  O1  UNK     1      18.892   0.501  32.714  1.00  0.00    -0.274 OA
HETATM    2  O3  UNK     1      17.958   2.164  33.976  1.00  0.00    -0.260 OA
HETATM    3  C1  UNK     1      19.249   0.870  30.325  1.00  0.00     0.005 A 
HETATM    4  C2  UNK     1      19.338   0.054  31.454  1.00  0.00     0.099 A 
HETATM    5  C3  UNK     1      19.867  -1.237  31.400  1.00  0.00     0.006 A 
HETATM    6  C4  UNK     1      18.678   2.216  30.474  1.00  0.00    -0.043 A 
HETATM    7  C5  UNK     1      19.714   0.351  29.109  1.00  0.00     0.017 A 
HETATM    8  C6  UNK     1      20.323  -1.734  30.183  1.00  0.00     0.074 A 
HETATM    9  C7  UNK     1      20.247  -0.941  29.040  1.00  0.00     0.038 A 
HETATM   10  C8  UNK     1      18.263   2.615  31.684  1.00  0.00     0.090 A 
HETATM   11  C9  UNK     1      19.945  -2.080  32.631  1.00  0.00     0.054 C 
HETATM   12  C10 UNK     1      18.568   3.119  29.279  1.00  0.00     0.049 C 
HETATM   13  C11 UNK     1      18.350   1.765  32.884  1.00  0.00     0.288 A 
ENDROOT
BRANCH   8  14
HETATM   14  O2  UNK     1      20.847  -2.987  30.091  1.00  0.00    -0.360 OA
HETATM   15  H10 UNK     1      20.138  -3.612  29.862  1.00  0.00     0.217 HD
ENDBRANCH   8  14
TORSDOF 1
ENDMDL
MODEL 2
REMARK VINA RESULT:      -6.9      8.585     10.615
REMARK  1 active torsions:
REMARK  status: ('A' for Active; 'I' for Inactive)
REMARK    1  A    between atoms: C6_9  and  O2_2 
ROOT
HETATM    1  O1  UNK     1      21.379  -7.856  35.375  1.00  0.00    -0.274 OA
HETATM    2  O3  UNK     1      20.806  -7.391  33.211  1.00  0.00    -0.260 OA
HETATM    3  C1  UNK     1      19.782  -7.384  37.162  1.00  0.00     0.005 A 
HETATM    4  C2  UNK     1      21.026  -7.853  36.739  1.00  0.00     0.099 A 
HETATM    5  C3  UNK     1      21.981  -8.342  37.633  1.00  0.00     0.006 A 
HETATM    6  C4  UNK     1      18.836  -6.888  36.152  1.00  0.00    -0.043 A 
HETATM    7  C5  UNK     1      19.507  -7.415  38.536  1.00  0.00     0.017 A 
HETATM    8  C6  UNK     1      21.689  -8.364  38.993  1.00  0.00     0.074 A 
HETATM    9  C7  UNK     1      20.454  -7.901  39.444  1.00  0.00     0.038 A 
HETATM   10  C8  UNK     1      19.199  -6.903  34.862  1.00  0.00     0.090 A 
HETATM   11  C9  UNK     1      23.302  -8.835  37.141  1.00  0.00     0.054 C 
HETATM   12  C10 UNK     1      17.490  -6.376  36.574  1.00  0.00     0.049 C 
HETATM   13  C11 UNK     1      20.508  -7.395  34.400  1.00  0.00     0.288 A 
ENDROOT
BRANCH   8  14
HETATM   14  O2  UNK     1      22.594  -8.834  39.895  1.00  0.00    -0.360 OA
HETATM   15  H10 UNK     1      22.235  -8.724  40.792  1.00  0.00     0.217 HD
ENDBRANCH   8  14
TORSDOF 1
ENDMDL
MODEL 3
REMARK VINA RESULT:      -6.7      1.348      4.140
REMARK  1 active torsions:
REMARK  status: ('A' for Active; 'I' for Inactive)
REMARK    1  A    between atoms: C6_9  and  O2_2 
ROOT
HETATM    1  O1  UNK     1      19.295  -0.350  32.781  1.00  0.00    -0.274 OA
HETATM    2  O3  UNK     1      20.118  -2.445  33.187  1.00  0.00    -0.260 OA
HETATM    3  C1  UNK     1      19.416   0.565  30.519  1.00  0.00     0.005 A 
HETATM    4  C2  UNK     1      19.052   0.689  31.861  1.00  0.00     0.099 A 
HETATM    5  C3  UNK     1      18.434   1.836  32.362  1.00  0.00     0.006 A 
HETATM    6  C4  UNK     1      20.062  -0.680  30.078  1.00  0.00    -0.043 A 
HETATM    7  C5  UNK     1      19.141   1.643  29.668  1.00  0.00     0.017 A 
HETATM    8  C6  UNK     1      18.169   2.896  31.500  1.00  0.00     0.074 A 
HETATM    9  C7  UNK     1      18.522   2.799  30.155  1.00  0.00     0.038 A 
HETATM   10  C8  UNK     1      20.280  -1.651  30.975  1.00  0.00     0.090 A 
HETATM   11  C9  UNK     1      18.059   1.931  33.805  1.00  0.00     0.054 C 
HETATM   12  C10 UNK     1      20.466  -0.845  28.642  1.00  0.00     0.049 C 
HETATM   13  C11 UNK     1      19.901  -1.535  32.394  1.00  0.00     0.288 A 
ENDROOT
BRANCH   8  14
HETATM   14  O2  UNK     1      17.567   4.030  31.951  1.00  0.00    -0.360 OA
HETATM   15  H10 UNK     1      16.614   3.866  32.051  1.00  0.00     0.217 HD
ENDBRANCH   8  14
TORSDOF 1
ENDMDL
MODEL 4
REMARK VINA RESULT:      -6.7      6.038      7.328
REMARK  1 active torsions:
REMARK  status: ('A' for Active; 'I' for Inactive)
REMARK    1  A    between atoms: C6_9  and  O2_2 
ROOT
HETATM    1  O1  UNK     1      16.804   6.610  31.273  1.00  0.00    -0.274 OA
HETATM    2  O3  UNK     1      14.564   7.057  31.393  1.00  0.00    -0.260 OA
HETATM    3  C1  UNK     1      18.206   6.989  33.238  1.00  0.00     0.005 A 
HETATM    4  C2  UNK     1      18.061   6.586  31.910  1.00  0.00     0.099 A 
HETATM    5  C3  UNK     1      19.141   6.142  31.145  1.00  0.00     0.006 A 
HETATM    6  C4  UNK     1      17.014   7.441  33.970  1.00  0.00    -0.043 A 
HETATM    7  C5  UNK     1      19.489   6.936  33.799  1.00  0.00     0.017 A 
HETATM    8  C6  UNK     1      20.407   6.097  31.719  1.00  0.00     0.074 A 
HETATM    9  C7  UNK     1      20.581   6.493  33.044  1.00  0.00     0.038 A 
HETATM   10  C8  UNK     1      15.831   7.453  33.339  1.00  0.00     0.090 A 
HETATM   11  C9  UNK     1      18.946   5.720  29.725  1.00  0.00     0.054 C 
HETATM   12  C10 UNK     1      17.135   7.881  35.400  1.00  0.00     0.049 C 
HETATM   13  C11 UNK     1      15.663   7.031  31.938  1.00  0.00     0.288 A 
ENDROOT
BRANCH   8  14
HETATM   14  O2  UNK     1      21.485   5.669  31.005  1.00  0.00    -0.360 OA
HETATM   15  H10 UNK     1      22.174   6.355  31.027  1.00  0.00     0.217 HD
ENDBRANCH   8  14
TORSDOF 1
ENDMDL
MODEL 5
REMARK VINA RESULT:      -6.6      1.826      3.067
REMARK  1 active torsions:
REMARK  status: ('A' for Active; 'I' for Inactive)
REMARK    1  A    between atoms: C6_9  and  O2_2 
ROOT
HETATM    1  O1  UNK     1      18.386   0.855  32.159  1.00  0.00    -0.274 OA
HETATM    2  O3  UNK     1      17.716   2.606  30.848  1.00  0.00    -0.260 OA
HETATM    3  C1  UNK     1      19.947  -0.789  31.248  1.00  0.00     0.005 A 
HETATM    4  C2  UNK     1      19.156  -0.317  32.297  1.00  0.00     0.099 A 
HETATM    5  C3  UNK     1      19.084  -0.970  33.528  1.00  0.00     0.006 A 
HETATM    6  C4  UNK     1      19.964  -0.037  29.986  1.00  0.00    -0.043 A 
HETATM    7  C5  UNK     1      20.683  -1.962  31.466  1.00  0.00     0.017 A 
HETATM    8  C6  UNK     1      19.822  -2.133  33.724  1.00  0.00     0.074 A 
HETATM    9  C7  UNK     1      20.620  -2.628  32.695  1.00  0.00     0.038 A 
HETATM   10  C8  UNK     1      19.222   1.074  29.883  1.00  0.00     0.090 A 
HETATM   11  C9  UNK     1      18.226  -0.433  34.626  1.00  0.00     0.054 C 
HETATM   12  C10 UNK     1      20.804  -0.519  28.839  1.00  0.00     0.049 C 
HETATM   13  C11 UNK     1      18.383   1.585  30.980  1.00  0.00     0.288 A 
ENDROOT
BRANCH   8  14
HETATM   14  O2  UNK     1      19.778  -2.798  34.912  1.00  0.00    -0.360 OA
HETATM   15  H10 UNK     1      18.856  -3.034  35.110  1.00  0.00     0.217 HD
ENDBRANCH   8  14
TORSDOF 1
ENDMDL
MODEL 6
REMARK VINA RESULT:      -6.4      1.605      2.901
REMARK  1 active torsions:
REMARK  status: ('A' for Active; 'I' for Inactive)
REMARK    1  A    between atoms: C6_9  and  O2_2 
ROOT
HETATM    1  O1  UNK     1      19.330   1.534  29.906  1.00  0.00    -0.274 OA
HETATM    2  O3  UNK     1      18.656   3.708  29.679  1.00  0.00    -0.260 OA
HETATM    3  C1  UNK     1      19.003   0.399  32.045  1.00  0.00     0.005 A 
HETATM    4  C2  UNK     1      19.450   0.392  30.722  1.00  0.00     0.099 A 
HETATM    5  C3  UNK     1      20.034  -0.734  30.140  1.00  0.00     0.006 A 
HETATM    6  C4  UNK     1      18.399   1.629  32.576  1.00  0.00    -0.043 A 
HETATM    7  C5  UNK     1      19.159  -0.777  32.791  1.00  0.00     0.017 A 
HETATM    8  C6  UNK     1      20.179  -1.892  30.897  1.00  0.00     0.074 A 
HETATM    9  C7  UNK     1      19.743  -1.914  32.220  1.00  0.00     0.038 A 
HETATM   10  C8  UNK     1      18.298   2.700  31.777  1.00  0.00     0.090 A 
HETATM   11  C9  UNK     1      20.499  -0.703  28.721  1.00  0.00     0.054 C 
HETATM   12  C10 UNK     1      17.910   1.670  33.995  1.00  0.00     0.049 C 
HETATM   13  C11 UNK     1      18.764   2.708  30.380  1.00  0.00     0.288 A 
ENDROOT
BRANCH   8  14
HETATM   14  O2  UNK     1      20.743  -3.011  30.363  1.00  0.00    -0.360 OA
HETATM   15  H10 UNK     1      21.038  -3.593  31.084  1.00  0.00     0.217 HD
ENDBRANCH   8  14
TORSDOF 1
ENDMDL
MODEL 7
REMARK VINA RESULT:      -6.4     10.954     13.214
REMARK  1 active torsions:
REMARK  status: ('A' for Active; 'I' for Inactive)
REMARK    1  A    between atoms: C6_9  and  O2_2 
ROOT
HETATM    1  O1  UNK     1      30.463  -6.551  29.827  1.00  0.00    -0.274 OA
HETATM    2  O3  UNK     1      30.344  -4.541  30.911  1.00  0.00    -0.260 OA
HETATM    3  C1  UNK     1      28.445  -7.912  29.609  1.00  0.00     0.005 A 
HETATM    4  C2  UNK     1      29.808  -7.715  29.377  1.00  0.00     0.099 A 
HETATM    5  C3  UNK     1      30.590  -8.649  28.695  1.00  0.00     0.006 A 
HETATM    6  C4  UNK     1      27.698  -6.876  30.335  1.00  0.00    -0.043 A 
HETATM    7  C5  UNK     1      27.868  -9.096  29.129  1.00  0.00     0.017 A 
HETATM    8  C6  UNK     1      29.998  -9.818  28.227  1.00  0.00     0.074 A 
HETATM    9  C7  UNK     1      28.640 -10.041  28.444  1.00  0.00     0.038 A 
HETATM   10  C8  UNK     1      28.347  -5.779  30.751  1.00  0.00     0.090 A 
HETATM   11  C9  UNK     1      32.045  -8.401  28.467  1.00  0.00     0.054 C 
HETATM   12  C10 UNK     1      26.232  -7.057  30.601  1.00  0.00     0.049 C 
HETATM   13  C11 UNK     1      29.784  -5.557  30.515  1.00  0.00     0.288 A 
ENDROOT
BRANCH   8  14
HETATM   14  O2  UNK     1      30.728 -10.751  27.556  1.00  0.00    -0.360 OA
HETATM   15  H10 UNK     1      31.674 -10.547  27.656  1.00  0.00     0.217 HD
ENDBRANCH   8  14
TORSDOF 1
ENDMDL
MODEL 8
REMARK VINA RESULT:      -6.4      8.041     11.533
REMARK  1 active torsions:
REMARK  status: ('A' for Active; 'I' for Inactive)
REMARK    1  A    between atoms: C6_9  and  O2_2 
ROOT
HETATM    1  O1  UNK     1      20.987  -8.921  35.149  1.00  0.00    -0.274 OA
HETATM    2  O3  UNK     1      22.214 -10.746  34.520  1.00  0.00    -0.260 OA
HETATM    3  C1  UNK     1      19.646  -9.027  37.189  1.00  0.00     0.005 A 
HETATM    4  C2  UNK     1      20.101  -8.327  36.070  1.00  0.00     0.099 A 
HETATM    5  C3  UNK     1      19.708  -7.014  35.802  1.00  0.00     0.006 A 
HETATM    6  C4  UNK     1      20.113 -10.405  37.393  1.00  0.00    -0.043 A 
HETATM    7  C5  UNK     1      18.767  -8.366  38.057  1.00  0.00     0.017 A 
HETATM    8  C6  UNK     1      18.834  -6.376  36.676  1.00  0.00     0.074 A 
HETATM    9  C7  UNK     1      18.364  -7.050  37.801  1.00  0.00     0.038 A 
HETATM   10  C8  UNK     1      20.955 -10.944  36.501  1.00  0.00     0.090 A 
HETATM   11  C9  UNK     1      20.216  -6.299  34.593  1.00  0.00     0.054 C 
HETATM   12  C10 UNK     1      19.643 -11.185  38.587  1.00  0.00     0.049 C 
HETATM   13  C11 UNK     1      21.443 -10.219  35.316  1.00  0.00     0.288 A 
ENDROOT
BRANCH   8  14
HETATM   14  O2  UNK     1      18.429  -5.096  36.449  1.00  0.00    -0.360 OA
HETATM   15  H10 UNK     1      18.669  -4.842  35.541  1.00  0.00     0.217 HD
ENDBRANCH   8  14
TORSDOF 1
ENDMDL
MODEL 9
REMARK VINA RESULT:      -6.4     12.942     15.418
REMARK  1 active torsions:
REMARK  status: ('A' for Active; 'I' for Inactive)
REMARK    1  A    between atoms: C6_9  and  O2_2 
ROOT
HETATM    1  O1  UNK     1      29.811  -8.306  38.386  1.00  0.00    -0.274 OA
HETATM    2  O3  UNK     1      31.096 -10.189  38.198  1.00  0.00    -0.260 OA
HETATM    3  C1  UNK     1      30.883  -6.113  38.287  1.00  0.00     0.005 A 
HETATM    4  C2  UNK     1      29.738  -6.899  38.417  1.00  0.00     0.099 A 
HETATM    5  C3  UNK     1      28.468  -6.343  38.583  1.00  0.00     0.006 A 
HETATM    6  C4  UNK     1      32.180  -6.783  38.115  1.00  0.00    -0.043 A 
HETATM    7  C5  UNK     1      30.726  -4.721  38.328  1.00  0.00     0.017 A 
HETATM    8  C6  UNK     1      28.332  -4.959  38.622  1.00  0.00     0.074 A 
HETATM    9  C7  UNK     1      29.460  -4.149  38.495  1.00  0.00     0.038 A 
HETATM   10  C8  UNK     1      32.220  -8.122  38.089  1.00  0.00     0.090 A 
HETATM   11  C9  UNK     1      27.265  -7.219  38.719  1.00  0.00     0.054 C 
HETATM   12  C10 UNK     1      33.432  -5.966  37.973  1.00  0.00     0.049 C 
HETATM   13  C11 UNK     1      31.020  -8.965  38.225  1.00  0.00     0.288 A 
ENDROOT
BRANCH   8  14
HETATM   14  O2  UNK     1      27.110  -4.380  38.781  1.00  0.00    -0.360 OA
HETATM   15  H10 UNK     1      27.214  -3.552  39.280  1.00  0.00     0.217 HD
ENDBRANCH   8  14
TORSDOF 1
ENDMDL
MODEL 10
REMARK VINA RESULT:      -6.4      6.069      9.195
REMARK  1 active torsions:
REMARK  status: ('A' for Active; 'I' for Inactive)
REMARK    1  A    between atoms: C6_9  and  O2_2 
ROOT
HETATM    1  O1  UNK     1      16.374   6.033  32.462  1.00  0.00    -0.274 OA
HETATM    2  O3  UNK     1      17.760   4.227  32.242  1.00  0.00    -0.260 OA
HETATM    3  C1  UNK     1      17.248   8.099  33.432  1.00  0.00     0.005 A 
HETATM    4  C2  UNK     1      16.197   7.370  32.872  1.00  0.00     0.099 A 
HETATM    5  C3  UNK     1      14.926   7.917  32.689  1.00  0.00     0.006 A 
HETATM    6  C4  UNK     1      18.554   7.444  33.587  1.00  0.00    -0.043 A 
HETATM    7  C5  UNK     1      16.990   9.422  33.815  1.00  0.00     0.017 A 
HETATM    8  C6  UNK     1      14.690   9.232  33.076  1.00  0.00     0.074 A 
HETATM    9  C7  UNK     1      15.721   9.984  33.638  1.00  0.00     0.038 A 
HETATM   10  C8  UNK     1      18.694   6.172  33.187  1.00  0.00     0.090 A 
HETATM   11  C9  UNK     1      13.827   7.104  32.086  1.00  0.00     0.054 C 
HETATM   12  C10 UNK     1      19.705   8.199  34.186  1.00  0.00     0.049 C 
HETATM   13  C11 UNK     1      17.595   5.390  32.595  1.00  0.00     0.288 A 
ENDROOT
BRANCH   8  14
HETATM   14  O2  UNK     1      13.464   9.801  32.912  1.00  0.00    -0.360 OA
HETATM   15  H10 UNK     1      13.553  10.768  32.960  1.00  0.00     0.217 HD
ENDBRANCH   8  14
TORSDOF 1
ENDMDL
