MODEL 1
REMARK VINA RESULT:      -7.8      0.000      0.000
REMARK  6 active torsions:
REMARK  status: ('A' for Active; 'I' for Inactive)
REMARK    1  A    between atoms: C8_14  and  O3_3 
REMARK    2  A    between atoms: C9_15  and  O4_4 
REMARK    3  A    between atoms: C10_16  and  O5_5 
REMARK    4  A    between atoms: C13_19  and  C3_9 
REMARK    5  A    between atoms: C15_21  and  C5_11 
REMARK    6  A    between atoms: C13_19  and  C16_22 
ROOT
HETATM    1  C15 UNK     1      18.447   4.273  29.373  1.00  0.00     0.015 C 
HETATM    2  C16 UNK     1      18.963   5.493  29.588  1.00  0.00     0.056 C 
ENDROOT
BRANCH   1   3
HETATM    3  C5  UNK     1      18.659   3.109  30.251  1.00  0.00    -0.031 A 
HETATM    4  C11 UNK     1      18.087   3.081  31.523  1.00  0.00     0.051 A 
HETATM    5  C9  UNK     1      18.287   1.980  32.354  1.00  0.00     0.105 A 
HETATM    6  C8  UNK     1      19.059   0.904  31.913  1.00  0.00     0.135 A 
HETATM    7  C10 UNK     1      19.631   0.932  30.641  1.00  0.00     0.105 A 
HETATM    8  C12 UNK     1      19.431   2.035  29.810  1.00  0.00     0.051 A 
BRANCH   5   9
HETATM    9  O4  UNK     1      17.723   1.965  33.594  1.00  0.00    -0.353 OA
HETATM   10  C18 UNK     1      18.346   2.764  34.598  1.00  0.00     0.210 C 
ENDBRANCH   5   9
BRANCH   6  11
HETATM   11  O3  UNK     1      19.254  -0.173  32.725  1.00  0.00    -0.351 OA
HETATM   12  C17 UNK     1      18.352  -1.267  32.577  1.00  0.00     0.210 C 
ENDBRANCH   6  11
BRANCH   7  13
HETATM   13  O5  UNK     1      20.388  -0.111  30.199  1.00  0.00    -0.353 OA
HETATM   14  C19 UNK     1      20.194  -0.525  28.848  1.00  0.00     0.210 C 
ENDBRANCH   7  13
ENDBRANCH   1   3
BRANCH   2  15
HETATM   15  C13 UNK     1      19.824   5.757  30.790  1.00  0.00     0.182 C 
HETATM   16  O6  UNK     1      21.041   5.519  30.759  1.00  0.00    -0.288 OA
BRANCH  15  17
HETATM   17  C3  UNK     1      19.206   6.325  31.978  1.00  0.00     0.017 A 
HETATM   18  C4  UNK     1      17.921   6.867  31.900  1.00  0.00     0.055 A 
HETATM   19  C1  UNK     1      17.376   7.394  33.052  1.00  0.00     0.105 A 
HETATM   20  O1  UNK     1      16.144   7.961  33.167  1.00  0.00    -0.323 OA
HETATM   21  C2  UNK     1      18.062   7.391  34.245  1.00  0.00     0.105 A 
HETATM   22  C14 UNK     1      16.133   8.316  34.564  1.00  0.00     0.352 A 
HETATM   23  O2  UNK     1      17.348   7.958  35.255  1.00  0.00    -0.323 OA
HETATM   24  C6  UNK     1      19.333   6.862  34.350  1.00  0.00     0.040 A 
HETATM   25  C7  UNK     1      19.909   6.323  33.197  1.00  0.00     0.018 A 
ENDBRANCH  15  17
ENDBRANCH   2  15
TORSDOF 6
ENDMDL
MODEL 2
REMARK VINA RESULT:      -7.7      0.066      2.566
REMARK  6 active torsions:
REMARK  status: ('A' for Active; 'I' for Inactive)
REMARK    1  A    between atoms: C8_14  and  O3_3 
REMARK    2  A    between atoms: C9_15  and  O4_4 
REMARK    3  A    between atoms: C10_16  and  O5_5 
REMARK    4  A    between atoms: C13_19  and  C3_9 
REMARK    5  A    between atoms: C15_21  and  C5_11 
REMARK    6  A    between atoms: C13_19  and  C16_22 
ROOT
HETATM    1  C15 UNK     1      18.458   4.221  29.386  1.00  0.00     0.015 C 
HETATM    2  C16 UNK     1      18.965   5.443  29.607  1.00  0.00     0.056 C 
ENDROOT
BRANCH   1   3
HETATM    3  C5  UNK     1      18.666   3.057  30.266  1.00  0.00    -0.031 A 
HETATM    4  C11 UNK     1      19.423   1.973  29.822  1.00  0.00     0.051 A 
HETATM    5  C9  UNK     1      19.621   0.873  30.655  1.00  0.00     0.105 A 
HETATM    6  C8  UNK     1      19.062   0.856  31.934  1.00  0.00     0.135 A 
HETATM    7  C10 UNK     1      18.305   1.940  32.378  1.00  0.00     0.105 A 
HETATM    8  C12 UNK     1      18.108   3.041  31.544  1.00  0.00     0.051 A 
BRANCH   5   9
HETATM    9  O4  UNK     1      20.361  -0.180  30.209  1.00  0.00    -0.353 OA
HETATM   10  C18 UNK     1      20.193  -0.558  28.843  1.00  0.00     0.210 C 
ENDBRANCH   5   9
BRANCH   6  11
HETATM   11  O3  UNK     1      19.256  -0.220  32.748  1.00  0.00    -0.351 OA
HETATM   12  C17 UNK     1      18.334  -1.300  32.623  1.00  0.00     0.210 C 
ENDBRANCH   6  11
BRANCH   7  13
HETATM   13  O5  UNK     1      17.754   1.936  33.623  1.00  0.00    -0.353 OA
HETATM   14  C19 UNK     1      18.311   2.836  34.581  1.00  0.00     0.210 C 
ENDBRANCH   7  13
ENDBRANCH   1   3
BRANCH   2  15
HETATM   15  C13 UNK     1      19.810   5.711  30.821  1.00  0.00     0.182 C 
HETATM   16  O6  UNK     1      21.024   5.460  30.813  1.00  0.00    -0.288 OA
BRANCH  15  17
HETATM   17  C3  UNK     1      19.178   6.300  31.992  1.00  0.00     0.017 A 
HETATM   18  C4  UNK     1      17.876   6.797  31.902  1.00  0.00     0.055 A 
HETATM   19  C1  UNK     1      17.319   7.346  33.038  1.00  0.00     0.105 A 
HETATM   20  O1  UNK     1      16.071   7.878  33.140  1.00  0.00    -0.323 OA
HETATM   21  C2  UNK     1      18.010   7.406  34.227  1.00  0.00     0.105 A 
HETATM   22  C14 UNK     1      16.054   8.280  34.524  1.00  0.00     0.352 A 
HETATM   23  O2  UNK     1      17.282   7.984  35.220  1.00  0.00    -0.323 OA
HETATM   24  C6  UNK     1      19.298   6.921  34.343  1.00  0.00     0.040 A 
HETATM   25  C7  UNK     1      19.885   6.362  33.206  1.00  0.00     0.018 A 
ENDBRANCH  15  17
ENDBRANCH   2  15
TORSDOF 6
ENDMDL
MODEL 3
REMARK VINA RESULT:      -7.7     22.530     24.915
REMARK  6 active torsions:
REMARK  status: ('A' for Active; 'I' for Inactive)
REMARK    1  A    between atoms: C8_14  and  O3_3 
REMARK    2  A    between atoms: C9_15  and  O4_4 
REMARK    3  A    between atoms: C10_16  and  O5_5 
REMARK    4  A    between atoms: C13_19  and  C3_9 
REMARK    5  A    between atoms: C15_21  and  C5_11 
REMARK    6  A    between atoms: C13_19  and  C16_22 
ROOT
HETATM    1  C15 UNK     1      10.124   6.378   6.411  1.00  0.00     0.015 C 
HETATM    2  C16 UNK     1      11.372   5.888   6.423  1.00  0.00     0.056 C 
ENDROOT
BRANCH   1   3
HETATM    3  C5  UNK     1       9.287   6.563   7.610  1.00  0.00    -0.031 A 
HETATM    4  C11 UNK     1       8.291   5.635   7.915  1.00  0.00     0.051 A 
HETATM    5  C9  UNK     1       7.500   5.809   9.050  1.00  0.00     0.105 A 
HETATM    6  C8  UNK     1       7.705   6.911   9.881  1.00  0.00     0.135 A 
HETATM    7  C10 UNK     1       8.700   7.839   9.575  1.00  0.00     0.105 A 
HETATM    8  C12 UNK     1       9.492   7.665   8.440  1.00  0.00     0.051 A 
BRANCH   5   9
HETATM    9  O4  UNK     1       6.531   4.896   9.337  1.00  0.00    -0.353 OA
HETATM   10  C18 UNK     1       6.957   3.644   9.872  1.00  0.00     0.210 C 
ENDBRANCH   5   9
BRANCH   6  11
HETATM   11  O3  UNK     1       6.931   7.081  10.990  1.00  0.00    -0.351 OA
HETATM   12  C17 UNK     1       5.702   7.784  10.821  1.00  0.00     0.210 C 
ENDBRANCH   6  11
BRANCH   7  13
HETATM   13  O5  UNK     1       8.909   8.920  10.378  1.00  0.00    -0.353 OA
HETATM   14  C19 UNK     1      10.090   9.684  10.139  1.00  0.00     0.210 C 
ENDBRANCH   7  13
ENDBRANCH   1   3
BRANCH   2  15
HETATM   15  C13 UNK     1      12.022   5.483   7.716  1.00  0.00     0.182 C 
HETATM   16  O6  UNK     1      11.802   4.367   8.211  1.00  0.00    -0.288 OA
BRANCH  15  17
HETATM   17  C3  UNK     1      12.936   6.416   8.358  1.00  0.00     0.017 A 
HETATM   18  C4  UNK     1      13.577   6.053   9.545  1.00  0.00     0.055 A 
HETATM   19  C1  UNK     1      14.434   6.971  10.117  1.00  0.00     0.105 A 
HETATM   20  O1  UNK     1      15.142   6.795  11.266  1.00  0.00    -0.323 OA
HETATM   21  C2  UNK     1      14.659   8.203   9.548  1.00  0.00     0.105 A 
HETATM   22  C14 UNK     1      15.837   8.054  11.356  1.00  0.00     0.352 A 
HETATM   23  O2  UNK     1      15.535   8.954  10.270  1.00  0.00    -0.323 OA
HETATM   24  C6  UNK     1      14.039   8.586   8.376  1.00  0.00     0.040 A 
HETATM   25  C7  UNK     1      13.165   7.676   7.777  1.00  0.00     0.018 A 
ENDBRANCH  15  17
ENDBRANCH   2  15
TORSDOF 6
ENDMDL
MODEL 4
REMARK VINA RESULT:      -7.6     22.494     24.858
REMARK  6 active torsions:
REMARK  status: ('A' for Active; 'I' for Inactive)
REMARK    1  A    between atoms: C8_14  and  O3_3 
REMARK    2  A    between atoms: C9_15  and  O4_4 
REMARK    3  A    between atoms: C10_16  and  O5_5 
REMARK    4  A    between atoms: C13_19  and  C3_9 
REMARK    5  A    between atoms: C15_21  and  C5_11 
REMARK    6  A    between atoms: C13_19  and  C16_22 
ROOT
HETATM    1  C15 UNK     1      10.248   6.317   6.412  1.00  0.00     0.015 C 
HETATM    2  C16 UNK     1      11.483   5.797   6.446  1.00  0.00     0.056 C 
ENDROOT
BRANCH   1   3
HETATM    3  C5  UNK     1       9.413   6.568   7.600  1.00  0.00    -0.031 A 
HETATM    4  C11 UNK     1       9.629   7.707   8.376  1.00  0.00     0.051 A 
HETATM    5  C9  UNK     1       8.839   7.945   9.500  1.00  0.00     0.105 A 
HETATM    6  C8  UNK     1       7.831   7.045   9.848  1.00  0.00     0.135 A 
HETATM    7  C10 UNK     1       7.615   5.907   9.072  1.00  0.00     0.105 A 
HETATM    8  C12 UNK     1       8.406   5.668   7.948  1.00  0.00     0.051 A 
BRANCH   5   9
HETATM    9  O4  UNK     1       9.061   9.061  10.249  1.00  0.00    -0.353 OA
HETATM   10  C18 UNK     1      10.338   9.685  10.121  1.00  0.00     0.210 C 
ENDBRANCH   5   9
BRANCH   6  11
HETATM   11  O3  UNK     1       7.058   7.279  10.947  1.00  0.00    -0.351 OA
HETATM   12  C17 UNK     1       5.852   8.011  10.745  1.00  0.00     0.210 C 
ENDBRANCH   6  11
BRANCH   7  13
HETATM   13  O5  UNK     1       6.635   5.020   9.401  1.00  0.00    -0.353 OA
HETATM   14  C19 UNK     1       7.040   3.822  10.062  1.00  0.00     0.210 C 
ENDBRANCH   7  13
ENDBRANCH   1   3
BRANCH   2  15
HETATM   15  C13 UNK     1      12.120   5.424   7.756  1.00  0.00     0.182 C 
HETATM   16  O6  UNK     1      11.882   4.327   8.283  1.00  0.00    -0.288 OA
BRANCH  15  17
HETATM   17  C3  UNK     1      13.042   6.364   8.374  1.00  0.00     0.017 A 
HETATM   18  C4  UNK     1      13.693   6.019   9.560  1.00  0.00     0.055 A 
HETATM   19  C1  UNK     1      14.559   6.942  10.109  1.00  0.00     0.105 A 
HETATM   20  O1  UNK     1      15.276   6.783  11.254  1.00  0.00    -0.323 OA
HETATM   21  C2  UNK     1      14.783   8.165   9.519  1.00  0.00     0.105 A 
HETATM   22  C14 UNK     1      15.977   8.041  11.318  1.00  0.00     0.352 A 
HETATM   23  O2  UNK     1      15.667   8.924  10.220  1.00  0.00    -0.323 OA
HETATM   24  C6  UNK     1      14.153   8.531   8.346  1.00  0.00     0.040 A 
HETATM   25  C7  UNK     1      13.270   7.614   7.770  1.00  0.00     0.018 A 
ENDBRANCH  15  17
ENDBRANCH   2  15
TORSDOF 6
ENDMDL
MODEL 5
REMARK VINA RESULT:      -7.3      2.473      4.797
REMARK  6 active torsions:
REMARK  status: ('A' for Active; 'I' for Inactive)
REMARK    1  A    between atoms: C8_14  and  O3_3 
REMARK    2  A    between atoms: C9_15  and  O4_4 
REMARK    3  A    between atoms: C10_16  and  O5_5 
REMARK    4  A    between atoms: C13_19  and  C3_9 
REMARK    5  A    between atoms: C15_21  and  C5_11 
REMARK    6  A    between atoms: C13_19  and  C16_22 
ROOT
HETATM    1  C15 UNK     1      17.062  -0.250  34.711  1.00  0.00     0.015 C 
HETATM    2  C16 UNK     1      17.045   1.061  34.998  1.00  0.00     0.056 C 
ENDROOT
BRANCH   1   3
HETATM    3  C5  UNK     1      18.239  -0.981  34.211  1.00  0.00    -0.031 A 
HETATM    4  C11 UNK     1      19.035  -1.708  35.095  1.00  0.00     0.051 A 
HETATM    5  C9  UNK     1      20.149  -2.402  34.622  1.00  0.00     0.105 A 
HETATM    6  C8  UNK     1      20.466  -2.369  33.263  1.00  0.00     0.135 A 
HETATM    7  C10 UNK     1      19.669  -1.642  32.379  1.00  0.00     0.105 A 
HETATM    8  C12 UNK     1      18.555  -0.948  32.853  1.00  0.00     0.051 A 
BRANCH   5   9
HETATM    9  O4  UNK     1      20.919  -3.108  35.496  1.00  0.00    -0.353 OA
HETATM   10  C18 UNK     1      20.451  -3.205  36.840  1.00  0.00     0.210 C 
ENDBRANCH   5   9
BRANCH   6  11
HETATM   11  O3  UNK     1      21.554  -3.047  32.801  1.00  0.00    -0.351 OA
HETATM   12  C17 UNK     1      21.310  -4.277  32.123  1.00  0.00     0.210 C 
ENDBRANCH   6  11
BRANCH   7  13
HETATM   13  O5  UNK     1      19.968  -1.600  31.051  1.00  0.00    -0.353 OA
HETATM   14  C19 UNK     1      20.457  -0.364  30.535  1.00  0.00     0.210 C 
ENDBRANCH   7  13
ENDBRANCH   1   3
BRANCH   2  15
HETATM   15  C13 UNK     1      18.281   1.898  34.820  1.00  0.00     0.182 C 
HETATM   16  O6  UNK     1      19.268   1.729  35.552  1.00  0.00    -0.288 OA
BRANCH  15  17
HETATM   17  C3  UNK     1      18.304   2.887  33.754  1.00  0.00     0.017 A 
HETATM   18  C4  UNK     1      18.376   4.246  34.070  1.00  0.00     0.055 A 
HETATM   19  C1  UNK     1      18.395   5.147  33.025  1.00  0.00     0.105 A 
HETATM   20  O1  UNK     1      18.462   6.501  33.140  1.00  0.00    -0.323 OA
HETATM   21  C2  UNK     1      18.346   4.736  31.713  1.00  0.00     0.105 A 
HETATM   22  C14 UNK     1      18.449   6.896  31.753  1.00  0.00     0.352 A 
HETATM   23  O2  UNK     1      18.375   5.780  30.842  1.00  0.00    -0.323 OA
HETATM   24  C6  UNK     1      18.275   3.400  31.374  1.00  0.00     0.040 A 
HETATM   25  C7  UNK     1      18.253   2.466  32.413  1.00  0.00     0.018 A 
ENDBRANCH  15  17
ENDBRANCH   2  15
TORSDOF 6
ENDMDL
MODEL 6
REMARK VINA RESULT:      -7.3      2.477      5.134
REMARK  6 active torsions:
REMARK  status: ('A' for Active; 'I' for Inactive)
REMARK    1  A    between atoms: C8_14  and  O3_3 
REMARK    2  A    between atoms: C9_15  and  O4_4 
REMARK    3  A    between atoms: C10_16  and  O5_5 
REMARK    4  A    between atoms: C13_19  and  C3_9 
REMARK    5  A    between atoms: C15_21  and  C5_11 
REMARK    6  A    between atoms: C13_19  and  C16_22 
ROOT
HETATM    1  C15 UNK     1      17.063  -0.247  34.718  1.00  0.00     0.015 C 
HETATM    2  C16 UNK     1      17.049   1.065  34.998  1.00  0.00     0.056 C 
ENDROOT
BRANCH   1   3
HETATM    3  C5  UNK     1      18.238  -0.982  34.219  1.00  0.00    -0.031 A 
HETATM    4  C11 UNK     1      18.555  -0.952  32.861  1.00  0.00     0.051 A 
HETATM    5  C9  UNK     1      19.668  -1.647  32.388  1.00  0.00     0.105 A 
HETATM    6  C8  UNK     1      20.465  -2.372  33.274  1.00  0.00     0.135 A 
HETATM    7  C10 UNK     1      20.149  -2.403  34.632  1.00  0.00     0.105 A 
HETATM    8  C12 UNK     1      19.035  -1.707  35.105  1.00  0.00     0.051 A 
BRANCH   5   9
HETATM    9  O4  UNK     1      19.965  -1.610  31.060  1.00  0.00    -0.353 OA
HETATM   10  C18 UNK     1      20.509  -0.392  30.551  1.00  0.00     0.210 C 
ENDBRANCH   5   9
BRANCH   6  11
HETATM   11  O3  UNK     1      21.553  -3.052  32.812  1.00  0.00    -0.351 OA
HETATM   12  C17 UNK     1      21.309  -4.292  32.154  1.00  0.00     0.210 C 
ENDBRANCH   6  11
BRANCH   7  13
HETATM   13  O5  UNK     1      20.918  -3.108  35.507  1.00  0.00    -0.353 OA
HETATM   14  C19 UNK     1      20.464  -3.180  36.858  1.00  0.00     0.210 C 
ENDBRANCH   7  13
ENDBRANCH   1   3
BRANCH   2  15
HETATM   15  C13 UNK     1      18.286   1.899  34.813  1.00  0.00     0.182 C 
HETATM   16  O6  UNK     1      19.275   1.731  35.543  1.00  0.00    -0.288 OA
BRANCH  15  17
HETATM   17  C3  UNK     1      18.307   2.885  33.744  1.00  0.00     0.017 A 
HETATM   18  C4  UNK     1      18.376   4.245  34.055  1.00  0.00     0.055 A 
HETATM   19  C1  UNK     1      18.394   5.143  33.007  1.00  0.00     0.105 A 
HETATM   20  O1  UNK     1      18.457   6.498  33.117  1.00  0.00    -0.323 OA
HETATM   21  C2  UNK     1      18.347   4.727  31.697  1.00  0.00     0.105 A 
HETATM   22  C14 UNK     1      18.445   6.887  31.729  1.00  0.00     0.352 A 
HETATM   23  O2  UNK     1      18.374   5.768  30.822  1.00  0.00    -0.323 OA
HETATM   24  C6  UNK     1      18.279   3.389  31.362  1.00  0.00     0.040 A 
HETATM   25  C7  UNK     1      18.259   2.459  32.404  1.00  0.00     0.018 A 
ENDBRANCH  15  17
ENDBRANCH   2  15
TORSDOF 6
ENDMDL
MODEL 7
REMARK VINA RESULT:      -7.2     22.295     24.629
REMARK  6 active torsions:
REMARK  status: ('A' for Active; 'I' for Inactive)
REMARK    1  A    between atoms: C8_14  and  O3_3 
REMARK    2  A    between atoms: C9_15  and  O4_4 
REMARK    3  A    between atoms: C10_16  and  O5_5 
REMARK    4  A    between atoms: C13_19  and  C3_9 
REMARK    5  A    between atoms: C15_21  and  C5_11 
REMARK    6  A    between atoms: C13_19  and  C16_22 
ROOT
HETATM    1  C15 UNK     1      12.179   6.560   6.553  1.00  0.00     0.015 C 
HETATM    2  C16 UNK     1      10.969   6.015   6.750  1.00  0.00     0.056 C 
ENDROOT
BRANCH   1   3
HETATM    3  C5  UNK     1      13.163   6.816   7.619  1.00  0.00    -0.031 A 
HETATM    4  C11 UNK     1      14.078   5.825   7.974  1.00  0.00     0.051 A 
HETATM    5  C9  UNK     1      15.012   6.067   8.982  1.00  0.00     0.105 A 
HETATM    6  C8  UNK     1      15.031   7.301   9.634  1.00  0.00     0.135 A 
HETATM    7  C10 UNK     1      14.116   8.291   9.278  1.00  0.00     0.105 A 
HETATM    8  C12 UNK     1      13.182   8.049   8.270  1.00  0.00     0.051 A 
BRANCH   5   9
HETATM    9  O4  UNK     1      15.899   5.091   9.320  1.00  0.00    -0.353 OA
HETATM   10  C18 UNK     1      15.397   3.994  10.083  1.00  0.00     0.210 C 
ENDBRANCH   5   9
BRANCH   6  11
HETATM   11  O3  UNK     1      15.943   7.537  10.619  1.00  0.00    -0.351 OA
HETATM   12  C17 UNK     1      17.239   7.968  10.210  1.00  0.00     0.210 C 
ENDBRANCH   6  11
BRANCH   7  13
HETATM   13  O5  UNK     1      14.123   9.499   9.907  1.00  0.00    -0.353 OA
HETATM   14  C19 UNK     1      14.740  10.585   9.217  1.00  0.00     0.210 C 
ENDBRANCH   7  13
ENDBRANCH   1   3
BRANCH   2  15
HETATM   15  C13 UNK     1      10.526   5.614   8.129  1.00  0.00     0.182 C 
HETATM   16  O6  UNK     1      11.055   4.652   8.706  1.00  0.00    -0.288 OA
BRANCH  15  17
HETATM   17  C3  UNK     1       9.487   6.395   8.781  1.00  0.00     0.017 A 
HETATM   18  C4  UNK     1       8.271   5.792   9.113  1.00  0.00     0.055 A 
HETATM   19  C1  UNK     1       7.316   6.573   9.731  1.00  0.00     0.105 A 
HETATM   20  O1  UNK     1       6.080   6.162  10.124  1.00  0.00    -0.323 OA
HETATM   21  C2  UNK     1       7.540   7.900  10.017  1.00  0.00     0.105 A 
HETATM   22  C14 UNK     1       5.552   7.378  10.690  1.00  0.00     0.352 A 
HETATM   23  O2  UNK     1       6.473   8.486  10.624  1.00  0.00    -0.323 OA
HETATM   24  C6  UNK     1       8.733   8.520   9.701  1.00  0.00     0.040 A 
HETATM   25  C7  UNK     1       9.716   7.752   9.073  1.00  0.00     0.018 A 
ENDBRANCH  15  17
ENDBRANCH   2  15
TORSDOF 6
ENDMDL
MODEL 8
REMARK VINA RESULT:      -7.1      6.160     11.668
REMARK  6 active torsions:
REMARK  status: ('A' for Active; 'I' for Inactive)
REMARK    1  A    between atoms: C8_14  and  O3_3 
REMARK    2  A    between atoms: C9_15  and  O4_4 
REMARK    3  A    between atoms: C10_16  and  O5_5 
REMARK    4  A    between atoms: C13_19  and  C3_9 
REMARK    5  A    between atoms: C15_21  and  C5_11 
REMARK    6  A    between atoms: C13_19  and  C16_22 
ROOT
HETATM    1  C15 UNK     1      20.521  -3.405  37.612  1.00  0.00     0.015 C 
HETATM    2  C16 UNK     1      20.431  -4.739  37.722  1.00  0.00     0.056 C 
ENDROOT
BRANCH   1   3
HETATM    3  C5  UNK     1      19.807  -2.599  36.606  1.00  0.00    -0.031 A 
HETATM    4  C11 UNK     1      18.624  -1.945  36.949  1.00  0.00     0.051 A 
HETATM    5  C9  UNK     1      17.949  -1.181  35.997  1.00  0.00     0.105 A 
HETATM    6  C8  UNK     1      18.458  -1.070  34.703  1.00  0.00     0.135 A 
HETATM    7  C10 UNK     1      19.642  -1.723  34.361  1.00  0.00     0.105 A 
HETATM    8  C12 UNK     1      20.317  -2.488  35.313  1.00  0.00     0.051 A 
BRANCH   5   9
HETATM    9  O4  UNK     1      16.793  -0.549  36.344  1.00  0.00    -0.353 OA
HETATM   10  C18 UNK     1      16.909   0.594  37.190  1.00  0.00     0.210 C 
ENDBRANCH   5   9
BRANCH   6  11
HETATM   11  O3  UNK     1      17.798  -0.322  33.773  1.00  0.00    -0.351 OA
HETATM   12  C17 UNK     1      18.154   1.055  33.678  1.00  0.00     0.210 C 
ENDBRANCH   6  11
BRANCH   7  13
HETATM   13  O5  UNK     1      20.149  -1.623  33.101  1.00  0.00    -0.353 OA
HETATM   14  C19 UNK     1      20.885  -2.741  32.608  1.00  0.00     0.210 C 
ENDBRANCH   7  13
ENDBRANCH   1   3
BRANCH   2  15
HETATM   15  C13 UNK     1      19.557  -5.525  36.786  1.00  0.00     0.182 C 
HETATM   16  O6  UNK     1      18.376  -5.197  36.600  1.00  0.00    -0.288 OA
BRANCH  15  17
HETATM   17  C3  UNK     1      20.135  -6.660  36.082  1.00  0.00     0.017 A 
HETATM   18  C4  UNK     1      20.590  -7.765  36.804  1.00  0.00     0.055 A 
HETATM   19  C1  UNK     1      21.131  -8.817  36.093  1.00  0.00     0.105 A 
HETATM   20  O1  UNK     1      21.623  -9.970  36.622  1.00  0.00    -0.323 OA
HETATM   21  C2  UNK     1      21.224  -8.791  34.720  1.00  0.00     0.105 A 
HETATM   22  C14 UNK     1      22.037 -10.666  35.429  1.00  0.00     0.352 A 
HETATM   23  O2  UNK     1      21.787  -9.924  34.218  1.00  0.00    -0.323 OA
HETATM   24  C6  UNK     1      20.782  -7.711  33.983  1.00  0.00     0.040 A 
HETATM   25  C7  UNK     1      20.231  -6.632  34.679  1.00  0.00     0.018 A 
ENDBRANCH  15  17
ENDBRANCH   2  15
TORSDOF 6
ENDMDL
MODEL 9
REMARK VINA RESULT:      -7.1     22.327     24.625
REMARK  6 active torsions:
REMARK  status: ('A' for Active; 'I' for Inactive)
REMARK    1  A    between atoms: C8_14  and  O3_3 
REMARK    2  A    between atoms: C9_15  and  O4_4 
REMARK    3  A    between atoms: C10_16  and  O5_5 
REMARK    4  A    between atoms: C13_19  and  C3_9 
REMARK    5  A    between atoms: C15_21  and  C5_11 
REMARK    6  A    between atoms: C13_19  and  C16_22 
ROOT
HETATM    1  C15 UNK     1      14.335   5.607   9.316  1.00  0.00     0.015 C 
HETATM    2  C16 UNK     1      13.686   5.322   8.177  1.00  0.00     0.056 C 
ENDROOT
BRANCH   1   3
HETATM    3  C5  UNK     1      14.453   6.956   9.896  1.00  0.00    -0.031 A 
HETATM    4  C11 UNK     1      13.362   7.533  10.547  1.00  0.00     0.051 A 
HETATM    5  C9  UNK     1      13.474   8.809  11.097  1.00  0.00     0.105 A 
HETATM    6  C8  UNK     1      14.677   9.509  10.998  1.00  0.00     0.135 A 
HETATM    7  C10 UNK     1      15.767   8.932  10.348  1.00  0.00     0.105 A 
HETATM    8  C12 UNK     1      15.655   7.655   9.797  1.00  0.00     0.051 A 
BRANCH   5   9
HETATM    9  O4  UNK     1      12.401   9.361  11.729  1.00  0.00    -0.353 OA
HETATM   10  C18 UNK     1      11.342   9.847  10.905  1.00  0.00     0.210 C 
ENDBRANCH   5   9
BRANCH   6  11
HETATM   11  O3  UNK     1      14.785  10.757  11.537  1.00  0.00    -0.351 OA
HETATM   12  C17 UNK     1      14.418  11.855  10.704  1.00  0.00     0.210 C 
ENDBRANCH   6  11
BRANCH   7  13
HETATM   13  O5  UNK     1      16.947   9.605  10.244  1.00  0.00    -0.353 OA
HETATM   14  C19 UNK     1      17.240  10.207   8.984  1.00  0.00     0.210 C 
ENDBRANCH   7  13
ENDBRANCH   1   3
BRANCH   2  15
HETATM   15  C13 UNK     1      13.008   6.409   7.392  1.00  0.00     0.182 C 
HETATM   16  O6  UNK     1      13.673   7.199   6.705  1.00  0.00    -0.288 OA
BRANCH  15  17
HETATM   17  C3  UNK     1      11.556   6.495   7.431  1.00  0.00     0.017 A 
HETATM   18  C4  UNK     1      10.919   6.937   8.593  1.00  0.00     0.055 A 
HETATM   19  C1  UNK     1       9.541   7.002   8.584  1.00  0.00     0.105 A 
HETATM   20  O1  UNK     1       8.753   7.406   9.617  1.00  0.00    -0.323 OA
HETATM   21  C2  UNK     1       8.807   6.647   7.475  1.00  0.00     0.105 A 
HETATM   22  C14 UNK     1       7.442   7.265   9.034  1.00  0.00     0.352 A 
HETATM   23  O2  UNK     1       7.469   6.783   7.675  1.00  0.00    -0.323 OA
HETATM   24  C6  UNK     1       9.412   6.207   6.314  1.00  0.00     0.040 A 
HETATM   25  C7  UNK     1      10.807   6.131   6.298  1.00  0.00     0.018 A 
ENDBRANCH  15  17
ENDBRANCH   2  15
TORSDOF 6
ENDMDL
MODEL 10
REMARK VINA RESULT:      -7.0     22.459     24.695
REMARK  6 active torsions:
REMARK  status: ('A' for Active; 'I' for Inactive)
REMARK    1  A    between atoms: C8_14  and  O3_3 
REMARK    2  A    between atoms: C9_15  and  O4_4 
REMARK    3  A    between atoms: C10_16  and  O5_5 
REMARK    4  A    between atoms: C13_19  and  C3_9 
REMARK    5  A    between atoms: C15_21  and  C5_11 
REMARK    6  A    between atoms: C13_19  and  C16_22 
ROOT
HETATM    1  C15 UNK     1      14.610   5.776   9.348  1.00  0.00     0.015 C 
HETATM    2  C16 UNK     1      13.978   5.388   8.230  1.00  0.00     0.056 C 
ENDROOT
BRANCH   1   3
HETATM    3  C5  UNK     1      14.565   7.140   9.903  1.00  0.00    -0.031 A 
HETATM    4  C11 UNK     1      15.695   7.956   9.839  1.00  0.00     0.051 A 
HETATM    5  C9  UNK     1      15.653   9.247  10.363  1.00  0.00     0.105 A 
HETATM    6  C8  UNK     1      14.481   9.724  10.952  1.00  0.00     0.135 A 
HETATM    7  C10 UNK     1      13.352   8.908  11.016  1.00  0.00     0.105 A 
HETATM    8  C12 UNK     1      13.394   7.615  10.492  1.00  0.00     0.051 A 
BRANCH   5   9
HETATM    9  O4  UNK     1      16.763  10.034  10.294  1.00  0.00    -0.353 OA
HETATM   10  C18 UNK     1      17.221  10.395   8.992  1.00  0.00     0.210 C 
ENDBRANCH   5   9
BRANCH   6  11
HETATM   11  O3  UNK     1      14.440  10.987  11.464  1.00  0.00    -0.351 OA
HETATM   12  C17 UNK     1      14.145  12.044  10.555  1.00  0.00     0.210 C 
ENDBRANCH   6  11
BRANCH   7  13
HETATM   13  O5  UNK     1      12.202   9.360  11.589  1.00  0.00    -0.353 OA
HETATM   14  C19 UNK     1      11.181   9.828  10.710  1.00  0.00     0.210 C 
ENDBRANCH   7  13
ENDBRANCH   1   3
BRANCH   2  15
HETATM   15  C13 UNK     1      13.149   6.364   7.444  1.00  0.00     0.182 C 
HETATM   16  O6  UNK     1      13.691   7.228   6.738  1.00  0.00    -0.288 OA
BRANCH  15  17
HETATM   17  C3  UNK     1      11.699   6.255   7.505  1.00  0.00     0.017 A 
HETATM   18  C4  UNK     1      11.072   6.042   8.735  1.00  0.00     0.055 A 
HETATM   19  C1  UNK     1       9.696   5.944   8.745  1.00  0.00     0.105 A 
HETATM   20  O1  UNK     1       8.917   5.738   9.841  1.00  0.00    -0.323 OA
HETATM   21  C2  UNK     1       8.954   6.052   7.590  1.00  0.00     0.105 A 
HETATM   22  C14 UNK     1       7.603   5.729   9.247  1.00  0.00     0.352 A 
HETATM   23  O2  UNK     1       7.619   5.926   7.819  1.00  0.00    -0.323 OA
HETATM   24  C6  UNK     1       9.550   6.263   6.362  1.00  0.00     0.040 A 
HETATM   25  C7  UNK     1      10.942   6.364   6.325  1.00  0.00     0.018 A 
ENDBRANCH  15  17
ENDBRANCH   2  15
TORSDOF 6
ENDMDL
