MODEL 1
REMARK VINA RESULT:      -6.5      0.000      0.000
REMARK  1 active torsions:
REMARK  status: ('A' for Active; 'I' for Inactive)
REMARK    1  A    between atoms: C6_9  and  O2_2 
ROOT
HETATM    1  O1  UNK     1       9.445   5.528   9.550  1.00  0.00    -0.275 OA
HETATM    2  O3  UNK     1       7.186   5.666   9.224  1.00  0.00    -0.260 OA
HETATM    3  C1  UNK     1      10.950   5.911   7.664  1.00  0.00     0.004 A 
HETATM    4  C2  UNK     1       9.778   6.138   6.807  1.00  0.00    -0.043 A 
HETATM    5  C3  UNK     1      10.745   5.612   9.012  1.00  0.00     0.092 A 
HETATM    6  C4  UNK     1      12.273   5.977   7.207  1.00  0.00     0.017 A 
HETATM    7  C5  UNK     1      11.803   5.383   9.894  1.00  0.00     0.075 A 
HETATM    8  C6  UNK     1      13.108   5.453   9.421  1.00  0.00     0.070 A 
HETATM    9  C7  UNK     1       8.553   6.051   7.346  1.00  0.00     0.090 A 
HETATM   10  C8  UNK     1      13.343   5.750   8.080  1.00  0.00     0.038 A 
HETATM   11  C9  UNK     1       9.965   6.461   5.354  1.00  0.00     0.049 C 
HETATM   12  C10 UNK     1       8.321   5.737   8.766  1.00  0.00     0.288 A 
ENDROOT
BRANCH   8  13
HETATM   13  O2  UNK     1      14.153   5.233  10.264  1.00  0.00    -0.356 OA
HETATM   14  C11 UNK     1      15.466   5.372   9.722  1.00  0.00     0.210 C 
ENDBRANCH   8  13
TORSDOF 1
ENDMDL
MODEL 2
REMARK VINA RESULT:      -6.5     23.483     25.111
REMARK  1 active torsions:
REMARK  status: ('A' for Active; 'I' for Inactive)
REMARK    1  A    between atoms: C6_9  and  O2_2 
ROOT
HETATM    1  O1  UNK     1      19.195  -0.236  32.848  1.00  0.00    -0.275 OA
HETATM    2  O3  UNK     1      19.963  -2.343  33.295  1.00  0.00    -0.260 OA
HETATM    3  C1  UNK     1      19.341   0.631  30.568  1.00  0.00     0.004 A 
HETATM    4  C2  UNK     1      19.954  -0.638  30.152  1.00  0.00    -0.043 A 
HETATM    5  C3  UNK     1      18.980   0.791  31.907  1.00  0.00     0.092 A 
HETATM    6  C4  UNK     1      19.093   1.698  29.696  1.00  0.00     0.017 A 
HETATM    7  C5  UNK     1      18.392   1.964  32.385  1.00  0.00     0.075 A 
HETATM    8  C6  UNK     1      18.154   3.012  31.503  1.00  0.00     0.070 A 
HETATM    9  C7  UNK     1      20.147  -1.597  31.069  1.00  0.00     0.090 A 
HETATM   10  C8  UNK     1      18.504   2.880  30.161  1.00  0.00     0.038 A 
HETATM   11  C9  UNK     1      20.353  -0.842  28.720  1.00  0.00     0.049 C 
HETATM   12  C10 UNK     1      19.772  -1.443  32.484  1.00  0.00     0.288 A 
ENDROOT
BRANCH   8  13
HETATM   13  O2  UNK     1      17.582   4.164  31.949  1.00  0.00    -0.356 OA
HETATM   14  C11 UNK     1      18.178   4.788  33.085  1.00  0.00     0.210 C 
ENDBRANCH   8  13
TORSDOF 1
ENDMDL
MODEL 3
REMARK VINA RESULT:      -6.4     22.853     25.569
REMARK  1 active torsions:
REMARK  status: ('A' for Active; 'I' for Inactive)
REMARK    1  A    between atoms: C6_9  and  O2_2 
ROOT
HETATM    1  O1  UNK     1      19.213  -0.375  32.846  1.00  0.00    -0.275 OA
HETATM    2  O3  UNK     1      19.301  -1.176  34.986  1.00  0.00    -0.260 OA
HETATM    3  C1  UNK     1      20.251  -1.659  31.045  1.00  0.00     0.004 A 
HETATM    4  C2  UNK     1      20.655  -2.669  32.033  1.00  0.00    -0.043 A 
HETATM    5  C3  UNK     1      19.541  -0.540  31.485  1.00  0.00     0.092 A 
HETATM    6  C4  UNK     1      20.537  -1.750  29.677  1.00  0.00     0.017 A 
HETATM    7  C5  UNK     1      19.119   0.465  30.613  1.00  0.00     0.075 A 
HETATM    8  C6  UNK     1      19.413   0.356  29.259  1.00  0.00     0.070 A 
HETATM    9  C7  UNK     1      20.329  -2.485  33.320  1.00  0.00     0.090 A 
HETATM   10  C8  UNK     1      20.121  -0.750  28.791  1.00  0.00     0.038 A 
HETATM   11  C9  UNK     1      21.420  -3.883  31.592  1.00  0.00     0.049 C 
HETATM   12  C10 UNK     1      19.581  -1.311  33.799  1.00  0.00     0.288 A 
ENDROOT
BRANCH   8  13
HETATM   13  O2  UNK     1      19.011   1.325  28.392  1.00  0.00    -0.356 OA
HETATM   14  C11 UNK     1      17.912   2.141  28.795  1.00  0.00     0.210 C 
ENDBRANCH   8  13
TORSDOF 1
ENDMDL
MODEL 4
REMARK VINA RESULT:      -6.4     23.163     24.869
REMARK  1 active torsions:
REMARK  status: ('A' for Active; 'I' for Inactive)
REMARK    1  A    between atoms: C6_9  and  O2_2 
ROOT
HETATM    1  O1  UNK     1      18.796   0.582  32.777  1.00  0.00    -0.275 OA
HETATM    2  O3  UNK     1      17.807   2.290  33.931  1.00  0.00    -0.260 OA
HETATM    3  C1  UNK     1      19.257   0.859  30.393  1.00  0.00     0.004 A 
HETATM    4  C2  UNK     1      18.679   2.208  30.464  1.00  0.00    -0.043 A 
HETATM    5  C3  UNK     1      19.297   0.087  31.556  1.00  0.00     0.092 A 
HETATM    6  C4  UNK     1      19.776   0.296  29.220  1.00  0.00     0.017 A 
HETATM    7  C5  UNK     1      19.829  -1.203  31.575  1.00  0.00     0.075 A 
HETATM    8  C6  UNK     1      20.338  -1.746  30.400  1.00  0.00     0.070 A 
HETATM    9  C7  UNK     1      18.210   2.653  31.639  1.00  0.00     0.090 A 
HETATM   10  C8  UNK     1      20.312  -0.997  29.225  1.00  0.00     0.038 A 
HETATM   11  C9  UNK     1      18.622   3.063  29.233  1.00  0.00     0.049 C 
HETATM   12  C10 UNK     1      18.245   1.850  32.873  1.00  0.00     0.288 A 
ENDROOT
BRANCH   8  13
HETATM   13  O2  UNK     1      20.862  -3.002  30.397  1.00  0.00    -0.356 OA
HETATM   14  C11 UNK     1      21.177  -3.577  31.665  1.00  0.00     0.210 C 
ENDBRANCH   8  13
TORSDOF 1
ENDMDL
MODEL 5
REMARK VINA RESULT:      -6.3     23.895     25.595
REMARK  1 active torsions:
REMARK  status: ('A' for Active; 'I' for Inactive)
REMARK    1  A    between atoms: C6_9  and  O2_2 
ROOT
HETATM    1  O1  UNK     1      17.261   4.503  32.311  1.00  0.00    -0.275 OA
HETATM    2  O3  UNK     1      17.382   2.750  30.848  1.00  0.00    -0.260 OA
HETATM    3  C1  UNK     1      19.078   6.135  32.374  1.00  0.00     0.004 A 
HETATM    4  C2  UNK     1      19.761   5.378  31.316  1.00  0.00    -0.043 A 
HETATM    5  C3  UNK     1      17.846   5.671  32.839  1.00  0.00     0.092 A 
HETATM    6  C4  UNK     1      19.591   7.305  32.948  1.00  0.00     0.017 A 
HETATM    7  C5  UNK     1      17.132   6.331  33.840  1.00  0.00     0.075 A 
HETATM    8  C6  UNK     1      17.658   7.491  34.399  1.00  0.00     0.070 A 
HETATM    9  C7  UNK     1      19.181   4.269  30.833  1.00  0.00     0.090 A 
HETATM   10  C8  UNK     1      18.886   7.977  33.953  1.00  0.00     0.038 A 
HETATM   11  C9  UNK     1      21.086   5.849  30.794  1.00  0.00     0.049 C 
HETATM   12  C10 UNK     1      17.882   3.768  31.314  1.00  0.00     0.288 A 
ENDROOT
BRANCH   8  13
HETATM   13  O2  UNK     1      16.978   8.149  35.376  1.00  0.00    -0.356 OA
HETATM   14  C11 UNK     1      15.978   9.078  34.958  1.00  0.00     0.210 C 
ENDBRANCH   8  13
TORSDOF 1
ENDMDL
MODEL 6
REMARK VINA RESULT:      -6.3     31.763     33.518
REMARK  1 active torsions:
REMARK  status: ('A' for Active; 'I' for Inactive)
REMARK    1  A    between atoms: C6_9  and  O2_2 
ROOT
HETATM    1  O1  UNK     1      21.465  -8.610  35.553  1.00  0.00    -0.275 OA
HETATM    2  O3  UNK     1      21.847 -10.511  34.340  1.00  0.00    -0.260 OA
HETATM    3  C1  UNK     1      20.303  -8.773  37.696  1.00  0.00     0.004 A 
HETATM    4  C2  UNK     1      20.206 -10.226  37.504  1.00  0.00    -0.043 A 
HETATM    5  C3  UNK     1      20.932  -8.009  36.711  1.00  0.00     0.092 A 
HETATM    6  C4  UNK     1      19.801  -8.100  38.817  1.00  0.00     0.017 A 
HETATM    7  C5  UNK     1      21.068  -6.624  36.816  1.00  0.00     0.075 A 
HETATM    8  C6  UNK     1      20.562  -5.975  37.936  1.00  0.00     0.070 A 
HETATM    9  C7  UNK     1      20.721 -10.770  36.392  1.00  0.00     0.090 A 
HETATM   10  C8  UNK     1      19.930  -6.712  38.936  1.00  0.00     0.038 A 
HETATM   11  C9  UNK     1      19.535 -11.075  38.544  1.00  0.00     0.049 C 
HETATM   12  C10 UNK     1      21.387  -9.978  35.344  1.00  0.00     0.288 A 
ENDROOT
BRANCH   8  13
HETATM   13  O2  UNK     1      20.684  -4.625  38.058  1.00  0.00    -0.356 OA
HETATM   14  C11 UNK     1      20.245  -3.831  36.956  1.00  0.00     0.210 C 
ENDBRANCH   8  13
TORSDOF 1
ENDMDL
MODEL 7
REMARK VINA RESULT:      -6.3     34.295     34.793
REMARK  1 active torsions:
REMARK  status: ('A' for Active; 'I' for Inactive)
REMARK    1  A    between atoms: C6_9  and  O2_2 
ROOT
HETATM    1  O1  UNK     1      23.597  -7.580  37.868  1.00  0.00    -0.275 OA
HETATM    2  O3  UNK     1      23.825  -5.676  39.114  1.00  0.00    -0.260 OA
HETATM    3  C1  UNK     1      21.522  -8.862  38.013  1.00  0.00     0.004 A 
HETATM    4  C2  UNK     1      21.011  -7.879  38.977  1.00  0.00    -0.043 A 
HETATM    5  C3  UNK     1      22.803  -8.681  37.487  1.00  0.00     0.092 A 
HETATM    6  C4  UNK     1      20.796  -9.980  37.583  1.00  0.00     0.017 A 
HETATM    7  C5  UNK     1      23.363  -9.567  36.566  1.00  0.00     0.075 A 
HETATM    8  C6  UNK     1      22.627 -10.671  36.152  1.00  0.00     0.070 A 
HETATM    9  C7  UNK     1      21.789  -6.842  39.321  1.00  0.00     0.090 A 
HETATM   10  C8  UNK     1      21.345 -10.878  36.659  1.00  0.00     0.038 A 
HETATM   11  C9  UNK     1      19.639  -8.046  39.560  1.00  0.00     0.049 C 
HETATM   12  C10 UNK     1      23.142  -6.637  38.776  1.00  0.00     0.288 A 
ENDROOT
BRANCH   8  13
HETATM   13  O2  UNK     1      23.155 -11.548  35.255  1.00  0.00    -0.356 OA
HETATM   14  C11 UNK     1      24.255 -12.343  35.694  1.00  0.00     0.210 C 
ENDBRANCH   8  13
TORSDOF 1
ENDMDL
MODEL 8
REMARK VINA RESULT:      -6.2     23.467     25.067
REMARK  1 active torsions:
REMARK  status: ('A' for Active; 'I' for Inactive)
REMARK    1  A    between atoms: C6_9  and  O2_2 
ROOT
HETATM    1  O1  UNK     1      19.559   0.953  29.448  1.00  0.00    -0.275 OA
HETATM    2  O3  UNK     1      20.501  -0.670  28.140  1.00  0.00    -0.260 OA
HETATM    3  C1  UNK     1      19.100   0.476  31.800  1.00  0.00     0.004 A 
HETATM    4  C2  UNK     1      19.645  -0.875  31.606  1.00  0.00    -0.043 A 
HETATM    5  C3  UNK     1      19.075   1.349  30.711  1.00  0.00     0.092 A 
HETATM    6  C4  UNK     1      18.602   0.946  33.021  1.00  0.00     0.017 A 
HETATM    7  C5  UNK     1      18.576   2.649  30.810  1.00  0.00     0.075 A 
HETATM    8  C6  UNK     1      18.085   3.097  32.031  1.00  0.00     0.070 A 
HETATM    9  C7  UNK     1      20.097  -1.225  30.393  1.00  0.00     0.090 A 
HETATM   10  C8  UNK     1      18.098   2.247  33.135  1.00  0.00     0.038 A 
HETATM   11  C9  UNK     1      19.686  -1.837  32.756  1.00  0.00     0.049 C 
HETATM   12  C10 UNK     1      20.077  -0.315  29.235  1.00  0.00     0.288 A 
ENDROOT
BRANCH   8  13
HETATM   13  O2  UNK     1      17.594   4.361  32.148  1.00  0.00    -0.356 OA
HETATM   14  C11 UNK     1      18.056   5.137  33.253  1.00  0.00     0.210 C 
ENDBRANCH   8  13
TORSDOF 1
ENDMDL
MODEL 9
REMARK VINA RESULT:      -6.2     24.178     25.985
REMARK  1 active torsions:
REMARK  status: ('A' for Active; 'I' for Inactive)
REMARK    1  A    between atoms: C6_9  and  O2_2 
ROOT
HETATM    1  O1  UNK     1      16.358   8.579  33.204  1.00  0.00    -0.275 OA
HETATM    2  O3  UNK     1      15.803  10.721  33.780  1.00  0.00    -0.260 OA
HETATM    3  C1  UNK     1      18.657   7.814  33.515  1.00  0.00     0.004 A 
HETATM    4  C2  UNK     1      19.001   9.142  34.042  1.00  0.00    -0.043 A 
HETATM    5  C3  UNK     1      17.342   7.574  33.112  1.00  0.00     0.092 A 
HETATM    6  C4  UNK     1      19.576   6.764  33.393  1.00  0.00     0.017 A 
HETATM    7  C5  UNK     1      16.932   6.342  32.602  1.00  0.00     0.075 A 
HETATM    8  C6  UNK     1      17.859   5.312  32.488  1.00  0.00     0.070 A 
HETATM    9  C7  UNK     1      18.043  10.078  34.118  1.00  0.00     0.090 A 
HETATM   10  C8  UNK     1      19.179   5.522  32.883  1.00  0.00     0.038 A 
HETATM   11  C9  UNK     1      20.405   9.431  34.484  1.00  0.00     0.049 C 
HETATM   12  C10 UNK     1      16.653   9.840  33.696  1.00  0.00     0.288 A 
ENDROOT
BRANCH   8  13
HETATM   13  O2  UNK     1      17.480   4.102  31.993  1.00  0.00    -0.356 OA
HETATM   14  C11 UNK     1      18.394   3.443  31.117  1.00  0.00     0.210 C 
ENDBRANCH   8  13
TORSDOF 1
ENDMDL
MODEL 10
REMARK VINA RESULT:      -6.2     24.082     25.338
REMARK  1 active torsions:
REMARK  status: ('A' for Active; 'I' for Inactive)
REMARK    1  A    between atoms: C6_9  and  O2_2 
ROOT
HETATM    1  O1  UNK     1      15.674   6.685  32.011  1.00  0.00    -0.275 OA
HETATM    2  O3  UNK     1      13.405   6.919  31.866  1.00  0.00    -0.260 OA
HETATM    3  C1  UNK     1      16.930   8.122  33.537  1.00  0.00     0.004 A 
HETATM    4  C2  UNK     1      15.668   8.764  33.930  1.00  0.00    -0.043 A 
HETATM    5  C3  UNK     1      16.892   7.100  32.587  1.00  0.00     0.092 A 
HETATM    6  C4  UNK     1      18.179   8.475  34.063  1.00  0.00     0.017 A 
HETATM    7  C5  UNK     1      18.044   6.438  32.159  1.00  0.00     0.075 A 
HETATM    8  C6  UNK     1      19.275   6.803  32.692  1.00  0.00     0.070 A 
HETATM    9  C7  UNK     1      14.525   8.350  33.365  1.00  0.00     0.090 A 
HETATM   10  C8  UNK     1      19.343   7.820  33.643  1.00  0.00     0.038 A 
HETATM   11  C9  UNK     1      15.675   9.867  34.948  1.00  0.00     0.049 C 
HETATM   12  C10 UNK     1      14.470   7.273  32.361  1.00  0.00     0.288 A 
ENDROOT
BRANCH   8  13
HETATM   13  O2  UNK     1      20.410   6.170  32.289  1.00  0.00    -0.356 OA
HETATM   14  C11 UNK     1      20.491   5.794  30.915  1.00  0.00     0.210 C 
ENDBRANCH   8  13
TORSDOF 1
ENDMDL
