MODEL 1
REMARK VINA RESULT:      -7.0      0.000      0.000
REMARK  4 active torsions:
REMARK  status: ('A' for Active; 'I' for Inactive)
REMARK    1  A    between atoms: C13_16  and  O3_3 
REMARK    2  A    between atoms: C1_4  and  C2_5 
REMARK    3  A    between atoms: C1_4  and  C3_6 
REMARK    4  A    between atoms: C3_6  and  C6_9 
ROOT
HETATM    1  O1  UNK     1      18.821   0.722  32.744  1.00  0.00    -0.274 OA
HETATM    2  O2  UNK     1      17.900   2.419  33.940  1.00  0.00    -0.259 OA
HETATM    3  C2  UNK     1      18.222   2.822  31.614  1.00  0.00     0.024 A 
HETATM    4  C4  UNK     1      18.689   2.357  30.436  1.00  0.00    -0.037 A 
HETATM    5  C5  UNK     1      19.230   0.983  30.360  1.00  0.00     0.005 A 
HETATM    6  C7  UNK     1      19.278   0.214  31.518  1.00  0.00     0.092 A 
HETATM    7  C8  UNK     1      18.289   1.997  32.854  1.00  0.00     0.295 A 
HETATM    8  C9  UNK     1      18.713   3.170  29.165  1.00  0.00     0.050 C 
HETATM    9  C10 UNK     1      19.696   0.388  29.177  1.00  0.00     0.017 A 
HETATM   10  C12 UNK     1      19.774  -1.092  31.534  1.00  0.00     0.075 A 
HETATM   11  C13 UNK     1      20.236  -1.659  30.352  1.00  0.00     0.070 A 
HETATM   12  C14 UNK     1      20.196  -0.920  29.174  1.00  0.00     0.038 A 
ENDROOT
BRANCH   3  13
HETATM   13  C1  UNK     1      17.588   4.175  31.817  1.00  0.00     0.045 C 
BRANCH  13  14
HETATM   14  C3  UNK     1      18.594   5.180  32.362  1.00  0.00     0.004 C 
BRANCH  14  15
HETATM   15  C6  UNK     1      19.005   6.176  31.276  1.00  0.00    -0.004 C 
HETATM   16  C11 UNK     1      20.385   5.858  30.722  1.00  0.00     0.005 C 
ENDBRANCH  14  15
ENDBRANCH  13  14
ENDBRANCH   3  13
BRANCH  11  17
HETATM   17  O3  UNK     1      20.721  -2.929  30.347  1.00  0.00    -0.356 OA
HETATM   18  C15 UNK     1      21.095  -3.489  31.605  1.00  0.00     0.210 C 
ENDBRANCH  11  17
TORSDOF 4
ENDMDL
MODEL 2
REMARK VINA RESULT:      -6.9      2.614      7.141
REMARK  4 active torsions:
REMARK  status: ('A' for Active; 'I' for Inactive)
REMARK    1  A    between atoms: C13_16  and  O3_3 
REMARK    2  A    between atoms: C1_4  and  C2_5 
REMARK    3  A    between atoms: C1_4  and  C3_6 
REMARK    4  A    between atoms: C3_6  and  C6_9 
ROOT
HETATM    1  O1  UNK     1      17.612   4.202  33.434  1.00  0.00    -0.274 OA
HETATM    2  O2  UNK     1      17.981   2.101  32.658  1.00  0.00    -0.259 OA
HETATM    3  C2  UNK     1      18.595   3.885  31.204  1.00  0.00     0.024 A 
HETATM    4  C4  UNK     1      18.629   5.218  30.996  1.00  0.00    -0.037 A 
HETATM    5  C5  UNK     1      18.169   6.132  32.062  1.00  0.00     0.005 A 
HETATM    6  C7  UNK     1      17.674   5.591  33.245  1.00  0.00     0.092 A 
HETATM    7  C8  UNK     1      18.051   3.312  32.469  1.00  0.00     0.295 A 
HETATM    8  C9  UNK     1      19.102   5.853  29.711  1.00  0.00     0.050 C 
HETATM    9  C10 UNK     1      18.207   7.532  31.966  1.00  0.00     0.017 A 
HETATM   10  C12 UNK     1      17.219   6.383  34.302  1.00  0.00     0.075 A 
HETATM   11  C13 UNK     1      17.260   7.767  34.182  1.00  0.00     0.070 A 
HETATM   12  C14 UNK     1      17.756   8.342  33.016  1.00  0.00     0.038 A 
ENDROOT
BRANCH   3  13
HETATM   13  C1  UNK     1      19.091   2.847  30.229  1.00  0.00     0.045 C 
BRANCH  13  14
HETATM   14  C3  UNK     1      17.971   2.362  29.319  1.00  0.00     0.004 C 
BRANCH  14  15
HETATM   15  C6  UNK     1      18.385   1.086  28.585  1.00  0.00    -0.004 C 
HETATM   16  C11 UNK     1      19.639   0.476  29.191  1.00  0.00     0.005 C 
ENDBRANCH  14  15
ENDBRANCH  13  14
ENDBRANCH   3  13
BRANCH  11  17
HETATM   17  O3  UNK     1      16.823   8.555  35.201  1.00  0.00    -0.356 OA
HETATM   18  C15 UNK     1      15.787   9.490  34.903  1.00  0.00     0.210 C 
ENDBRANCH  11  17
TORSDOF 4
ENDMDL
MODEL 3
REMARK VINA RESULT:      -6.7      1.812      6.208
REMARK  4 active torsions:
REMARK  status: ('A' for Active; 'I' for Inactive)
REMARK    1  A    between atoms: C13_16  and  O3_3 
REMARK    2  A    between atoms: C1_4  and  C2_5 
REMARK    3  A    between atoms: C1_4  and  C3_6 
REMARK    4  A    between atoms: C3_6  and  C6_9 
ROOT
HETATM    1  O1  UNK     1      18.256   2.868  33.594  1.00  0.00    -0.274 OA
HETATM    2  O2  UNK     1      18.443   0.607  33.500  1.00  0.00    -0.259 OA
HETATM    3  C2  UNK     1      18.656   1.770  31.431  1.00  0.00     0.024 A 
HETATM    4  C4  UNK     1      18.623   2.957  30.788  1.00  0.00    -0.037 A 
HETATM    5  C5  UNK     1      18.434   4.200  31.565  1.00  0.00     0.005 A 
HETATM    6  C7  UNK     1      18.255   4.111  32.943  1.00  0.00     0.092 A 
HETATM    7  C8  UNK     1      18.451   1.682  32.906  1.00  0.00     0.295 A 
HETATM    8  C9  UNK     1      18.754   3.102  29.292  1.00  0.00     0.050 C 
HETATM    9  C10 UNK     1      18.431   5.485  31.002  1.00  0.00     0.017 A 
HETATM   10  C12 UNK     1      18.069   5.235  33.750  1.00  0.00     0.075 A 
HETATM   11  C13 UNK     1      18.064   6.498  33.170  1.00  0.00     0.070 A 
HETATM   12  C14 UNK     1      18.247   6.623  31.796  1.00  0.00     0.038 A 
ENDROOT
BRANCH   3  13
HETATM   13  C1  UNK     1      18.905   0.438  30.770  1.00  0.00     0.045 C 
BRANCH  13  14
HETATM   14  C3  UNK     1      20.395   0.159  30.632  1.00  0.00     0.004 C 
BRANCH  14  15
HETATM   15  C6  UNK     1      20.680  -0.638  29.357  1.00  0.00    -0.004 C 
HETATM   16  C11 UNK     1      19.555  -0.490  28.345  1.00  0.00     0.005 C 
ENDBRANCH  14  15
ENDBRANCH  13  14
ENDBRANCH   3  13
BRANCH  11  17
HETATM   17  O3  UNK     1      17.886   7.605  33.940  1.00  0.00    -0.356 OA
HETATM   18  C15 UNK     1      18.971   7.995  34.781  1.00  0.00     0.210 C 
ENDBRANCH  11  17
TORSDOF 4
ENDMDL
MODEL 4
REMARK VINA RESULT:      -6.6     21.991     23.987
REMARK  4 active torsions:
REMARK  status: ('A' for Active; 'I' for Inactive)
REMARK    1  A    between atoms: C13_16  and  O3_3 
REMARK    2  A    between atoms: C1_4  and  C2_5 
REMARK    3  A    between atoms: C1_4  and  C3_6 
REMARK    4  A    between atoms: C3_6  and  C6_9 
ROOT
HETATM    1  O1  UNK     1      14.151   5.302   8.527  1.00  0.00    -0.274 OA
HETATM    2  O2  UNK     1      16.275   5.095   9.302  1.00  0.00    -0.259 OA
HETATM    3  C2  UNK     1      15.057   6.997  10.059  1.00  0.00     0.024 A 
HETATM    4  C4  UNK     1      13.911   7.708   9.999  1.00  0.00    -0.037 A 
HETATM    5  C5  UNK     1      12.781   7.198   9.193  1.00  0.00     0.005 A 
HETATM    6  C7  UNK     1      12.942   6.012   8.483  1.00  0.00     0.092 A 
HETATM    7  C8  UNK     1      15.227   5.734   9.285  1.00  0.00     0.295 A 
HETATM    8  C9  UNK     1      13.705   9.027  10.703  1.00  0.00     0.050 C 
HETATM    9  C10 UNK     1      11.533   7.834   9.102  1.00  0.00     0.017 A 
HETATM   10  C12 UNK     1      11.926   5.462   7.698  1.00  0.00     0.075 A 
HETATM   11  C13 UNK     1      10.700   6.112   7.617  1.00  0.00     0.070 A 
HETATM   12  C14 UNK     1      10.503   7.296   8.320  1.00  0.00     0.038 A 
ENDROOT
BRANCH   3  13
HETATM   13  C1  UNK     1      16.259   7.368  10.890  1.00  0.00     0.045 C 
BRANCH  13  14
HETATM   14  C3  UNK     1      17.306   8.093  10.055  1.00  0.00     0.004 C 
BRANCH  14  15
HETATM   15  C6  UNK     1      17.173   9.608  10.218  1.00  0.00    -0.004 C 
HETATM   16  C11 UNK     1      16.728  10.271   8.925  1.00  0.00     0.005 C 
ENDBRANCH  14  15
ENDBRANCH  13  14
ENDBRANCH   3  13
BRANCH  11  17
HETATM   17  O3  UNK     1       9.699   5.591   6.859  1.00  0.00    -0.356 OA
HETATM   18  C15 UNK     1       9.211   6.392   5.783  1.00  0.00     0.210 C 
ENDBRANCH  11  17
TORSDOF 4
ENDMDL
MODEL 5
REMARK VINA RESULT:      -6.5     13.879     15.604
REMARK  4 active torsions:
REMARK  status: ('A' for Active; 'I' for Inactive)
REMARK    1  A    between atoms: C13_16  and  O3_3 
REMARK    2  A    between atoms: C1_4  and  C2_5 
REMARK    3  A    between atoms: C1_4  and  C3_6 
REMARK    4  A    between atoms: C3_6  and  C6_9 
ROOT
HETATM    1  O1  UNK     1      29.783  -4.010  37.913  1.00  0.00    -0.274 OA
HETATM    2  O2  UNK     1      27.861  -4.206  39.106  1.00  0.00    -0.259 OA
HETATM    3  C2  UNK     1      29.072  -6.220  38.720  1.00  0.00     0.024 A 
HETATM    4  C4  UNK     1      30.137  -6.809  38.135  1.00  0.00    -0.037 A 
HETATM    5  C5  UNK     1      31.126  -5.977  37.418  1.00  0.00     0.005 A 
HETATM    6  C7  UNK     1      30.912  -4.605  37.330  1.00  0.00     0.092 A 
HETATM    7  C8  UNK     1      28.843  -4.751  38.610  1.00  0.00     0.295 A 
HETATM    8  C9  UNK     1      30.384  -8.298  38.152  1.00  0.00     0.050 C 
HETATM    9  C10 UNK     1      32.289  -6.483  36.818  1.00  0.00     0.017 A 
HETATM   10  C12 UNK     1      31.796  -3.747  36.671  1.00  0.00     0.075 A 
HETATM   11  C13 UNK     1      32.939  -4.270  36.079  1.00  0.00     0.070 A 
HETATM   12  C14 UNK     1      33.187  -5.638  36.153  1.00  0.00     0.038 A 
ENDROOT
BRANCH   3  13
HETATM   13  C1  UNK     1      28.027  -6.941  39.532  1.00  0.00     0.045 C 
BRANCH  13  14
HETATM   14  C3  UNK     1      26.914  -7.485  38.646  1.00  0.00     0.004 C 
BRANCH  14  15
HETATM   15  C6  UNK     1      26.392  -8.815  39.191  1.00  0.00    -0.004 C 
HETATM   16  C11 UNK     1      27.482  -9.587  39.917  1.00  0.00     0.005 C 
ENDBRANCH  14  15
ENDBRANCH  13  14
ENDBRANCH   3  13
BRANCH  11  17
HETATM   17  O3  UNK     1      33.812  -3.451  35.434  1.00  0.00    -0.356 OA
HETATM   18  C15 UNK     1      34.640  -4.040  34.432  1.00  0.00     0.210 C 
ENDBRANCH  11  17
TORSDOF 4
ENDMDL
MODEL 6
REMARK VINA RESULT:      -6.4      3.606      5.134
REMARK  4 active torsions:
REMARK  status: ('A' for Active; 'I' for Inactive)
REMARK    1  A    between atoms: C13_16  and  O3_3 
REMARK    2  A    between atoms: C1_4  and  C2_5 
REMARK    3  A    between atoms: C1_4  and  C3_6 
REMARK    4  A    between atoms: C3_6  and  C6_9 
ROOT
HETATM    1  O1  UNK     1      17.529  -0.577  33.257  1.00  0.00    -0.274 OA
HETATM    2  O2  UNK     1      15.956   0.203  34.697  1.00  0.00    -0.259 OA
HETATM    3  C2  UNK     1      17.772  -0.995  35.668  1.00  0.00     0.024 A 
HETATM    4  C4  UNK     1      18.908  -1.694  35.462  1.00  0.00    -0.037 A 
HETATM    5  C5  UNK     1      19.438  -1.834  34.090  1.00  0.00     0.005 A 
HETATM    6  C7  UNK     1      18.728  -1.272  33.034  1.00  0.00     0.092 A 
HETATM    7  C8  UNK     1      17.009  -0.405  34.530  1.00  0.00     0.295 A 
HETATM    8  C9  UNK     1      19.684  -2.372  36.565  1.00  0.00     0.050 C 
HETATM    9  C10 UNK     1      20.633  -2.499  33.774  1.00  0.00     0.017 A 
HETATM   10  C12 UNK     1      19.157  -1.358  31.708  1.00  0.00     0.075 A 
HETATM   11  C13 UNK     1      20.341  -2.027  31.417  1.00  0.00     0.070 A 
HETATM   12  C14 UNK     1      21.080  -2.595  32.450  1.00  0.00     0.038 A 
ENDROOT
BRANCH   3  13
HETATM   13  C1  UNK     1      17.159  -0.722  37.017  1.00  0.00     0.045 C 
BRANCH  13  14
HETATM   14  C3  UNK     1      17.933   0.353  37.769  1.00  0.00     0.004 C 
BRANCH  14  15
HETATM   15  C6  UNK     1      17.769   1.713  37.088  1.00  0.00    -0.004 C 
HETATM   16  C11 UNK     1      18.997   2.078  36.269  1.00  0.00     0.005 C 
ENDBRANCH  14  15
ENDBRANCH  13  14
ENDBRANCH   3  13
BRANCH  11  17
HETATM   17  O3  UNK     1      20.776  -2.120  30.133  1.00  0.00    -0.356 OA
HETATM   18  C15 UNK     1      20.618  -0.968  29.305  1.00  0.00     0.210 C 
ENDBRANCH  11  17
TORSDOF 4
ENDMDL
MODEL 7
REMARK VINA RESULT:      -6.4      5.108      9.317
REMARK  4 active torsions:
REMARK  status: ('A' for Active; 'I' for Inactive)
REMARK    1  A    between atoms: C13_16  and  O3_3 
REMARK    2  A    between atoms: C1_4  and  C2_5 
REMARK    3  A    between atoms: C1_4  and  C3_6 
REMARK    4  A    between atoms: C3_6  and  C6_9 
ROOT
HETATM    1  O1  UNK     1      15.950   6.910  32.731  1.00  0.00    -0.274 OA
HETATM    2  O2  UNK     1      17.190   5.039  32.387  1.00  0.00    -0.259 OA
HETATM    3  C2  UNK     1      18.324   6.890  33.368  1.00  0.00     0.024 A 
HETATM    4  C4  UNK     1      18.256   8.175  33.777  1.00  0.00    -0.037 A 
HETATM    5  C5  UNK     1      16.966   8.893  33.709  1.00  0.00     0.005 A 
HETATM    6  C7  UNK     1      15.857   8.234  33.185  1.00  0.00     0.092 A 
HETATM    7  C8  UNK     1      17.135   6.196  32.796  1.00  0.00     0.295 A 
HETATM    8  C9  UNK     1      19.440   8.951  34.298  1.00  0.00     0.050 C 
HETATM    9  C10 UNK     1      16.776  10.211  34.152  1.00  0.00     0.017 A 
HETATM   10  C12 UNK     1      14.602   8.839  33.084  1.00  0.00     0.075 A 
HETATM   11  C13 UNK     1      14.439  10.148  33.523  1.00  0.00     0.070 A 
HETATM   12  C14 UNK     1      15.525  10.833  34.059  1.00  0.00     0.038 A 
ENDROOT
BRANCH   3  13
HETATM   13  C1  UNK     1      19.557   6.026  33.442  1.00  0.00     0.045 C 
BRANCH  13  14
HETATM   14  C3  UNK     1      20.539   6.365  32.329  1.00  0.00     0.004 C 
BRANCH  14  15
HETATM   15  C6  UNK     1      20.380   5.397  31.155  1.00  0.00    -0.004 C 
HETATM   16  C11 UNK     1      19.640   6.045  29.995  1.00  0.00     0.005 C 
ENDBRANCH  14  15
ENDBRANCH  13  14
ENDBRANCH   3  13
BRANCH  11  17
HETATM   17  O3  UNK     1      13.225  10.753  33.435  1.00  0.00    -0.356 OA
HETATM   18  C15 UNK     1      12.975  11.845  34.318  1.00  0.00     0.210 C 
ENDBRANCH  11  17
TORSDOF 4
ENDMDL
MODEL 8
REMARK VINA RESULT:      -6.4      2.895      6.408
REMARK  4 active torsions:
REMARK  status: ('A' for Active; 'I' for Inactive)
REMARK    1  A    between atoms: C13_16  and  O3_3 
REMARK    2  A    between atoms: C1_4  and  C2_5 
REMARK    3  A    between atoms: C1_4  and  C3_6 
REMARK    4  A    between atoms: C3_6  and  C6_9 
ROOT
HETATM    1  O1  UNK     1      18.474   0.935  31.810  1.00  0.00    -0.274 OA
HETATM    2  O2  UNK     1      18.397  -1.272  32.341  1.00  0.00    -0.259 OA
HETATM    3  C2  UNK     1      18.164   0.257  34.153  1.00  0.00     0.024 A 
HETATM    4  C4  UNK     1      18.151   1.546  34.556  1.00  0.00    -0.037 A 
HETATM    5  C5  UNK     1      18.267   2.623  33.550  1.00  0.00     0.005 A 
HETATM    6  C7  UNK     1      18.427   2.279  32.211  1.00  0.00     0.092 A 
HETATM    7  C8  UNK     1      18.348  -0.104  32.718  1.00  0.00     0.295 A 
HETATM    8  C9  UNK     1      18.038   1.970  35.999  1.00  0.00     0.050 C 
HETATM    9  C10 UNK     1      18.217   3.991  33.857  1.00  0.00     0.017 A 
HETATM   10  C12 UNK     1      18.545   3.233  31.199  1.00  0.00     0.075 A 
HETATM   11  C13 UNK     1      18.499   4.583  31.526  1.00  0.00     0.070 A 
HETATM   12  C14 UNK     1      18.334   4.962  32.855  1.00  0.00     0.038 A 
ENDROOT
BRANCH   3  13
HETATM   13  C1  UNK     1      17.990  -0.932  35.063  1.00  0.00     0.045 C 
BRANCH  13  14
HETATM   14  C3  UNK     1      19.334  -1.455  35.552  1.00  0.00     0.004 C 
BRANCH  14  15
HETATM   15  C6  UNK     1      19.204  -2.050  36.955  1.00  0.00    -0.004 C 
HETATM   16  C11 UNK     1      18.051  -1.422  37.723  1.00  0.00     0.005 C 
ENDBRANCH  14  15
ENDBRANCH  13  14
ENDBRANCH   3  13
BRANCH  11  17
HETATM   17  O3  UNK     1      18.611   5.527  30.554  1.00  0.00    -0.356 OA
HETATM   18  C15 UNK     1      19.928   5.862  30.118  1.00  0.00     0.210 C 
ENDBRANCH  11  17
TORSDOF 4
ENDMDL
MODEL 9
REMARK VINA RESULT:      -6.4     21.777     23.583
REMARK  4 active torsions:
REMARK  status: ('A' for Active; 'I' for Inactive)
REMARK    1  A    between atoms: C13_16  and  O3_3 
REMARK    2  A    between atoms: C1_4  and  C2_5 
REMARK    3  A    between atoms: C1_4  and  C3_6 
REMARK    4  A    between atoms: C3_6  and  C6_9 
ROOT
HETATM    1  O1  UNK     1      12.491   8.222  10.282  1.00  0.00    -0.274 OA
HETATM    2  O2  UNK     1      13.730   9.520  11.673  1.00  0.00    -0.259 OA
HETATM    3  C2  UNK     1      14.861   7.686  10.655  1.00  0.00     0.024 A 
HETATM    4  C4  UNK     1      14.773   6.604   9.853  1.00  0.00    -0.037 A 
HETATM    5  C5  UNK     1      13.494   6.301   9.178  1.00  0.00     0.005 A 
HETATM    6  C7  UNK     1      12.396   7.120   9.418  1.00  0.00     0.092 A 
HETATM    7  C8  UNK     1      13.676   8.553  10.918  1.00  0.00     0.295 A 
HETATM    8  C9  UNK     1      15.917   5.652   9.605  1.00  0.00     0.050 C 
HETATM    9  C10 UNK     1      13.311   5.230   8.289  1.00  0.00     0.017 A 
HETATM   10  C12 UNK     1      11.151   6.904   8.822  1.00  0.00     0.075 A 
HETATM   11  C13 UNK     1      10.990   5.834   7.950  1.00  0.00     0.070 A 
HETATM   12  C14 UNK     1      12.070   4.998   7.682  1.00  0.00     0.038 A 
ENDROOT
BRANCH   3  13
HETATM   13  C1  UNK     1      16.117   8.145  11.351  1.00  0.00     0.045 C 
BRANCH  13  14
HETATM   14  C3  UNK     1      17.120   8.719  10.360  1.00  0.00     0.004 C 
BRANCH  14  15
HETATM   15  C6  UNK     1      16.899  10.222  10.177  1.00  0.00    -0.004 C 
HETATM   16  C11 UNK     1      16.266  10.533   8.830  1.00  0.00     0.005 C 
ENDBRANCH  14  15
ENDBRANCH  13  14
ENDBRANCH   3  13
BRANCH  11  17
HETATM   17  O3  UNK     1       9.787   5.608   7.359  1.00  0.00    -0.356 OA
HETATM   18  C15 UNK     1       9.590   6.150   6.053  1.00  0.00     0.210 C 
ENDBRANCH  11  17
TORSDOF 4
ENDMDL
MODEL 10
REMARK VINA RESULT:      -6.4     22.162     23.842
REMARK  4 active torsions:
REMARK  status: ('A' for Active; 'I' for Inactive)
REMARK    1  A    between atoms: C13_16  and  O3_3 
REMARK    2  A    between atoms: C1_4  and  C2_5 
REMARK    3  A    between atoms: C1_4  and  C3_6 
REMARK    4  A    between atoms: C3_6  and  C6_9 
ROOT
HETATM    1  O1  UNK     1      16.133   6.463  10.050  1.00  0.00    -0.274 OA
HETATM    2  O2  UNK     1      15.062   4.465  10.176  1.00  0.00    -0.259 OA
HETATM    3  C2  UNK     1      13.718   6.347   9.606  1.00  0.00     0.024 A 
HETATM    4  C4  UNK     1      13.660   7.681   9.410  1.00  0.00    -0.037 A 
HETATM    5  C5  UNK     1      14.898   8.484   9.494  1.00  0.00     0.005 A 
HETATM    6  C7  UNK     1      16.093   7.845   9.814  1.00  0.00     0.092 A 
HETATM    7  C8  UNK     1      15.000   5.672   9.960  1.00  0.00     0.295 A 
HETATM    8  C9  UNK     1      12.382   8.429   9.118  1.00  0.00     0.050 C 
HETATM    9  C10 UNK     1      14.955   9.867   9.261  1.00  0.00     0.017 A 
HETATM   10  C12 UNK     1      17.307   8.528   9.914  1.00  0.00     0.075 A 
HETATM   11  C13 UNK     1      17.338   9.899   9.686  1.00  0.00     0.070 A 
HETATM   12  C14 UNK     1      16.163  10.568   9.357  1.00  0.00     0.038 A 
ENDROOT
BRANCH   3  13
HETATM   13  C1  UNK     1      12.547   5.406   9.487  1.00  0.00     0.045 C 
BRANCH  13  14
HETATM   14  C3  UNK     1      12.365   4.927   8.052  1.00  0.00     0.004 C 
BRANCH  14  15
HETATM   15  C6  UNK     1      11.162   5.612   7.402  1.00  0.00    -0.004 C 
HETATM   16  C11 UNK     1      11.544   6.287   6.094  1.00  0.00     0.005 C 
ENDBRANCH  14  15
ENDBRANCH  13  14
ENDBRANCH   3  13
BRANCH  11  17
HETATM   17  O3  UNK     1      18.511  10.581   9.778  1.00  0.00    -0.356 OA
HETATM   18  C15 UNK     1      18.671  11.719   8.932  1.00  0.00     0.210 C 
ENDBRANCH  11  17
TORSDOF 4
ENDMDL
