MODEL 1
REMARK VINA RESULT:      -9.1      0.000      0.000
REMARK  3 active torsions:
REMARK  status: ('A' for Active; 'I' for Inactive)
REMARK    1  A    between atoms: C5_11  and  O2_3 
REMARK    2  A    between atoms: C11_17  and  N1_6 
REMARK       I    between atoms: C8_14  and  N1_6 
REMARK    3  A    between atoms: C3_9  and  C8_14 
ROOT
HETATM    1  O1  UNK     1      19.525  -1.228  34.623  1.00  0.00    -0.271 OA
HETATM    2  O3  UNK     1      20.684  -3.130  34.115  1.00  0.00    -0.259 OA
HETATM    3  C1  UNK     1      18.516  -0.990  36.824  1.00  0.00     0.002 A 
HETATM    4  C2  UNK     1      18.774  -0.482  35.554  1.00  0.00     0.123 A 
HETATM    5  C3  UNK     1      19.746  -3.007  36.287  1.00  0.00     0.108 A 
HETATM    6  C4  UNK     1      19.034  -2.303  37.175  1.00  0.00     0.037 A 
HETATM    7  C5  UNK     1      18.307   0.768  35.154  1.00  0.00     0.102 A 
HETATM    8  C6  UNK     1      17.769  -0.220  37.717  1.00  0.00     0.014 A 
HETATM    9  C7  UNK     1      20.034  -2.487  34.931  1.00  0.00     0.304 A 
HETATM   10  C9  UNK     1      17.562   1.529  36.053  1.00  0.00     0.040 A 
HETATM   11  C10 UNK     1      17.294   1.036  37.332  1.00  0.00     0.004 A 
ENDROOT
BRANCH   5  12
HETATM   12  C8  UNK     1      20.225  -4.320  36.735  1.00  0.00     0.262 C 
HETATM   13  O4  UNK     1      21.296  -4.408  37.333  1.00  0.00    -0.267 OA
HETATM   14  N1  UNK     1      19.346  -5.340  36.398  1.00  0.00    -0.323 N 
HETATM   15  H5  UNK     1      18.504  -5.102  35.880  1.00  0.00     0.169 HD
BRANCH  14  16
HETATM   16  C11 UNK     1      19.485  -6.724  36.669  1.00  0.00     0.036 A 
HETATM   17  C12 UNK     1      20.348  -7.482  35.896  1.00  0.00     0.048 A 
HETATM   18  C14 UNK     1      20.484  -8.844  36.163  1.00  0.00     0.013 A 
HETATM   19 Br1  UNK     1      21.657  -9.899  35.122  1.00  0.00    -0.051 Br
HETATM   20  C16 UNK     1      19.755  -9.428  37.198  1.00  0.00     0.019 A 
HETATM   21  C15 UNK     1      18.889  -8.649  37.968  1.00  0.00     0.004 A 
HETATM   22  C13 UNK     1      18.754  -7.287  37.700  1.00  0.00     0.029 A 
ENDBRANCH  14  16
ENDBRANCH   5  12
BRANCH   7  23
HETATM   23  O2  UNK     1      18.566   1.252  33.910  1.00  0.00    -0.353 OA
HETATM   24  C17 UNK     1      18.224   2.614  33.658  1.00  0.00     0.210 C 
ENDBRANCH   7  23
TORSDOF 3
ENDMDL
MODEL 2
REMARK VINA RESULT:      -9.0      1.878      1.890
REMARK  3 active torsions:
REMARK  status: ('A' for Active; 'I' for Inactive)
REMARK    1  A    between atoms: C5_11  and  O2_3 
REMARK    2  A    between atoms: C11_17  and  N1_6 
REMARK       I    between atoms: C8_14  and  N1_6 
REMARK    3  A    between atoms: C3_9  and  C8_14 
ROOT
HETATM    1  O1  UNK     1      19.706  -0.958  34.923  1.00  0.00    -0.271 OA
HETATM    2  O3  UNK     1      20.810  -2.807  34.159  1.00  0.00    -0.259 OA
HETATM    3  C1  UNK     1      18.512  -1.063  37.039  1.00  0.00     0.002 A 
HETATM    4  C2  UNK     1      18.911  -0.349  35.913  1.00  0.00     0.123 A 
HETATM    5  C3  UNK     1      19.684  -3.025  36.231  1.00  0.00     0.108 A 
HETATM    6  C4  UNK     1      18.929  -2.451  37.176  1.00  0.00     0.037 A 
HETATM    7  C5  UNK     1      18.546   0.982  35.721  1.00  0.00     0.102 A 
HETATM    8  C6  UNK     1      17.725  -0.424  37.999  1.00  0.00     0.014 A 
HETATM    9  C7  UNK     1      20.120  -2.284  35.027  1.00  0.00     0.304 A 
HETATM   10  C9  UNK     1      17.760   1.612  36.685  1.00  0.00     0.040 A 
HETATM   11  C10 UNK     1      17.351   0.911  37.821  1.00  0.00     0.004 A 
ENDROOT
BRANCH   5  12
HETATM   12  C8  UNK     1      20.052  -4.427  36.460  1.00  0.00     0.262 C 
HETATM   13  O4  UNK     1      20.082  -5.212  35.513  1.00  0.00    -0.267 OA
HETATM   14  N1  UNK     1      20.331  -4.684  37.795  1.00  0.00    -0.323 N 
HETATM   15  H5  UNK     1      20.239  -3.923  38.463  1.00  0.00     0.169 HD
BRANCH  14  16
HETATM   16  C11 UNK     1      20.717  -5.918  38.374  1.00  0.00     0.036 A 
HETATM   17  C12 UNK     1      22.051  -6.287  38.356  1.00  0.00     0.048 A 
HETATM   18  C14 UNK     1      22.430  -7.502  38.927  1.00  0.00     0.013 A 
HETATM   19 Br1  UNK     1      24.246  -8.026  38.915  1.00  0.00    -0.051 Br
HETATM   20  C16 UNK     1      21.469  -8.330  39.506  1.00  0.00     0.019 A 
HETATM   21  C15 UNK     1      20.128  -7.943  39.516  1.00  0.00     0.004 A 
HETATM   22  C13 UNK     1      19.750  -6.727  38.946  1.00  0.00     0.029 A 
ENDBRANCH  14  16
ENDBRANCH   5  12
BRANCH   7  23
HETATM   23  O2  UNK     1      18.943   1.668  34.617  1.00  0.00    -0.353 OA
HETATM   24  C17 UNK     1      17.956   1.920  33.618  1.00  0.00     0.210 C 
ENDBRANCH   7  23
TORSDOF 3
ENDMDL
MODEL 3
REMARK VINA RESULT:      -8.9      6.563     11.335
REMARK  3 active torsions:
REMARK  status: ('A' for Active; 'I' for Inactive)
REMARK    1  A    between atoms: C5_11  and  O2_3 
REMARK    2  A    between atoms: C11_17  and  N1_6 
REMARK       I    between atoms: C8_14  and  N1_6 
REMARK    3  A    between atoms: C3_9  and  C8_14 
ROOT
HETATM    1  O1  UNK     1      18.721   0.842  32.633  1.00  0.00    -0.271 OA
HETATM    2  O3  UNK     1      17.920   2.756  33.590  1.00  0.00    -0.259 OA
HETATM    3  C1  UNK     1      19.465   0.878  30.318  1.00  0.00     0.002 A 
HETATM    4  C2  UNK     1      19.254   0.185  31.506  1.00  0.00     0.123 A 
HETATM    5  C3  UNK     1      18.618   2.910  31.331  1.00  0.00     0.108 A 
HETATM    6  C4  UNK     1      19.125   2.291  30.257  1.00  0.00     0.037 A 
HETATM    7  C5  UNK     1      19.558  -1.169  31.630  1.00  0.00     0.102 A 
HETATM    8  C6  UNK     1      19.996   0.193  29.223  1.00  0.00     0.014 A 
HETATM    9  C7  UNK     1      18.386   2.193  32.605  1.00  0.00     0.304 A 
HETATM   10  C9  UNK     1      20.087  -1.845  30.532  1.00  0.00     0.040 A 
HETATM   11  C10 UNK     1      20.306  -1.166  29.332  1.00  0.00     0.004 A 
ENDROOT
BRANCH   5  12
HETATM   12  C8  UNK     1      18.307   4.335  31.172  1.00  0.00     0.262 C 
HETATM   13  O4  UNK     1      18.730   4.946  30.191  1.00  0.00    -0.267 OA
HETATM   14  N1  UNK     1      17.532   4.822  32.215  1.00  0.00    -0.323 N 
HETATM   15  H5  UNK     1      17.281   4.186  32.968  1.00  0.00     0.169 HD
BRANCH  14  16
HETATM   16  C11 UNK     1      17.049   6.142  32.389  1.00  0.00     0.036 A 
HETATM   17  C12 UNK     1      17.866   7.089  32.983  1.00  0.00     0.048 A 
HETATM   18  C14 UNK     1      17.390   8.389  33.153  1.00  0.00     0.013 A 
HETATM   19 Br1  UNK     1      18.488   9.699  33.961  1.00  0.00    -0.051 Br
HETATM   20  C16 UNK     1      16.104   8.722  32.729  1.00  0.00     0.019 A 
HETATM   21  C15 UNK     1      15.294   7.755  32.132  1.00  0.00     0.004 A 
HETATM   22  C13 UNK     1      15.771   6.456  31.961  1.00  0.00     0.029 A 
ENDBRANCH  14  16
ENDBRANCH   5  12
BRANCH   7  23
HETATM   23  O2  UNK     1      19.347  -1.833  32.797  1.00  0.00    -0.353 OA
HETATM   24  C17 UNK     1      20.466  -2.506  33.373  1.00  0.00     0.210 C 
ENDBRANCH   7  23
TORSDOF 3
ENDMDL
MODEL 4
REMARK VINA RESULT:      -8.8      8.209     10.399
REMARK  3 active torsions:
REMARK  status: ('A' for Active; 'I' for Inactive)
REMARK    1  A    between atoms: C5_11  and  O2_3 
REMARK    2  A    between atoms: C11_17  and  N1_6 
REMARK       I    between atoms: C8_14  and  N1_6 
REMARK    3  A    between atoms: C3_9  and  C8_14 
ROOT
HETATM    1  O1  UNK     1      16.952   7.840  32.886  1.00  0.00    -0.271 OA
HETATM    2  O3  UNK     1      15.832   6.039  32.035  1.00  0.00    -0.259 OA
HETATM    3  C1  UNK     1      19.269   7.592  33.584  1.00  0.00     0.002 A 
HETATM    4  C2  UNK     1      18.136   8.384  33.424  1.00  0.00     0.123 A 
HETATM    5  C3  UNK     1      18.084   5.681  32.680  1.00  0.00     0.108 A 
HETATM    6  C4  UNK     1      19.211   6.193  33.189  1.00  0.00     0.037 A 
HETATM    7  C5  UNK     1      18.125   9.730  33.781  1.00  0.00     0.102 A 
HETATM    8  C6  UNK     1      20.423   8.168  34.119  1.00  0.00     0.014 A 
HETATM    9  C7  UNK     1      16.867   6.505  32.499  1.00  0.00     0.304 A 
HETATM   10  C9  UNK     1      19.281  10.296  34.315  1.00  0.00     0.040 A 
HETATM   11  C10 UNK     1      20.427   9.517  34.483  1.00  0.00     0.004 A 
ENDROOT
BRANCH   5  12
HETATM   12  C8  UNK     1      18.124   4.262  32.313  1.00  0.00     0.262 C 
HETATM   13  O4  UNK     1      17.890   3.404  33.163  1.00  0.00    -0.267 OA
HETATM   14  N1  UNK     1      18.441   4.076  30.974  1.00  0.00    -0.323 N 
HETATM   15  H5  UNK     1      18.628   4.897  30.403  1.00  0.00     0.169 HD
BRANCH  14  16
HETATM   16  C11 UNK     1      18.568   2.848  30.279  1.00  0.00     0.036 A 
HETATM   17  C12 UNK     1      19.324   1.830  30.835  1.00  0.00     0.048 A 
HETATM   18  C14 UNK     1      19.449   0.621  30.150  1.00  0.00     0.013 A 
HETATM   19 Br1  UNK     1      20.475  -0.782  30.890  1.00  0.00    -0.051 Br
HETATM   20  C16 UNK     1      18.817   0.449  28.919  1.00  0.00     0.019 A 
HETATM   21  C15 UNK     1      18.058   1.486  28.373  1.00  0.00     0.004 A 
HETATM   22  C13 UNK     1      17.934   2.694  29.059  1.00  0.00     0.029 A 
ENDBRANCH  14  16
ENDBRANCH   5  12
BRANCH   7  23
HETATM   23  O2  UNK     1      17.011  10.493  33.618  1.00  0.00    -0.353 OA
HETATM   24  C17 UNK     1      17.004  11.775  34.243  1.00  0.00     0.210 C 
ENDBRANCH   7  23
TORSDOF 3
ENDMDL
MODEL 5
REMARK VINA RESULT:      -8.8      6.631     11.076
REMARK  3 active torsions:
REMARK  status: ('A' for Active; 'I' for Inactive)
REMARK    1  A    between atoms: C5_11  and  O2_3 
REMARK    2  A    between atoms: C11_17  and  N1_6 
REMARK       I    between atoms: C8_14  and  N1_6 
REMARK    3  A    between atoms: C3_9  and  C8_14 
ROOT
HETATM    1  O1  UNK     1      18.870   0.558  32.834  1.00  0.00    -0.271 OA
HETATM    2  O3  UNK     1      18.046   2.182  34.214  1.00  0.00    -0.259 OA
HETATM    3  C1  UNK     1      19.270   1.066  30.490  1.00  0.00     0.002 A 
HETATM    4  C2  UNK     1      19.293   0.164  31.549  1.00  0.00     0.123 A 
HETATM    5  C3  UNK     1      18.398   2.790  31.952  1.00  0.00     0.108 A 
HETATM    6  C4  UNK     1      18.800   2.422  30.729  1.00  0.00     0.037 A 
HETATM    7  C5  UNK     1      19.732  -1.148  31.387  1.00  0.00     0.102 A 
HETATM    8  C6  UNK     1      19.699   0.638  29.232  1.00  0.00     0.014 A 
HETATM    9  C7  UNK     1      18.415   1.848  33.094  1.00  0.00     0.304 A 
HETATM   10  C9  UNK     1      20.158  -1.567  30.128  1.00  0.00     0.040 A 
HETATM   11  C10 UNK     1      20.142  -0.676  29.053  1.00  0.00     0.004 A 
ENDROOT
BRANCH   5  12
HETATM   12  C8  UNK     1      17.942   4.177  32.093  1.00  0.00     0.262 C 
HETATM   13  O4  UNK     1      17.064   4.610  31.348  1.00  0.00    -0.267 OA
HETATM   14  N1  UNK     1      18.607   4.846  33.111  1.00  0.00    -0.323 N 
HETATM   15  H5  UNK     1      19.329   4.348  33.626  1.00  0.00     0.169 HD
BRANCH  14  16
HETATM   16  C11 UNK     1      18.425   6.189  33.526  1.00  0.00     0.036 A 
HETATM   17  C12 UNK     1      17.141   6.689  33.657  1.00  0.00     0.048 A 
HETATM   18  C14 UNK     1      16.962   8.010  34.065  1.00  0.00     0.013 A 
HETATM   19 Br1  UNK     1      15.218   8.714  34.252  1.00  0.00    -0.051 Br
HETATM   20  C16 UNK     1      18.071   8.812  34.335  1.00  0.00     0.019 A 
HETATM   21  C15 UNK     1      19.359   8.293  34.197  1.00  0.00     0.004 A 
HETATM   22  C13 UNK     1      19.536   6.971  33.790  1.00  0.00     0.029 A 
ENDBRANCH  14  16
ENDBRANCH   5  12
BRANCH   7  23
HETATM   23  O2  UNK     1      19.749  -2.019  32.431  1.00  0.00    -0.353 OA
HETATM   24  C17 UNK     1      20.988  -2.666  32.717  1.00  0.00     0.210 C 
ENDBRANCH   7  23
TORSDOF 3
ENDMDL
MODEL 6
REMARK VINA RESULT:      -8.7      8.199     10.249
REMARK  3 active torsions:
REMARK  status: ('A' for Active; 'I' for Inactive)
REMARK    1  A    between atoms: C5_11  and  O2_3 
REMARK    2  A    between atoms: C11_17  and  N1_6 
REMARK       I    between atoms: C8_14  and  N1_6 
REMARK    3  A    between atoms: C3_9  and  C8_14 
ROOT
HETATM    1  O1  UNK     1      19.003   7.799  32.986  1.00  0.00    -0.271 OA
HETATM    2  O3  UNK     1      20.318   6.081  32.251  1.00  0.00    -0.259 OA
HETATM    3  C1  UNK     1      16.645   7.400  33.430  1.00  0.00     0.002 A 
HETATM    4  C2  UNK     1      17.736   8.263  33.393  1.00  0.00     0.123 A 
HETATM    5  C3  UNK     1      18.039   5.576  32.653  1.00  0.00     0.108 A 
HETATM    6  C4  UNK     1      16.833   6.011  33.040  1.00  0.00     0.037 A 
HETATM    7  C5  UNK     1      17.624   9.604  33.754  1.00  0.00     0.102 A 
HETATM    8  C6  UNK     1      15.407   7.897  33.841  1.00  0.00     0.014 A 
HETATM    9  C7  UNK     1      19.213   6.476  32.607  1.00  0.00     0.304 A 
HETATM   10  C9  UNK     1      16.384  10.091  34.162  1.00  0.00     0.040 A 
HETATM   11  C10 UNK     1      15.278   9.240  34.206  1.00  0.00     0.004 A 
ENDROOT
BRANCH   5  12
HETATM   12  C8  UNK     1      18.127   4.160  32.279  1.00  0.00     0.262 C 
HETATM   13  O4  UNK     1      17.949   3.291  33.131  1.00  0.00    -0.267 OA
HETATM   14  N1  UNK     1      18.418   3.992  30.932  1.00  0.00    -0.323 N 
HETATM   15  H5  UNK     1      18.558   4.821  30.360  1.00  0.00     0.169 HD
BRANCH  14  16
HETATM   16  C11 UNK     1      18.578   2.772  30.229  1.00  0.00     0.036 A 
HETATM   17  C12 UNK     1      19.376   1.778  30.769  1.00  0.00     0.048 A 
HETATM   18  C14 UNK     1      19.532   0.578  30.077  1.00  0.00     0.013 A 
HETATM   19 Br1  UNK     1      20.616  -0.794  30.796  1.00  0.00    -0.051 Br
HETATM   20  C16 UNK     1      18.889   0.390  28.854  1.00  0.00     0.019 A 
HETATM   21  C15 UNK     1      18.088   1.402  28.323  1.00  0.00     0.004 A 
HETATM   22  C13 UNK     1      17.932   2.602  29.017  1.00  0.00     0.029 A 
ENDBRANCH  14  16
ENDBRANCH   5  12
BRANCH   7  23
HETATM   23  O2  UNK     1      18.698  10.436  33.714  1.00  0.00    -0.353 OA
HETATM   24  C17 UNK     1      18.458  11.821  33.961  1.00  0.00     0.210 C 
ENDBRANCH   7  23
TORSDOF 3
ENDMDL
MODEL 7
REMARK VINA RESULT:      -8.7      2.723      3.888
REMARK  3 active torsions:
REMARK  status: ('A' for Active; 'I' for Inactive)
REMARK    1  A    between atoms: C5_11  and  O2_3 
REMARK    2  A    between atoms: C11_17  and  N1_6 
REMARK       I    between atoms: C8_14  and  N1_6 
REMARK    3  A    between atoms: C3_9  and  C8_14 
ROOT
HETATM    1  O1  UNK     1      18.881  -0.196  33.553  1.00  0.00    -0.271 OA
HETATM    2  O3  UNK     1      18.500  -0.440  35.793  1.00  0.00    -0.259 OA
HETATM    3  C1  UNK     1      20.162  -1.886  32.363  1.00  0.00     0.002 A 
HETATM    4  C2  UNK     1      19.454  -0.688  32.364  1.00  0.00     0.123 A 
HETATM    5  C3  UNK     1      19.757  -2.148  34.738  1.00  0.00     0.108 A 
HETATM    6  C4  UNK     1      20.303  -2.621  33.611  1.00  0.00     0.037 A 
HETATM    7  C5  UNK     1      19.282   0.064  31.204  1.00  0.00     0.102 A 
HETATM    8  C6  UNK     1      20.713  -2.342  31.164  1.00  0.00     0.014 A 
HETATM    9  C7  UNK     1      18.999  -0.877  34.762  1.00  0.00     0.304 A 
HETATM   10  C9  UNK     1      19.836  -0.399  30.012  1.00  0.00     0.040 A 
HETATM   11  C10 UNK     1      20.550  -1.599  29.991  1.00  0.00     0.004 A 
ENDROOT
BRANCH   5  12
HETATM   12  C8  UNK     1      19.954  -2.960  35.944  1.00  0.00     0.262 C 
HETATM   13  O4  UNK     1      20.355  -2.430  36.979  1.00  0.00    -0.267 OA
HETATM   14  N1  UNK     1      19.640  -4.296  35.733  1.00  0.00    -0.323 N 
HETATM   15  H5  UNK     1      19.339  -4.581  34.804  1.00  0.00     0.169 HD
BRANCH  14  16
HETATM   16  C11 UNK     1      19.711  -5.358  36.667  1.00  0.00     0.036 A 
HETATM   17  C12 UNK     1      20.881  -5.553  37.382  1.00  0.00     0.048 A 
HETATM   18  C14 UNK     1      20.951  -6.599  38.303  1.00  0.00     0.013 A 
HETATM   19 Br1  UNK     1      22.537  -6.884  39.291  1.00  0.00    -0.051 Br
HETATM   20  C16 UNK     1      19.851  -7.434  38.493  1.00  0.00     0.019 A 
HETATM   21  C15 UNK     1      18.679  -7.224  37.764  1.00  0.00     0.004 A 
HETATM   22  C13 UNK     1      18.610  -6.177  36.845  1.00  0.00     0.029 A 
ENDBRANCH  14  16
ENDBRANCH   5  12
BRANCH   7  23
HETATM   23  O2  UNK     1      18.587   1.232  31.219  1.00  0.00    -0.353 OA
HETATM   24  C17 UNK     1      18.624   2.026  30.033  1.00  0.00     0.210 C 
ENDBRANCH   7  23
TORSDOF 3
ENDMDL
MODEL 8
REMARK VINA RESULT:      -8.6      3.139      8.006
REMARK  3 active torsions:
REMARK  status: ('A' for Active; 'I' for Inactive)
REMARK    1  A    between atoms: C5_11  and  O2_3 
REMARK    2  A    between atoms: C11_17  and  N1_6 
REMARK       I    between atoms: C8_14  and  N1_6 
REMARK    3  A    between atoms: C3_9  and  C8_14 
ROOT
HETATM    1  O1  UNK     1      20.252  -7.513  35.793  1.00  0.00    -0.271 OA
HETATM    2  O3  UNK     1      20.311  -5.697  34.407  1.00  0.00    -0.259 OA
HETATM    3  C1  UNK     1      20.083  -7.183  38.196  1.00  0.00     0.002 A 
HETATM    4  C2  UNK     1      20.175  -8.034  37.099  1.00  0.00     0.123 A 
HETATM    5  C3  UNK     1      20.144  -5.255  36.729  1.00  0.00     0.108 A 
HETATM    6  C4  UNK     1      20.069  -5.745  37.972  1.00  0.00     0.037 A 
HETATM    7  C5  UNK     1      20.193  -9.419  37.245  1.00  0.00     0.102 A 
HETATM    8  C6  UNK     1      20.007  -7.738  39.475  1.00  0.00     0.014 A 
HETATM    9  C7  UNK     1      20.241  -6.142  35.547  1.00  0.00     0.304 A 
HETATM   10  C9  UNK     1      20.117  -9.965  38.525  1.00  0.00     0.040 A 
HETATM   11  C10 UNK     1      20.024  -9.126  39.638  1.00  0.00     0.004 A 
ENDROOT
BRANCH   5  12
HETATM   12  C8  UNK     1      20.123  -3.794  36.606  1.00  0.00     0.262 C 
HETATM   13  O4  UNK     1      21.169  -3.184  36.387  1.00  0.00    -0.267 OA
HETATM   14  N1  UNK     1      18.846  -3.273  36.763  1.00  0.00    -0.323 N 
HETATM   15  H5  UNK     1      18.083  -3.915  36.961  1.00  0.00     0.169 HD
BRANCH  14  16
HETATM   16  C11 UNK     1      18.455  -1.912  36.709  1.00  0.00     0.036 A 
HETATM   17  C12 UNK     1      18.521  -1.236  35.502  1.00  0.00     0.048 A 
HETATM   18  C14 UNK     1      18.136   0.103  35.448  1.00  0.00     0.013 A 
HETATM   19 Br1  UNK     1      18.218   1.045  33.812  1.00  0.00    -0.051 Br
HETATM   20  C16 UNK     1      17.692   0.747  36.602  1.00  0.00     0.019 A 
HETATM   21  C15 UNK     1      17.631   0.051  37.811  1.00  0.00     0.004 A 
HETATM   22  C13 UNK     1      18.016  -1.288  37.863  1.00  0.00     0.029 A 
ENDBRANCH  14  16
ENDBRANCH   5  12
BRANCH   7  23
HETATM   23  O2  UNK     1      20.282 -10.240  36.164  1.00  0.00    -0.353 OA
HETATM   24  C17 UNK     1      21.557 -10.820  35.892  1.00  0.00     0.210 C 
ENDBRANCH   7  23
TORSDOF 3
ENDMDL
MODEL 9
REMARK VINA RESULT:      -8.4      3.392      8.157
REMARK  3 active torsions:
REMARK  status: ('A' for Active; 'I' for Inactive)
REMARK    1  A    between atoms: C5_11  and  O2_3 
REMARK    2  A    between atoms: C11_17  and  N1_6 
REMARK       I    between atoms: C8_14  and  N1_6 
REMARK    3  A    between atoms: C3_9  and  C8_14 
ROOT
HETATM    1  O1  UNK     1      19.164  -7.034  37.579  1.00  0.00    -0.271 OA
HETATM    2  O3  UNK     1      17.987  -5.456  36.418  1.00  0.00    -0.259 OA
HETATM    3  C1  UNK     1      21.307  -6.446  38.567  1.00  0.00     0.002 A 
HETATM    4  C2  UNK     1      20.309  -7.384  38.321  1.00  0.00     0.123 A 
HETATM    5  C3  UNK     1      20.060  -4.771  37.338  1.00  0.00     0.108 A 
HETATM    6  C4  UNK     1      21.149  -5.097  38.043  1.00  0.00     0.037 A 
HETATM    7  C5  UNK     1      20.398  -8.691  38.794  1.00  0.00     0.102 A 
HETATM    8  C6  UNK     1      22.426  -6.831  39.308  1.00  0.00     0.014 A 
HETATM    9  C7  UNK     1      18.985  -5.752  37.065  1.00  0.00     0.304 A 
HETATM   10  C9  UNK     1      21.519  -9.067  39.533  1.00  0.00     0.040 A 
HETATM   11  C10 UNK     1      22.531  -8.139  39.789  1.00  0.00     0.004 A 
ENDROOT
BRANCH   5  12
HETATM   12  C8  UNK     1      19.993  -3.388  36.852  1.00  0.00     0.262 C 
HETATM   13  O4  UNK     1      20.893  -2.946  36.139  1.00  0.00    -0.267 OA
HETATM   14  N1  UNK     1      18.851  -2.732  37.295  1.00  0.00    -0.323 N 
HETATM   15  H5  UNK     1      18.209  -3.236  37.901  1.00  0.00     0.169 HD
BRANCH  14  16
HETATM   16  C11 UNK     1      18.462  -1.397  37.024  1.00  0.00     0.036 A 
HETATM   17  C12 UNK     1      18.533  -0.922  35.725  1.00  0.00     0.048 A 
HETATM   18  C14 UNK     1      18.150   0.392  35.459  1.00  0.00     0.013 A 
HETATM   19 Br1  UNK     1      18.237   1.063  33.694  1.00  0.00    -0.051 Br
HETATM   20  C16 UNK     1      17.703   1.212  36.495  1.00  0.00     0.019 A 
HETATM   21  C15 UNK     1      17.638   0.717  37.798  1.00  0.00     0.004 A 
HETATM   22  C13 UNK     1      18.021  -0.598  38.063  1.00  0.00     0.029 A 
ENDBRANCH  14  16
ENDBRANCH   5  12
BRANCH   7  23
HETATM   23  O2  UNK     1      19.416  -9.598  38.548  1.00  0.00    -0.353 OA
HETATM   24  C17 UNK     1      19.783 -10.776  37.832  1.00  0.00     0.210 C 
ENDBRANCH   7  23
TORSDOF 3
ENDMDL
MODEL 10
REMARK VINA RESULT:      -8.3     18.298     20.259
REMARK  3 active torsions:
REMARK  status: ('A' for Active; 'I' for Inactive)
REMARK    1  A    between atoms: C5_11  and  O2_3 
REMARK    2  A    between atoms: C11_17  and  N1_6 
REMARK       I    between atoms: C8_14  and  N1_6 
REMARK    3  A    between atoms: C3_9  and  C8_14 
ROOT
HETATM    1  O1  UNK     1      19.361   1.778  17.181  1.00  0.00    -0.271 OA
HETATM    2  O3  UNK     1      19.134   0.957  15.061  1.00  0.00    -0.259 OA
HETATM    3  C1  UNK     1      19.174   0.268  19.079  1.00  0.00     0.002 A 
HETATM    4  C2  UNK     1      19.374   1.548  18.571  1.00  0.00     0.123 A 
HETATM    5  C3  UNK     1      18.935  -0.605  16.831  1.00  0.00     0.108 A 
HETATM    6  C4  UNK     1      18.948  -0.830  18.150  1.00  0.00     0.037 A 
HETATM    7  C5  UNK     1      19.596   2.642  19.405  1.00  0.00     0.102 A 
HETATM    8  C6  UNK     1      19.196   0.080  20.462  1.00  0.00     0.014 A 
HETATM    9  C7  UNK     1      19.147   0.748  16.269  1.00  0.00     0.304 A 
HETATM   10  C9  UNK     1      19.616   2.445  20.785  1.00  0.00     0.040 A 
HETATM   11  C10 UNK     1      19.417   1.168  21.312  1.00  0.00     0.004 A 
ENDROOT
BRANCH   5  12
HETATM   12  C8  UNK     1      18.700  -1.775  15.977  1.00  0.00     0.262 C 
HETATM   13  O4  UNK     1      17.629  -2.376  16.047  1.00  0.00    -0.267 OA
HETATM   14  N1  UNK     1      19.787  -2.055  15.160  1.00  0.00    -0.323 N 
HETATM   15  H5  UNK     1      20.614  -1.468  15.239  1.00  0.00     0.169 HD
BRANCH  14  16
HETATM   16  C11 UNK     1      19.911  -3.104  14.216  1.00  0.00     0.036 A 
HETATM   17  C12 UNK     1      19.595  -2.862  12.890  1.00  0.00     0.048 A 
HETATM   18  C14 UNK     1      19.717  -3.895  11.961  1.00  0.00     0.013 A 
HETATM   19 Br1  UNK     1      19.292  -3.588  10.145  1.00  0.00    -0.051 Br
HETATM   20  C16 UNK     1      20.153  -5.154  12.372  1.00  0.00     0.019 A 
HETATM   21  C15 UNK     1      20.467  -5.381  13.713  1.00  0.00     0.004 A 
HETATM   22  C13 UNK     1      20.345  -4.347  14.641  1.00  0.00     0.029 A 
ENDBRANCH  14  16
ENDBRANCH   5  12
BRANCH   7  23
HETATM   23  O2  UNK     1      19.791   3.887  18.896  1.00  0.00    -0.353 OA
HETATM   24  C17 UNK     1      21.128   4.246  18.550  1.00  0.00     0.210 C 
ENDBRANCH   7  23
TORSDOF 3
ENDMDL
