MODEL 1
REMARK VINA RESULT:      -8.7      0.000      0.000
REMARK  2 active torsions:
REMARK  status: ('A' for Active; 'I' for Inactive)
REMARK    1  A    between atoms: C10_13  and  O3_3 
REMARK    2  A    between atoms: C2_5  and  C6_9 
ROOT
HETATM    1  O1  UNK     1      18.923  -0.213  32.898  1.00  0.00    -0.308 OA
HETATM    2  O2  UNK     1      18.992   2.813  30.176  1.00  0.00    -0.287 OA
HETATM    3  C1  UNK     1      18.411   2.100  32.371  1.00  0.00     0.024 A 
HETATM    4  C2  UNK     1      18.437   1.045  33.210  1.00  0.00     0.096 A 
HETATM    5  C3  UNK     1      19.486   0.571  30.675  1.00  0.00     0.049 A 
HETATM    6  C4  UNK     1      19.437  -0.424  31.646  1.00  0.00     0.093 A 
HETATM    7  C5  UNK     1      18.965   1.907  31.000  1.00  0.00     0.193 A 
HETATM    8  C7  UNK     1      20.023   0.299  29.415  1.00  0.00     0.021 A 
HETATM    9  C8  UNK     1      19.922  -1.702  31.363  1.00  0.00     0.074 A 
HETATM   10  C9  UNK     1      17.866   3.467  32.667  1.00  0.00     0.055 C 
HETATM   11  C10 UNK     1      20.458  -1.977  30.106  1.00  0.00     0.068 A 
HETATM   12  C11 UNK     1      20.509  -0.979  29.133  1.00  0.00     0.037 A 
ENDROOT
BRANCH   4  13
HETATM   13  C6  UNK     1      17.931   1.111  34.589  1.00  0.00    -0.002 A 
HETATM   14  C12 UNK     1      16.694   0.551  34.906  1.00  0.00     0.014 A 
HETATM   15  C14 UNK     1      16.214   0.613  36.214  1.00  0.00     0.001 A 
HETATM   16  C16 UNK     1      16.971   1.237  37.206  1.00  0.00     0.000 A 
HETATM   17  C15 UNK     1      18.208   1.798  36.889  1.00  0.00     0.001 A 
HETATM   18  C13 UNK     1      18.689   1.735  35.581  1.00  0.00     0.014 A 
ENDBRANCH   4  13
BRANCH  11  19
HETATM   19  O3  UNK     1      20.934  -3.223  29.828  1.00  0.00    -0.361 OA
HETATM   20  H12 UNK     1      21.449  -3.188  29.005  1.00  0.00     0.217 HD
ENDBRANCH  11  19
TORSDOF 2
ENDMDL
MODEL 2
REMARK VINA RESULT:      -8.4      1.783      3.339
REMARK  2 active torsions:
REMARK  status: ('A' for Active; 'I' for Inactive)
REMARK    1  A    between atoms: C10_13  and  O3_3 
REMARK    2  A    between atoms: C2_5  and  C6_9 
ROOT
HETATM    1  O1  UNK     1      18.646   0.084  32.937  1.00  0.00    -0.308 OA
HETATM    2  O2  UNK     1      20.842  -3.322  33.328  1.00  0.00    -0.287 OA
HETATM    3  C1  UNK     1      19.486  -1.675  34.384  1.00  0.00     0.024 A 
HETATM    4  C2  UNK     1      18.774  -0.552  34.160  1.00  0.00     0.096 A 
HETATM    5  C3  UNK     1      20.037  -1.620  31.921  1.00  0.00     0.049 A 
HETATM    6  C4  UNK     1      19.274  -0.460  31.848  1.00  0.00     0.093 A 
HETATM    7  C5  UNK     1      20.181  -2.296  33.220  1.00  0.00     0.193 A 
HETATM    8  C7  UNK     1      20.654  -2.131  30.777  1.00  0.00     0.021 A 
HETATM    9  C8  UNK     1      19.123   0.203  30.629  1.00  0.00     0.074 A 
HETATM   10  C9  UNK     1      19.669  -2.373  35.700  1.00  0.00     0.055 C 
HETATM   11  C10 UNK     1      19.738  -0.303  29.485  1.00  0.00     0.068 A 
HETATM   12  C11 UNK     1      20.502  -1.468  29.557  1.00  0.00     0.037 A 
ENDROOT
BRANCH   4  13
HETATM   13  C6  UNK     1      18.037   0.148  35.223  1.00  0.00    -0.002 A 
HETATM   14  C12 UNK     1      18.691   1.079  36.029  1.00  0.00     0.014 A 
HETATM   15  C14 UNK     1      17.993   1.742  37.037  1.00  0.00     0.001 A 
HETATM   16  C16 UNK     1      16.638   1.476  37.239  1.00  0.00     0.000 A 
HETATM   17  C15 UNK     1      15.984   0.545  36.432  1.00  0.00     0.001 A 
HETATM   18  C13 UNK     1      16.682  -0.118  35.424  1.00  0.00     0.014 A 
ENDBRANCH   4  13
BRANCH  11  19
HETATM   19  O3  UNK     1      19.590   0.340  28.293  1.00  0.00    -0.361 OA
HETATM   20  H12 UNK     1      20.424   0.284  27.799  1.00  0.00     0.217 HD
ENDBRANCH  11  19
TORSDOF 2
ENDMDL
MODEL 3
REMARK VINA RESULT:      -7.7     12.756     16.668
REMARK  2 active torsions:
REMARK  status: ('A' for Active; 'I' for Inactive)
REMARK    1  A    between atoms: C10_13  and  O3_3 
REMARK    2  A    between atoms: C2_5  and  C6_9 
ROOT
HETATM    1  O1  UNK     1      18.971  -1.347  17.732  1.00  0.00    -0.308 OA
HETATM    2  O2  UNK     1      19.276   1.880  15.270  1.00  0.00    -0.287 OA
HETATM    3  C1  UNK     1      19.165  -0.489  15.470  1.00  0.00     0.024 A 
HETATM    4  C2  UNK     1      19.053  -1.497  16.359  1.00  0.00     0.096 A 
HETATM    5  C3  UNK     1      19.093   1.058  17.463  1.00  0.00     0.049 A 
HETATM    6  C4  UNK     1      18.990  -0.082  18.255  1.00  0.00     0.093 A 
HETATM    7  C5  UNK     1      19.187   0.903  16.004  1.00  0.00     0.193 A 
HETATM    8  C7  UNK     1      19.107   2.324  18.051  1.00  0.00     0.021 A 
HETATM    9  C8  UNK     1      18.903   0.036  19.643  1.00  0.00     0.074 A 
HETATM   10  C9  UNK     1      19.284  -0.618  13.980  1.00  0.00     0.055 C 
HETATM   11  C10 UNK     1      18.917   1.300  20.233  1.00  0.00     0.068 A 
HETATM   12  C11 UNK     1      19.019   2.442  19.440  1.00  0.00     0.037 A 
ENDROOT
BRANCH   4  13
HETATM   13  C6  UNK     1      19.009  -2.911  15.958  1.00  0.00    -0.002 A 
HETATM   14  C12 UNK     1      20.188  -3.654  15.891  1.00  0.00     0.014 A 
HETATM   15  C14 UNK     1      20.148  -4.995  15.511  1.00  0.00     0.001 A 
HETATM   16  C16 UNK     1      18.928  -5.594  15.196  1.00  0.00     0.000 A 
HETATM   17  C15 UNK     1      17.749  -4.851  15.262  1.00  0.00     0.001 A 
HETATM   18  C13 UNK     1      17.789  -3.511  15.643  1.00  0.00     0.014 A 
ENDBRANCH   4  13
BRANCH  11  19
HETATM   19  O3  UNK     1      18.829   1.417  21.587  1.00  0.00    -0.361 OA
HETATM   20  H12 UNK     1      18.906   0.535  21.987  1.00  0.00     0.217 HD
ENDBRANCH  11  19
TORSDOF 2
ENDMDL
MODEL 4
REMARK VINA RESULT:      -7.7     24.060     26.176
REMARK  2 active torsions:
REMARK  status: ('A' for Active; 'I' for Inactive)
REMARK    1  A    between atoms: C10_13  and  O3_3 
REMARK    2  A    between atoms: C2_5  and  C6_9 
ROOT
HETATM    1  O1  UNK     1      12.985   7.954   8.380  1.00  0.00    -0.308 OA
HETATM    2  O2  UNK     1      15.211   4.728   9.479  1.00  0.00    -0.287 OA
HETATM    3  C1  UNK     1      13.175   5.540   8.550  1.00  0.00     0.024 A 
HETATM    4  C2  UNK     1      12.513   6.664   8.208  1.00  0.00     0.096 A 
HETATM    5  C3  UNK     1      15.032   7.066   9.323  1.00  0.00     0.049 A 
HETATM    6  C4  UNK     1      14.227   8.129   8.929  1.00  0.00     0.093 A 
HETATM    7  C5  UNK     1      14.533   5.693   9.148  1.00  0.00     0.193 A 
HETATM    8  C7  UNK     1      16.292   7.304   9.875  1.00  0.00     0.021 A 
HETATM    9  C8  UNK     1      14.675   9.441   9.086  1.00  0.00     0.074 A 
HETATM   10  C9  UNK     1      12.683   4.130   8.403  1.00  0.00     0.055 C 
HETATM   11  C10 UNK     1      15.932   9.683   9.638  1.00  0.00     0.068 A 
HETATM   12  C11 UNK     1      16.740   8.617  10.032  1.00  0.00     0.037 A 
ENDROOT
BRANCH   4  13
HETATM   13  C6  UNK     1      11.174   6.645   7.601  1.00  0.00    -0.002 A 
HETATM   14  C12 UNK     1      10.042   6.782   8.405  1.00  0.00     0.014 A 
HETATM   15  C14 UNK     1       8.772   6.764   7.830  1.00  0.00     0.001 A 
HETATM   16  C16 UNK     1       8.632   6.610   6.451  1.00  0.00     0.000 A 
HETATM   17  C15 UNK     1       9.764   6.473   5.647  1.00  0.00     0.001 A 
HETATM   18  C13 UNK     1      11.035   6.491   6.221  1.00  0.00     0.014 A 
ENDBRANCH   4  13
BRANCH  11  19
HETATM   19  O3  UNK     1      16.373  10.963   9.790  1.00  0.00    -0.361 OA
HETATM   20  H12 UNK     1      17.103  10.971  10.431  1.00  0.00     0.217 HD
ENDBRANCH  11  19
TORSDOF 2
ENDMDL
MODEL 5
REMARK VINA RESULT:      -7.7      5.114      8.796
REMARK  2 active torsions:
REMARK  status: ('A' for Active; 'I' for Inactive)
REMARK    1  A    between atoms: C10_13  and  O3_3 
REMARK    2  A    between atoms: C2_5  and  C6_9 
ROOT
HETATM    1  O1  UNK     1      16.723   6.836  32.177  1.00  0.00    -0.308 OA
HETATM    2  O2  UNK     1      19.412   9.093  34.237  1.00  0.00    -0.287 OA
HETATM    3  C1  UNK     1      18.990   7.102  33.003  1.00  0.00     0.024 A 
HETATM    4  C2  UNK     1      18.036   6.426  32.331  1.00  0.00     0.096 A 
HETATM    5  C3  UNK     1      17.215   8.841  33.445  1.00  0.00     0.049 A 
HETATM    6  C4  UNK     1      16.340   8.029  32.731  1.00  0.00     0.093 A 
HETATM    7  C5  UNK     1      18.609   8.406  33.618  1.00  0.00     0.193 A 
HETATM    8  C7  UNK     1      16.769  10.049  33.987  1.00  0.00     0.021 A 
HETATM    9  C8  UNK     1      15.012   8.416  32.554  1.00  0.00     0.074 A 
HETATM   10  C9  UNK     1      20.412   6.673  33.214  1.00  0.00     0.055 C 
HETATM   11  C10 UNK     1      14.563   9.621  33.095  1.00  0.00     0.068 A 
HETATM   12  C11 UNK     1      15.440  10.436  33.810  1.00  0.00     0.037 A 
ENDROOT
BRANCH   4  13
HETATM   13  C6  UNK     1      18.289   5.136  31.673  1.00  0.00    -0.002 A 
HETATM   14  C12 UNK     1      18.079   3.945  32.369  1.00  0.00     0.014 A 
HETATM   15  C14 UNK     1      18.319   2.721  31.745  1.00  0.00     0.001 A 
HETATM   16  C16 UNK     1      18.769   2.687  30.425  1.00  0.00     0.000 A 
HETATM   17  C15 UNK     1      18.979   3.877  29.730  1.00  0.00     0.001 A 
HETATM   18  C13 UNK     1      18.739   5.101  30.353  1.00  0.00     0.014 A 
ENDBRANCH   4  13
BRANCH  11  19
HETATM   19  O3  UNK     1      13.267  10.002  32.921  1.00  0.00    -0.361 OA
HETATM   20  H12 UNK     1      13.249  10.905  32.562  1.00  0.00     0.217 HD
ENDBRANCH  11  19
TORSDOF 2
ENDMDL
MODEL 6
REMARK VINA RESULT:      -7.7      2.427      4.688
REMARK  2 active torsions:
REMARK  status: ('A' for Active; 'I' for Inactive)
REMARK    1  A    between atoms: C10_13  and  O3_3 
REMARK    2  A    between atoms: C2_5  and  C6_9 
ROOT
HETATM    1  O1  UNK     1      18.117   3.088  33.265  1.00  0.00    -0.308 OA
HETATM    2  O2  UNK     1      19.293   1.694  29.626  1.00  0.00    -0.287 OA
HETATM    3  C1  UNK     1      18.708   3.575  30.961  1.00  0.00     0.024 A 
HETATM    4  C2  UNK     1      18.327   3.947  32.201  1.00  0.00     0.096 A 
HETATM    5  C3  UNK     1      18.718   1.213  31.852  1.00  0.00     0.049 A 
HETATM    6  C4  UNK     1      18.316   1.747  33.073  1.00  0.00     0.093 A 
HETATM    7  C5  UNK     1      18.937   2.121  30.717  1.00  0.00     0.193 A 
HETATM    8  C7  UNK     1      18.908  -0.164  31.715  1.00  0.00     0.021 A 
HETATM    9  C8  UNK     1      18.099   0.907  34.166  1.00  0.00     0.074 A 
HETATM   10  C9  UNK     1      18.917   4.475  29.779  1.00  0.00     0.055 C 
HETATM   11  C10 UNK     1      18.287  -0.468  34.032  1.00  0.00     0.068 A 
HETATM   12  C11 UNK     1      18.691  -1.003  32.809  1.00  0.00     0.037 A 
ENDROOT
BRANCH   4  13
HETATM   13  C6  UNK     1      18.081   5.349  32.569  1.00  0.00    -0.002 A 
HETATM   14  C12 UNK     1      19.107   6.115  33.122  1.00  0.00     0.014 A 
HETATM   15  C14 UNK     1      18.875   7.445  33.472  1.00  0.00     0.001 A 
HETATM   16  C16 UNK     1      17.615   8.009  33.270  1.00  0.00     0.000 A 
HETATM   17  C15 UNK     1      16.589   7.243  32.717  1.00  0.00     0.001 A 
HETATM   18  C13 UNK     1      16.821   5.914  32.367  1.00  0.00     0.014 A 
ENDBRANCH   4  13
BRANCH  11  19
HETATM   19  O3  UNK     1      18.079  -1.289  35.098  1.00  0.00    -0.361 OA
HETATM   20  H12 UNK     1      18.189  -0.778  35.917  1.00  0.00     0.217 HD
ENDBRANCH  11  19
TORSDOF 2
ENDMDL
MODEL 7
REMARK VINA RESULT:      -7.7     24.059     26.176
REMARK  2 active torsions:
REMARK  status: ('A' for Active; 'I' for Inactive)
REMARK    1  A    between atoms: C10_13  and  O3_3 
REMARK    2  A    between atoms: C2_5  and  C6_9 
ROOT
HETATM    1  O1  UNK     1      12.982   7.954   8.381  1.00  0.00    -0.308 OA
HETATM    2  O2  UNK     1      15.210   4.729   9.480  1.00  0.00    -0.287 OA
HETATM    3  C1  UNK     1      13.174   5.540   8.551  1.00  0.00     0.024 A 
HETATM    4  C2  UNK     1      12.511   6.664   8.209  1.00  0.00     0.096 A 
HETATM    5  C3  UNK     1      15.030   7.066   9.324  1.00  0.00     0.049 A 
HETATM    6  C4  UNK     1      14.224   8.130   8.930  1.00  0.00     0.093 A 
HETATM    7  C5  UNK     1      14.532   5.694   9.149  1.00  0.00     0.193 A 
HETATM    8  C7  UNK     1      16.290   7.305   9.876  1.00  0.00     0.021 A 
HETATM    9  C8  UNK     1      14.672   9.442   9.087  1.00  0.00     0.074 A 
HETATM   10  C9  UNK     1      12.682   4.130   8.405  1.00  0.00     0.055 C 
HETATM   11  C10 UNK     1      15.929   9.684   9.639  1.00  0.00     0.068 A 
HETATM   12  C11 UNK     1      16.737   8.618  10.033  1.00  0.00     0.037 A 
ENDROOT
BRANCH   4  13
HETATM   13  C6  UNK     1      11.172   6.644   7.602  1.00  0.00    -0.002 A 
HETATM   14  C12 UNK     1      11.034   6.491   6.222  1.00  0.00     0.014 A 
HETATM   15  C14 UNK     1       9.765   6.472   5.645  1.00  0.00     0.001 A 
HETATM   16  C16 UNK     1       8.632   6.606   6.448  1.00  0.00     0.000 A 
HETATM   17  C15 UNK     1       8.770   6.759   7.828  1.00  0.00     0.001 A 
HETATM   18  C13 UNK     1      10.039   6.778   8.405  1.00  0.00     0.014 A 
ENDBRANCH   4  13
BRANCH  11  19
HETATM   19  O3  UNK     1      16.369  10.964   9.791  1.00  0.00    -0.361 OA
HETATM   20  H12 UNK     1      17.338  10.959   9.863  1.00  0.00     0.217 HD
ENDBRANCH  11  19
TORSDOF 2
ENDMDL
MODEL 8
REMARK VINA RESULT:      -7.6      2.266      6.618
REMARK  2 active torsions:
REMARK  status: ('A' for Active; 'I' for Inactive)
REMARK    1  A    between atoms: C10_13  and  O3_3 
REMARK    2  A    between atoms: C2_5  and  C6_9 
ROOT
HETATM    1  O1  UNK     1      18.350  -0.428  33.252  1.00  0.00    -0.308 OA
HETATM    2  O2  UNK     1      20.436  -2.951  35.670  1.00  0.00    -0.287 OA
HETATM    3  C1  UNK     1      20.135  -2.056  33.485  1.00  0.00     0.024 A 
HETATM    4  C2  UNK     1      19.396  -1.190  32.762  1.00  0.00     0.096 A 
HETATM    5  C3  UNK     1      18.703  -1.380  35.451  1.00  0.00     0.049 A 
HETATM    6  C4  UNK     1      18.026  -0.535  34.578  1.00  0.00     0.093 A 
HETATM    7  C5  UNK     1      19.812  -2.196  34.935  1.00  0.00     0.193 A 
HETATM    8  C7  UNK     1      18.331  -1.447  36.796  1.00  0.00     0.021 A 
HETATM    9  C8  UNK     1      16.969   0.249  35.041  1.00  0.00     0.074 A 
HETATM   10  C9  UNK     1      21.255  -2.918  32.981  1.00  0.00     0.055 C 
HETATM   11  C10 UNK     1      16.594   0.184  36.383  1.00  0.00     0.068 A 
HETATM   12  C11 UNK     1      17.273  -0.662  37.259  1.00  0.00     0.037 A 
ENDROOT
BRANCH   4  13
HETATM   13  C6  UNK     1      19.623  -0.956  31.328  1.00  0.00    -0.002 A 
HETATM   14  C12 UNK     1      20.019  -2.009  30.503  1.00  0.00     0.014 A 
HETATM   15  C14 UNK     1      20.235  -1.787  29.144  1.00  0.00     0.001 A 
HETATM   16  C16 UNK     1      20.054  -0.512  28.607  1.00  0.00     0.000 A 
HETATM   17  C15 UNK     1      19.658   0.541  29.432  1.00  0.00     0.001 A 
HETATM   18  C13 UNK     1      19.442   0.319  30.792  1.00  0.00     0.014 A 
ENDBRANCH   4  13
BRANCH  11  19
HETATM   19  O3  UNK     1      15.564   0.950  36.838  1.00  0.00    -0.361 OA
HETATM   20  H12 UNK     1      15.589   0.968  37.809  1.00  0.00     0.217 HD
ENDBRANCH  11  19
TORSDOF 2
ENDMDL
MODEL 9
REMARK VINA RESULT:      -7.6      2.665      5.332
REMARK  2 active torsions:
REMARK  status: ('A' for Active; 'I' for Inactive)
REMARK    1  A    between atoms: C10_13  and  O3_3 
REMARK    2  A    between atoms: C2_5  and  C6_9 
ROOT
HETATM    1  O1  UNK     1      18.213   3.338  34.573  1.00  0.00    -0.308 OA
HETATM    2  O2  UNK     1      18.550   0.794  31.414  1.00  0.00    -0.287 OA
HETATM    3  C1  UNK     1      18.440   3.046  32.174  1.00  0.00     0.024 A 
HETATM    4  C2  UNK     1      18.333   3.813  33.279  1.00  0.00     0.096 A 
HETATM    5  C3  UNK     1      18.325   1.067  33.737  1.00  0.00     0.049 A 
HETATM    6  C4  UNK     1      18.213   1.984  34.777  1.00  0.00     0.093 A 
HETATM    7  C5  UNK     1      18.447   1.566  32.359  1.00  0.00     0.193 A 
HETATM    8  C7  UNK     1      18.322  -0.304  34.004  1.00  0.00     0.021 A 
HETATM    9  C8  UNK     1      18.094   1.537  36.093  1.00  0.00     0.074 A 
HETATM   10  C9  UNK     1      18.543   3.527  30.756  1.00  0.00     0.055 C 
HETATM   11  C10 UNK     1      18.090   0.169  36.364  1.00  0.00     0.068 A 
HETATM   12  C11 UNK     1      18.203  -0.750  35.321  1.00  0.00     0.037 A 
ENDROOT
BRANCH   4  13
HETATM   13  C6  UNK     1      18.326   5.283  33.229  1.00  0.00    -0.002 A 
HETATM   14  C12 UNK     1      17.172   5.961  32.837  1.00  0.00     0.014 A 
HETATM   15  C14 UNK     1      17.164   7.355  32.790  1.00  0.00     0.001 A 
HETATM   16  C16 UNK     1      18.310   8.071  33.136  1.00  0.00     0.000 A 
HETATM   17  C15 UNK     1      19.464   7.392  33.528  1.00  0.00     0.001 A 
HETATM   18  C13 UNK     1      19.472   5.999  33.575  1.00  0.00     0.014 A 
ENDBRANCH   4  13
BRANCH  11  19
HETATM   19  O3  UNK     1      17.976  -0.269  37.648  1.00  0.00    -0.361 OA
HETATM   20  H12 UNK     1      18.540   0.279  38.219  1.00  0.00     0.217 HD
ENDBRANCH  11  19
TORSDOF 2
ENDMDL
MODEL 10
REMARK VINA RESULT:      -7.5     24.028     26.002
REMARK  2 active torsions:
REMARK  status: ('A' for Active; 'I' for Inactive)
REMARK    1  A    between atoms: C10_13  and  O3_3 
REMARK    2  A    between atoms: C2_5  and  C6_9 
ROOT
HETATM    1  O1  UNK     1      10.577   5.600   9.569  1.00  0.00    -0.308 OA
HETATM    2  O2  UNK     1      11.159   6.912   5.760  1.00  0.00    -0.287 OA
HETATM    3  C1  UNK     1       9.607   6.368   7.481  1.00  0.00     0.024 A 
HETATM    4  C2  UNK     1       9.510   5.934   8.754  1.00  0.00     0.096 A 
HETATM    5  C3  UNK     1      12.106   6.165   7.777  1.00  0.00     0.049 A 
HETATM    6  C4  UNK     1      11.846   5.722   9.070  1.00  0.00     0.093 A 
HETATM    7  C5  UNK     1      10.975   6.516   6.904  1.00  0.00     0.193 A 
HETATM    8  C7  UNK     1      13.422   6.272   7.321  1.00  0.00     0.021 A 
HETATM    9  C8  UNK     1      12.900   5.381   9.917  1.00  0.00     0.074 A 
HETATM   10  C9  UNK     1       8.472   6.711   6.561  1.00  0.00     0.055 C 
HETATM   11  C10 UNK     1      14.215   5.485   9.465  1.00  0.00     0.068 A 
HETATM   12  C11 UNK     1      14.476   5.930   8.169  1.00  0.00     0.037 A 
ENDROOT
BRANCH   4  13
HETATM   13  C6  UNK     1       8.220   5.758   9.438  1.00  0.00    -0.002 A 
HETATM   14  C12 UNK     1       7.586   6.854  10.023  1.00  0.00     0.014 A 
HETATM   15  C14 UNK     1       6.362   6.688  10.672  1.00  0.00     0.001 A 
HETATM   16  C16 UNK     1       5.772   5.425  10.735  1.00  0.00     0.000 A 
HETATM   17  C15 UNK     1       6.406   4.330  10.150  1.00  0.00     0.001 A 
HETATM   18  C13 UNK     1       7.629   4.496   9.501  1.00  0.00     0.014 A 
ENDBRANCH   4  13
BRANCH  11  19
HETATM   19  O3  UNK     1      15.246   5.155  10.291  1.00  0.00    -0.361 OA
HETATM   20  H12 UNK     1      16.050   5.031   9.759  1.00  0.00     0.217 HD
ENDBRANCH  11  19
TORSDOF 2
ENDMDL
