MODEL 1
REMARK VINA RESULT:      -9.7      0.000      0.000
REMARK  3 active torsions:
REMARK  status: ('A' for Active; 'I' for Inactive)
REMARK    1  A    between atoms: C5_12  and  O2_4 
REMARK    2  A    between atoms: C11_18  and  N1_7 
REMARK       I    between atoms: C8_15  and  N1_7 
REMARK    3  A    between atoms: C3_10  and  C8_15 
ROOT
HETATM    1  O1  UNK     1      19.509  -1.031  34.740  1.00  0.00    -0.271 OA
HETATM    2  O3  UNK     1      20.585  -2.958  34.146  1.00  0.00    -0.259 OA
HETATM    3  C1  UNK     1      18.482  -0.858  36.936  1.00  0.00     0.002 A 
HETATM    4  C2  UNK     1      18.783  -0.298  35.698  1.00  0.00     0.123 A 
HETATM    5  C3  UNK     1      19.618  -2.903  36.309  1.00  0.00     0.108 A 
HETATM    6  C4  UNK     1      18.928  -2.211  37.224  1.00  0.00     0.037 A 
HETATM    7  C5  UNK     1      18.384   0.993  35.360  1.00  0.00     0.102 A 
HETATM    8  C6  UNK     1      17.759  -0.099  37.861  1.00  0.00     0.014 A 
HETATM    9  C7  UNK     1      19.952  -2.328  34.987  1.00  0.00     0.304 A 
HETATM   10  C9  UNK     1      17.664   1.743  36.288  1.00  0.00     0.040 A 
HETATM   11  C10 UNK     1      17.352   1.198  37.535  1.00  0.00     0.004 A 
ENDROOT
BRANCH   5  12
HETATM   12  C8  UNK     1      20.026  -4.260  36.693  1.00  0.00     0.262 C 
HETATM   13  O4  UNK     1      21.209  -4.496  36.933  1.00  0.00    -0.267 OA
HETATM   14  N1  UNK     1      18.953  -5.139  36.731  1.00  0.00    -0.323 N 
HETATM   15  H5  UNK     1      18.031  -4.788  36.481  1.00  0.00     0.169 HD
BRANCH  14  16
HETATM   16  C11 UNK     1      18.975  -6.517  37.058  1.00  0.00     0.038 A 
HETATM   17  C12 UNK     1      19.354  -6.903  38.332  1.00  0.00     0.075 A 
HETATM   18  C14 UNK     1      19.376  -8.261  38.655  1.00  0.00     0.157 A 
HETATM   19  F1  UNK     1      19.742  -8.652  39.882  1.00  0.00    -0.203 F 
HETATM   20  C16 UNK     1      19.019  -9.210  37.697  1.00  0.00     0.154 A 
HETATM   21  C15 UNK     1      18.640  -8.803  36.418  1.00  0.00     0.048 A 
HETATM   22  F2  UNK     1      19.042 -10.514  38.004  1.00  0.00    -0.203 F 
HETATM   23  C13 UNK     1      18.618  -7.446  36.096  1.00  0.00     0.032 A 
ENDBRANCH  14  16
ENDBRANCH   5  12
BRANCH   7  24
HETATM   24  O2  UNK     1      18.684   1.528  34.147  1.00  0.00    -0.353 OA
HETATM   25  C17 UNK     1      18.231   2.857  33.891  1.00  0.00     0.210 C 
ENDBRANCH   7  24
TORSDOF 3
ENDMDL
MODEL 2
REMARK VINA RESULT:      -9.4      1.448      2.007
REMARK  3 active torsions:
REMARK  status: ('A' for Active; 'I' for Inactive)
REMARK    1  A    between atoms: C5_12  and  O2_4 
REMARK    2  A    between atoms: C11_18  and  N1_7 
REMARK       I    between atoms: C8_15  and  N1_7 
REMARK    3  A    between atoms: C3_10  and  C8_15 
ROOT
HETATM    1  O1  UNK     1      19.549  -1.076  34.665  1.00  0.00    -0.271 OA
HETATM    2  O3  UNK     1      20.670  -2.943  33.971  1.00  0.00    -0.259 OA
HETATM    3  C1  UNK     1      18.502  -1.052  36.859  1.00  0.00     0.002 A 
HETATM    4  C2  UNK     1      18.799  -0.415  35.658  1.00  0.00     0.123 A 
HETATM    5  C3  UNK     1      19.687  -3.033  36.126  1.00  0.00     0.108 A 
HETATM    6  C4  UNK     1      18.975  -2.410  37.072  1.00  0.00     0.037 A 
HETATM    7  C5  UNK     1      18.375   0.885  35.391  1.00  0.00     0.102 A 
HETATM    8  C6  UNK     1      17.756  -0.363  37.819  1.00  0.00     0.014 A 
HETATM    9  C7  UNK     1      20.018  -2.375  34.842  1.00  0.00     0.304 A 
HETATM   10  C9  UNK     1      17.632   1.564  36.354  1.00  0.00     0.040 A 
HETATM   11  C10 UNK     1      17.323   0.942  37.565  1.00  0.00     0.004 A 
ENDROOT
BRANCH   5  12
HETATM   12  C8  UNK     1      20.121  -4.401  36.434  1.00  0.00     0.262 C 
HETATM   13  O4  UNK     1      20.157  -5.245  35.540  1.00  0.00    -0.267 OA
HETATM   14  N1  UNK     1      20.448  -4.557  37.773  1.00  0.00    -0.323 N 
HETATM   15  H5  UNK     1      20.342  -3.758  38.394  1.00  0.00     0.169 HD
BRANCH  14  16
HETATM   16  C11 UNK     1      20.901  -5.733  38.420  1.00  0.00     0.038 A 
HETATM   17  C12 UNK     1      19.978  -6.682  38.825  1.00  0.00     0.075 A 
HETATM   18  C14 UNK     1      20.425  -7.840  39.462  1.00  0.00     0.157 A 
HETATM   19  F1  UNK     1      19.545  -8.767  39.860  1.00  0.00    -0.203 F 
HETATM   20  C16 UNK     1      21.788  -8.031  39.685  1.00  0.00     0.154 A 
HETATM   21  C15 UNK     1      22.705  -7.064  39.271  1.00  0.00     0.048 A 
HETATM   22  F2  UNK     1      22.219  -9.141  40.298  1.00  0.00    -0.203 F 
HETATM   23  C13 UNK     1      22.258  -5.906  38.634  1.00  0.00     0.032 A 
ENDBRANCH  14  16
ENDBRANCH   5  12
BRANCH   7  24
HETATM   24  O2  UNK     1      18.673   1.495  34.213  1.00  0.00    -0.353 OA
HETATM   25  C17 UNK     1      18.297   2.865  34.075  1.00  0.00     0.210 C 
ENDBRANCH   7  24
TORSDOF 3
ENDMDL
MODEL 3
REMARK VINA RESULT:      -9.3      7.638     11.804
REMARK  3 active torsions:
REMARK  status: ('A' for Active; 'I' for Inactive)
REMARK    1  A    between atoms: C5_12  and  O2_4 
REMARK    2  A    between atoms: C11_18  and  N1_7 
REMARK       I    between atoms: C8_15  and  N1_7 
REMARK    3  A    between atoms: C3_10  and  C8_15 
ROOT
HETATM    1  O1  UNK     1      18.726   0.825  32.622  1.00  0.00    -0.271 OA
HETATM    2  O3  UNK     1      17.930   2.739  33.586  1.00  0.00    -0.259 OA
HETATM    3  C1  UNK     1      19.464   0.867  30.306  1.00  0.00     0.002 A 
HETATM    4  C2  UNK     1      19.257   0.171  31.493  1.00  0.00     0.123 A 
HETATM    5  C3  UNK     1      18.618   2.895  31.324  1.00  0.00     0.108 A 
HETATM    6  C4  UNK     1      19.123   2.279  30.249  1.00  0.00     0.037 A 
HETATM    7  C5  UNK     1      19.563  -1.183  31.614  1.00  0.00     0.102 A 
HETATM    8  C6  UNK     1      19.992   0.182  29.208  1.00  0.00     0.014 A 
HETATM    9  C7  UNK     1      18.392   2.177  32.598  1.00  0.00     0.304 A 
HETATM   10  C9  UNK     1      20.090  -1.857  30.515  1.00  0.00     0.040 A 
HETATM   11  C10 UNK     1      20.304  -1.177  29.315  1.00  0.00     0.004 A 
ENDROOT
BRANCH   5  12
HETATM   12  C8  UNK     1      18.306   4.321  31.168  1.00  0.00     0.262 C 
HETATM   13  O4  UNK     1      18.699   4.925  30.171  1.00  0.00    -0.267 OA
HETATM   14  N1  UNK     1      17.569   4.816  32.234  1.00  0.00    -0.323 N 
HETATM   15  H5  UNK     1      17.340   4.184  32.998  1.00  0.00     0.169 HD
BRANCH  14  16
HETATM   16  C11 UNK     1      17.095   6.138  32.418  1.00  0.00     0.038 A 
HETATM   17  C12 UNK     1      17.971   7.114  32.862  1.00  0.00     0.075 A 
HETATM   18  C14 UNK     1      17.504   8.417  33.043  1.00  0.00     0.157 A 
HETATM   19  F1  UNK     1      18.337   9.372  33.473  1.00  0.00    -0.203 F 
HETATM   20  C16 UNK     1      16.169   8.722  32.777  1.00  0.00     0.154 A 
HETATM   21  C15 UNK     1      15.301   7.726  32.330  1.00  0.00     0.048 A 
HETATM   22  F2  UNK     1      15.720   9.972  32.952  1.00  0.00    -0.203 F 
HETATM   23  C13 UNK     1      15.767   6.424  32.149  1.00  0.00     0.032 A 
ENDBRANCH  14  16
ENDBRANCH   5  12
BRANCH   7  24
HETATM   24  O2  UNK     1      19.356  -1.850  32.781  1.00  0.00    -0.353 OA
HETATM   25  C17 UNK     1      20.482  -2.504  33.366  1.00  0.00     0.210 C 
ENDBRANCH   7  24
TORSDOF 3
ENDMDL
MODEL 4
REMARK VINA RESULT:      -9.3      8.762     10.403
REMARK  3 active torsions:
REMARK  status: ('A' for Active; 'I' for Inactive)
REMARK    1  A    between atoms: C5_12  and  O2_4 
REMARK    2  A    between atoms: C11_18  and  N1_7 
REMARK       I    between atoms: C8_15  and  N1_7 
REMARK    3  A    between atoms: C3_10  and  C8_15 
ROOT
HETATM    1  O1  UNK     1      19.052   7.603  32.855  1.00  0.00    -0.271 OA
HETATM    2  O3  UNK     1      20.325   5.913  31.990  1.00  0.00    -0.259 OA
HETATM    3  C1  UNK     1      16.732   7.178  33.441  1.00  0.00     0.002 A 
HETATM    4  C2  UNK     1      17.815   8.048  33.358  1.00  0.00     0.123 A 
HETATM    5  C3  UNK     1      18.077   5.385  32.523  1.00  0.00     0.108 A 
HETATM    6  C4  UNK     1      16.899   5.802  33.000  1.00  0.00     0.037 A 
HETATM    7  C5  UNK     1      17.721   9.378  33.763  1.00  0.00     0.102 A 
HETATM    8  C6  UNK     1      15.520   7.657  33.946  1.00  0.00     0.014 A 
HETATM    9  C7  UNK     1      19.243   6.291  32.426  1.00  0.00     0.304 A 
HETATM   10  C9  UNK     1      16.509   9.847  34.266  1.00  0.00     0.040 A 
HETATM   11  C10 UNK     1      15.412   8.989  34.357  1.00  0.00     0.004 A 
ENDROOT
BRANCH   5  12
HETATM   12  C8  UNK     1      18.147   3.980  32.103  1.00  0.00     0.262 C 
HETATM   13  O4  UNK     1      17.891   3.089  32.912  1.00  0.00    -0.267 OA
HETATM   14  N1  UNK     1      18.517   3.848  30.773  1.00  0.00    -0.323 N 
HETATM   15  H5  UNK     1      18.716   4.691  30.240  1.00  0.00     0.169 HD
BRANCH  14  16
HETATM   16  C11 UNK     1      18.683   2.649  30.037  1.00  0.00     0.038 A 
HETATM   17  C12 UNK     1      19.650   1.741  30.433  1.00  0.00     0.075 A 
HETATM   18  C14 UNK     1      19.814   0.560  29.709  1.00  0.00     0.157 A 
HETATM   19  F1  UNK     1      20.746  -0.328  30.077  1.00  0.00    -0.203 F 
HETATM   20  C16 UNK     1      19.008   0.305  28.599  1.00  0.00     0.154 A 
HETATM   21  C15 UNK     1      18.038   1.232  28.214  1.00  0.00     0.048 A 
HETATM   22  F2  UNK     1      19.165  -0.827  27.901  1.00  0.00    -0.203 F 
HETATM   23  C13 UNK     1      17.874   2.412  28.938  1.00  0.00     0.032 A 
ENDBRANCH  14  16
ENDBRANCH   5  12
BRANCH   7  24
HETATM   24  O2  UNK     1      18.787  10.217  33.676  1.00  0.00    -0.353 OA
HETATM   25  C17 UNK     1      18.547  11.602  33.927  1.00  0.00     0.210 C 
ENDBRANCH   7  24
TORSDOF 3
ENDMDL
MODEL 5
REMARK VINA RESULT:      -9.3      8.763     10.545
REMARK  3 active torsions:
REMARK  status: ('A' for Active; 'I' for Inactive)
REMARK    1  A    between atoms: C5_12  and  O2_4 
REMARK    2  A    between atoms: C11_18  and  N1_7 
REMARK       I    between atoms: C8_15  and  N1_7 
REMARK    3  A    between atoms: C3_10  and  C8_15 
ROOT
HETATM    1  O1  UNK     1      16.911   7.622  32.821  1.00  0.00    -0.271 OA
HETATM    2  O3  UNK     1      15.804   5.827  31.939  1.00  0.00    -0.259 OA
HETATM    3  C1  UNK     1      19.242   7.393  33.471  1.00  0.00     0.002 A 
HETATM    4  C2  UNK     1      18.095   8.171  33.351  1.00  0.00     0.123 A 
HETATM    5  C3  UNK     1      18.072   5.488  32.539  1.00  0.00     0.108 A 
HETATM    6  C4  UNK     1      19.199   6.004  33.042  1.00  0.00     0.037 A 
HETATM    7  C5  UNK     1      18.069   9.507  33.744  1.00  0.00     0.102 A 
HETATM    8  C6  UNK     1      20.397   7.974  34.001  1.00  0.00     0.014 A 
HETATM    9  C7  UNK     1      16.840   6.296  32.400  1.00  0.00     0.304 A 
HETATM   10  C9  UNK     1      19.225  10.079  34.271  1.00  0.00     0.040 A 
HETATM   11  C10 UNK     1      20.386   9.314  34.399  1.00  0.00     0.004 A 
ENDROOT
BRANCH   5  12
HETATM   12  C8  UNK     1      18.127   4.078  32.133  1.00  0.00     0.262 C 
HETATM   13  O4  UNK     1      17.839   3.199  32.944  1.00  0.00    -0.267 OA
HETATM   14  N1  UNK     1      18.524   3.928  30.812  1.00  0.00    -0.323 N 
HETATM   15  H5  UNK     1      18.749   4.764  30.277  1.00  0.00     0.169 HD
BRANCH  14  16
HETATM   16  C11 UNK     1      18.687   2.720  30.091  1.00  0.00     0.038 A 
HETATM   17  C12 UNK     1      19.637   1.805  30.509  1.00  0.00     0.075 A 
HETATM   18  C14 UNK     1      19.797   0.615  29.798  1.00  0.00     0.157 A 
HETATM   19  F1  UNK     1      20.713  -0.280  30.188  1.00  0.00    -0.203 F 
HETATM   20  C16 UNK     1      19.004   0.360  28.679  1.00  0.00     0.154 A 
HETATM   21  C15 UNK     1      18.051   1.293  28.272  1.00  0.00     0.048 A 
HETATM   22  F2  UNK     1      19.158  -0.781  27.994  1.00  0.00    -0.203 F 
HETATM   23  C13 UNK     1      17.891   2.483  28.983  1.00  0.00     0.032 A 
ENDBRANCH  14  16
ENDBRANCH   5  12
BRANCH   7  24
HETATM   24  O2  UNK     1      16.941  10.256  33.620  1.00  0.00    -0.353 OA
HETATM   25  C17 UNK     1      16.958  11.560  34.202  1.00  0.00     0.210 C 
ENDBRANCH   7  24
TORSDOF 3
ENDMDL
MODEL 6
REMARK VINA RESULT:      -9.2      2.892      4.352
REMARK  3 active torsions:
REMARK  status: ('A' for Active; 'I' for Inactive)
REMARK    1  A    between atoms: C5_12  and  O2_4 
REMARK    2  A    between atoms: C11_18  and  N1_7 
REMARK       I    between atoms: C8_15  and  N1_7 
REMARK    3  A    between atoms: C3_10  and  C8_15 
ROOT
HETATM    1  O1  UNK     1      18.605   0.255  32.902  1.00  0.00    -0.271 OA
HETATM    2  O3  UNK     1      18.019   0.206  35.111  1.00  0.00    -0.259 OA
HETATM    3  C1  UNK     1      19.956  -1.542  31.979  1.00  0.00     0.002 A 
HETATM    4  C2  UNK     1      19.271  -0.342  31.815  1.00  0.00     0.123 A 
HETATM    5  C3  UNK     1      19.339  -1.597  34.321  1.00  0.00     0.108 A 
HETATM    6  C4  UNK     1      19.973  -2.169  33.291  1.00  0.00     0.037 A 
HETATM    7  C5  UNK     1      19.216   0.309  30.584  1.00  0.00     0.102 A 
HETATM    8  C6  UNK     1      20.604  -2.104  30.876  1.00  0.00     0.014 A 
HETATM    9  C7  UNK     1      18.603  -0.322  34.170  1.00  0.00     0.304 A 
HETATM   10  C9  UNK     1      19.865  -0.257  29.490  1.00  0.00     0.040 A 
HETATM   11  C10 UNK     1      20.557  -1.461  29.635  1.00  0.00     0.004 A 
ENDROOT
BRANCH   5  12
HETATM   12  C8  UNK     1      19.414  -2.305  35.604  1.00  0.00     0.262 C 
HETATM   13  O4  UNK     1      19.186  -1.698  36.649  1.00  0.00    -0.267 OA
HETATM   14  N1  UNK     1      19.753  -3.641  35.446  1.00  0.00    -0.323 N 
HETATM   15  H5  UNK     1      19.932  -3.987  34.507  1.00  0.00     0.169 HD
BRANCH  14  16
HETATM   16  C11 UNK     1      19.915  -4.617  36.460  1.00  0.00     0.038 A 
HETATM   17  C12 UNK     1      18.955  -5.604  36.608  1.00  0.00     0.075 A 
HETATM   18  C14 UNK     1      19.114  -6.565  37.606  1.00  0.00     0.157 A 
HETATM   19  F1  UNK     1      18.195  -7.526  37.764  1.00  0.00    -0.203 F 
HETATM   20  C16 UNK     1      20.230  -6.525  38.442  1.00  0.00     0.154 A 
HETATM   21  C15 UNK     1      21.187  -5.522  38.279  1.00  0.00     0.048 A 
HETATM   22  F2  UNK     1      20.384  -7.446  39.402  1.00  0.00    -0.203 F 
HETATM   23  C13 UNK     1      21.028  -4.561  37.281  1.00  0.00     0.032 A 
ENDBRANCH  14  16
ENDBRANCH   5  12
BRANCH   7  24
HETATM   24  O2  UNK     1      18.543   1.482  30.438  1.00  0.00    -0.353 OA
HETATM   25  C17 UNK     1      18.132   1.837  29.118  1.00  0.00     0.210 C 
ENDBRANCH   7  24
TORSDOF 3
ENDMDL
MODEL 7
REMARK VINA RESULT:      -9.1     19.992     22.187
REMARK  3 active torsions:
REMARK  status: ('A' for Active; 'I' for Inactive)
REMARK    1  A    between atoms: C5_12  and  O2_4 
REMARK    2  A    between atoms: C11_18  and  N1_7 
REMARK       I    between atoms: C8_15  and  N1_7 
REMARK    3  A    between atoms: C3_10  and  C8_15 
ROOT
HETATM    1  O1  UNK     1      19.329  -2.442  13.018  1.00  0.00    -0.271 OA
HETATM    2  O3  UNK     1      19.378  -0.458  14.152  1.00  0.00    -0.259 OA
HETATM    3  C1  UNK     1      18.364  -4.406  14.077  1.00  0.00     0.002 A 
HETATM    4  C2  UNK     1      18.981  -3.806  12.984  1.00  0.00     0.123 A 
HETATM    5  C3  UNK     1      18.417  -2.306  15.283  1.00  0.00     0.108 A 
HETATM    6  C4  UNK     1      18.085  -3.602  15.256  1.00  0.00     0.037 A 
HETATM    7  C5  UNK     1      19.277  -4.521  11.824  1.00  0.00     0.102 A 
HETATM    8  C6  UNK     1      18.035  -5.762  14.004  1.00  0.00     0.014 A 
HETATM    9  C7  UNK     1      19.072  -1.646  14.132  1.00  0.00     0.304 A 
HETATM   10  C9  UNK     1      18.945  -5.872  11.760  1.00  0.00     0.040 A 
HETATM   11  C10 UNK     1      18.326  -6.491  12.847  1.00  0.00     0.004 A 
ENDROOT
BRANCH   5  12
HETATM   12  C8  UNK     1      18.094  -1.578  16.517  1.00  0.00     0.262 C 
HETATM   13  O4  UNK     1      16.997  -1.740  17.049  1.00  0.00    -0.267 OA
HETATM   14  N1  UNK     1      19.134  -0.760  16.931  1.00  0.00    -0.323 N 
HETATM   15  H5  UNK     1      19.976  -0.723  16.361  1.00  0.00     0.169 HD
BRANCH  14  16
HETATM   16  C11 UNK     1      19.172   0.081  18.070  1.00  0.00     0.038 A 
HETATM   17  C12 UNK     1      19.124   1.454  17.899  1.00  0.00     0.075 A 
HETATM   18  C14 UNK     1      19.161   2.282  19.021  1.00  0.00     0.157 A 
HETATM   19  F1  UNK     1      19.117   3.612  18.874  1.00  0.00    -0.203 F 
HETATM   20  C16 UNK     1      19.245   1.724  20.297  1.00  0.00     0.154 A 
HETATM   21  C15 UNK     1      19.293   0.338  20.450  1.00  0.00     0.048 A 
HETATM   22  F2  UNK     1      19.283   2.518  21.375  1.00  0.00    -0.203 F 
HETATM   23  C13 UNK     1      19.256  -0.490  19.328  1.00  0.00     0.032 A 
ENDBRANCH  14  16
ENDBRANCH   5  12
BRANCH   7  24
HETATM   24  O2  UNK     1      19.880  -3.922  10.763  1.00  0.00    -0.353 OA
HETATM   25  C17 UNK     1      19.191  -3.964   9.513  1.00  0.00     0.210 C 
ENDBRANCH   7  24
TORSDOF 3
ENDMDL
MODEL 8
REMARK VINA RESULT:      -9.1      3.672      8.141
REMARK  3 active torsions:
REMARK  status: ('A' for Active; 'I' for Inactive)
REMARK    1  A    between atoms: C5_12  and  O2_4 
REMARK    2  A    between atoms: C11_18  and  N1_7 
REMARK       I    between atoms: C8_15  and  N1_7 
REMARK    3  A    between atoms: C3_10  and  C8_15 
ROOT
HETATM    1  O1  UNK     1      20.290  -7.465  35.741  1.00  0.00    -0.271 OA
HETATM    2  O3  UNK     1      20.258  -5.633  34.375  1.00  0.00    -0.259 OA
HETATM    3  C1  UNK     1      20.049  -7.174  38.143  1.00  0.00     0.002 A 
HETATM    4  C2  UNK     1      20.218  -8.006  37.040  1.00  0.00     0.123 A 
HETATM    5  C3  UNK     1      20.018  -5.231  36.698  1.00  0.00     0.108 A 
HETATM    6  C4  UNK     1      19.949  -5.739  37.934  1.00  0.00     0.037 A 
HETATM    7  C5  UNK     1      20.322  -9.389  37.172  1.00  0.00     0.102 A 
HETATM    8  C6  UNK     1      19.983  -7.749  39.415  1.00  0.00     0.014 A 
HETATM    9  C7  UNK     1      20.195  -6.095  35.510  1.00  0.00     0.304 A 
HETATM   10  C9  UNK     1      20.254  -9.953  38.444  1.00  0.00     0.040 A 
HETATM   11  C10 UNK     1      20.085  -9.135  39.563  1.00  0.00     0.004 A 
ENDROOT
BRANCH   5  12
HETATM   12  C8  UNK     1      19.906  -3.771  36.589  1.00  0.00     0.262 C 
HETATM   13  O4  UNK     1      20.905  -3.101  36.333  1.00  0.00    -0.267 OA
HETATM   14  N1  UNK     1      18.609  -3.328  36.804  1.00  0.00    -0.323 N 
HETATM   15  H5  UNK     1      17.893  -4.015  37.028  1.00  0.00     0.169 HD
BRANCH  14  16
HETATM   16  C11 UNK     1      18.137  -1.993  36.777  1.00  0.00     0.038 A 
HETATM   17  C12 UNK     1      18.233  -1.218  37.920  1.00  0.00     0.075 A 
HETATM   18  C14 UNK     1      17.768   0.097  37.894  1.00  0.00     0.157 A 
HETATM   19  F1  UNK     1      17.852   0.860  38.991  1.00  0.00    -0.203 F 
HETATM   20  C16 UNK     1      17.213   0.617  36.725  1.00  0.00     0.154 A 
HETATM   21  C15 UNK     1      17.123  -0.178  35.582  1.00  0.00     0.048 A 
HETATM   22  F2  UNK     1      16.764   1.879  36.698  1.00  0.00    -0.203 F 
HETATM   23  C13 UNK     1      17.589  -1.493  35.608  1.00  0.00     0.032 A 
ENDBRANCH  14  16
ENDBRANCH   5  12
BRANCH   7  24
HETATM   24  O2  UNK     1      20.487 -10.190  36.085  1.00  0.00    -0.353 OA
HETATM   25  C17 UNK     1      21.765 -10.803  35.916  1.00  0.00     0.210 C 
ENDBRANCH   7  24
TORSDOF 3
ENDMDL
MODEL 9
REMARK VINA RESULT:      -9.0      3.874      8.356
REMARK  3 active torsions:
REMARK  status: ('A' for Active; 'I' for Inactive)
REMARK    1  A    between atoms: C5_12  and  O2_4 
REMARK    2  A    between atoms: C11_18  and  N1_7 
REMARK       I    between atoms: C8_15  and  N1_7 
REMARK    3  A    between atoms: C3_10  and  C8_15 
ROOT
HETATM    1  O1  UNK     1      19.128  -7.184  37.603  1.00  0.00    -0.271 OA
HETATM    2  O3  UNK     1      18.035  -5.607  36.361  1.00  0.00    -0.259 OA
HETATM    3  C1  UNK     1      21.244  -6.624  38.661  1.00  0.00     0.002 A 
HETATM    4  C2  UNK     1      20.233  -7.543  38.399  1.00  0.00     0.123 A 
HETATM    5  C3  UNK     1      20.090  -4.951  37.343  1.00  0.00     0.108 A 
HETATM    6  C4  UNK     1      21.142  -5.287  38.099  1.00  0.00     0.037 A 
HETATM    7  C5  UNK     1      20.271  -8.840  38.906  1.00  0.00     0.102 A 
HETATM    8  C6  UNK     1      22.324  -7.018  39.455  1.00  0.00     0.014 A 
HETATM    9  C7  UNK     1      19.002  -5.911  37.053  1.00  0.00     0.304 A 
HETATM   10  C9  UNK     1      21.351  -9.225  39.698  1.00  0.00     0.040 A 
HETATM   11  C10 UNK     1      22.375  -8.316  39.971  1.00  0.00     0.004 A 
ENDROOT
BRANCH   5  12
HETATM   12  C8  UNK     1      20.076  -3.578  36.823  1.00  0.00     0.262 C 
HETATM   13  O4  UNK     1      21.028  -3.169  36.158  1.00  0.00    -0.267 OA
HETATM   14  N1  UNK     1      18.922  -2.895  37.176  1.00  0.00    -0.323 N 
HETATM   15  H5  UNK     1      18.234  -3.373  37.753  1.00  0.00     0.169 HD
BRANCH  14  16
HETATM   16  C11 UNK     1      18.573  -1.561  36.850  1.00  0.00     0.038 A 
HETATM   17  C12 UNK     1      18.073  -0.731  37.840  1.00  0.00     0.075 A 
HETATM   18  C14 UNK     1      17.730   0.582  37.518  1.00  0.00     0.157 A 
HETATM   19  F1  UNK     1      17.244   1.397  38.463  1.00  0.00    -0.203 F 
HETATM   20  C16 UNK     1      17.890   1.045  36.213  1.00  0.00     0.154 A 
HETATM   21  C15 UNK     1      18.395   0.195  35.228  1.00  0.00     0.048 A 
HETATM   22  F2  UNK     1      17.559   2.305  35.902  1.00  0.00    -0.203 F 
HETATM   23  C13 UNK     1      18.739  -1.118  35.549  1.00  0.00     0.032 A 
ENDBRANCH  14  16
ENDBRANCH   5  12
BRANCH   7  24
HETATM   24  O2  UNK     1      19.276  -9.729  38.643  1.00  0.00    -0.353 OA
HETATM   25  C17 UNK     1      19.555 -10.755  37.690  1.00  0.00     0.210 C 
ENDBRANCH   7  24
TORSDOF 3
ENDMDL
MODEL 10
REMARK VINA RESULT:      -8.6     20.087     22.367
REMARK  3 active torsions:
REMARK  status: ('A' for Active; 'I' for Inactive)
REMARK    1  A    between atoms: C5_12  and  O2_4 
REMARK    2  A    between atoms: C11_18  and  N1_7 
REMARK       I    between atoms: C8_15  and  N1_7 
REMARK    3  A    between atoms: C3_10  and  C8_15 
ROOT
HETATM    1  O1  UNK     1      18.431  -4.310  13.665  1.00  0.00    -0.271 OA
HETATM    2  O3  UNK     1      17.382  -4.398  15.694  1.00  0.00    -0.259 OA
HETATM    3  C1  UNK     1      19.584  -2.276  12.999  1.00  0.00     0.002 A 
HETATM    4  C2  UNK     1      19.192  -3.584  12.729  1.00  0.00     0.123 A 
HETATM    5  C3  UNK     1      18.470  -2.365  15.148  1.00  0.00     0.108 A 
HETATM    6  C4  UNK     1      19.194  -1.671  14.261  1.00  0.00     0.037 A 
HETATM    7  C5  UNK     1      19.533  -4.222  11.538  1.00  0.00     0.102 A 
HETATM    8  C6  UNK     1      20.338  -1.589  12.044  1.00  0.00     0.014 A 
HETATM    9  C7  UNK     1      18.044  -3.757  14.884  1.00  0.00     0.304 A 
HETATM   10  C9  UNK     1      20.286  -3.529  10.592  1.00  0.00     0.040 A 
HETATM   11  C10 UNK     1      20.688  -2.216  10.844  1.00  0.00     0.004 A 
ENDROOT
BRANCH   5  12
HETATM   12  C8  UNK     1      18.127  -1.668  16.393  1.00  0.00     0.262 C 
HETATM   13  O4  UNK     1      17.052  -1.901  16.945  1.00  0.00    -0.267 OA
HETATM   14  N1  UNK     1      19.124  -0.792  16.796  1.00  0.00    -0.323 N 
HETATM   15  H5  UNK     1      19.951  -0.699  16.211  1.00  0.00     0.169 HD
BRANCH  14  16
HETATM   16  C11 UNK     1      19.132   0.040  17.942  1.00  0.00     0.038 A 
HETATM   17  C12 UNK     1      19.092   1.415  17.781  1.00  0.00     0.075 A 
HETATM   18  C14 UNK     1      19.100   2.234  18.910  1.00  0.00     0.157 A 
HETATM   19  F1  UNK     1      19.064   3.565  18.772  1.00  0.00    -0.203 F 
HETATM   20  C16 UNK     1      19.147   1.666  20.183  1.00  0.00     0.154 A 
HETATM   21  C15 UNK     1      19.187   0.279  20.327  1.00  0.00     0.048 A 
HETATM   22  F2  UNK     1      19.157   2.451  21.268  1.00  0.00    -0.203 F 
HETATM   23  C13 UNK     1      19.179  -0.540  19.198  1.00  0.00     0.032 A 
ENDBRANCH  14  16
ENDBRANCH   5  12
BRANCH   7  24
HETATM   24  O2  UNK     1      19.144  -5.500  11.287  1.00  0.00    -0.353 OA
HETATM   25  C17 UNK     1      20.165  -6.436  10.941  1.00  0.00     0.210 C 
ENDBRANCH   7  24
TORSDOF 3
ENDMDL
