MODEL 1
REMARK VINA RESULT:      -9.7      0.000      0.000
REMARK  4 active torsions:
REMARK  status: ('A' for Active; 'I' for Inactive)
REMARK    1  A    between atoms: C5_10  and  N1_4 
REMARK       I    between atoms: C7_12  and  N2_5 
REMARK    2  A    between atoms: C5_10  and  C6_11 
REMARK    3  A    between atoms: C6_11  and  C8_13 
REMARK    4  A    between atoms: C7_12  and  C9_14 
ROOT
HETATM    1  O1  UNK     1      16.700  -0.449  35.032  1.00  0.00    -0.267 OA
HETATM    2  N1  UNK     1      20.226  -3.064  37.397  1.00  0.00     0.091 N 
HETATM    3  N2  UNK     1      18.777  -1.274  35.681  1.00  0.00    -0.344 N 
HETATM    4  C1  UNK     1      20.591  -2.942  35.980  1.00  0.00     0.292 C 
HETATM    5  C2  UNK     1      18.777  -2.881  37.566  1.00  0.00     0.292 C 
HETATM    6  C3  UNK     1      20.191  -1.574  35.420  1.00  0.00     0.156 C 
HETATM    7  C4  UNK     1      18.351  -1.505  37.061  1.00  0.00     0.156 C 
HETATM    8  C7  UNK     1      17.884  -0.690  34.785  1.00  0.00     0.260 C 
ENDROOT
BRANCH   8   9
HETATM    9  C9  UNK     1      18.392  -0.324  33.448  1.00  0.00     0.108 A 
HETATM   10  C10 UNK     1      18.969  -1.306  32.745  1.00  0.00     0.037 A 
HETATM   11  C14 UNK     1      19.500  -1.044  31.417  1.00  0.00    -0.001 A 
HETATM   12  C15 UNK     1      19.398   0.241  30.893  1.00  0.00     0.089 A 
HETATM   13  C19 UNK     1      20.111  -2.038  30.649  1.00  0.00     0.014 A 
HETATM   14  O2  UNK     1      18.790   1.271  31.638  1.00  0.00    -0.274 OA
HETATM   15  C20 UNK     1      19.887   0.559  29.628  1.00  0.00     0.038 A 
HETATM   16  C13 UNK     1      18.272   1.049  32.910  1.00  0.00     0.304 A 
HETATM   17  O3  UNK     1      17.744   1.952  33.551  1.00  0.00    -0.259 OA
HETATM   18  C22 UNK     1      20.494  -0.439  28.868  1.00  0.00     0.003 A 
HETATM   19  C21 UNK     1      20.606  -1.735  29.377  1.00  0.00     0.001 A 
ENDBRANCH   8   9
BRANCH   2  20
HETATM   20  C5  UNK     1      20.643  -4.364  37.925  1.00  0.00     0.277 C 
BRANCH  20  21
HETATM   21  C6  UNK     1      20.426  -5.498  36.926  1.00  0.00     0.068 C 
BRANCH  21  22
HETATM   22  C8  UNK     1      20.046  -6.799  37.587  1.00  0.00    -0.057 A 
HETATM   23  C11 UNK     1      19.461  -7.802  36.829  1.00  0.00     0.007 A 
HETATM   24  C16 UNK     1      19.110  -9.006  37.440  1.00  0.00     0.001 A 
HETATM   25  C18 UNK     1      19.349  -9.193  38.801  1.00  0.00     0.000 A 
HETATM   26  C17 UNK     1      19.939  -8.175  39.553  1.00  0.00     0.001 A 
HETATM   27  C12 UNK     1      20.289  -6.971  38.941  1.00  0.00     0.007 A 
ENDBRANCH  21  22
ENDBRANCH  20  21
ENDBRANCH   2  20
TORSDOF 4
ENDMDL
MODEL 2
REMARK VINA RESULT:      -9.4     28.050     30.969
REMARK  4 active torsions:
REMARK  status: ('A' for Active; 'I' for Inactive)
REMARK    1  A    between atoms: C5_10  and  N1_4 
REMARK       I    between atoms: C7_12  and  N2_5 
REMARK    2  A    between atoms: C5_10  and  C6_11 
REMARK    3  A    between atoms: C6_11  and  C8_13 
REMARK    4  A    between atoms: C7_12  and  C9_14 
ROOT
HETATM    1  O1  UNK     1      15.676   6.805   9.612  1.00  0.00    -0.267 OA
HETATM    2  N1  UNK     1      16.714  11.551   8.487  1.00  0.00     0.091 N 
HETATM    3  N2  UNK     1      15.437   9.088   9.230  1.00  0.00    -0.344 N 
HETATM    4  C1  UNK     1      15.398  11.205   7.936  1.00  0.00     0.292 C 
HETATM    5  C2  UNK     1      17.510  10.334   8.699  1.00  0.00     0.292 C 
HETATM    6  C3  UNK     1      14.634  10.264   8.872  1.00  0.00     0.156 C 
HETATM    7  C4  UNK     1      16.799   9.392   9.667  1.00  0.00     0.156 C 
HETATM    8  C7  UNK     1      14.979   7.775   9.307  1.00  0.00     0.260 C 
ENDROOT
BRANCH   8   9
HETATM    9  C9  UNK     1      13.554   7.525   9.011  1.00  0.00     0.108 A 
HETATM   10  C10 UNK     1      13.274   7.086   7.777  1.00  0.00     0.037 A 
HETATM   11  C14 UNK     1      11.899   6.812   7.391  1.00  0.00    -0.001 A 
HETATM   12  C15 UNK     1      10.885   7.015   8.322  1.00  0.00     0.089 A 
HETATM   13  C19 UNK     1      11.561   6.353   6.116  1.00  0.00     0.014 A 
HETATM   14  O2  UNK     1      11.186   7.478   9.618  1.00  0.00    -0.274 OA
HETATM   15  C20 UNK     1       9.547   6.772   8.015  1.00  0.00     0.038 A 
HETATM   16  C13 UNK     1      12.491   7.747  10.017  1.00  0.00     0.304 A 
HETATM   17  O3  UNK     1      12.744   8.150  11.148  1.00  0.00    -0.259 OA
HETATM   18  C22 UNK     1       9.219   6.313   6.741  1.00  0.00     0.003 A 
HETATM   19  C21 UNK     1      10.224   6.104   5.793  1.00  0.00     0.001 A 
ENDBRANCH   8   9
BRANCH   2  20
HETATM   20  C5  UNK     1      17.418  12.475   7.598  1.00  0.00     0.277 C 
BRANCH  20  21
HETATM   21  C6  UNK     1      18.934  12.403   7.762  1.00  0.00     0.068 C 
BRANCH  21  22
HETATM   22  C8  UNK     1      19.681  12.936   6.564  1.00  0.00    -0.057 A 
HETATM   23  C11 UNK     1      19.119  12.817   5.303  1.00  0.00     0.007 A 
HETATM   24  C16 UNK     1      19.808  13.310   4.195  1.00  0.00     0.001 A 
HETATM   25  C18 UNK     1      21.052  13.917   4.362  1.00  0.00     0.000 A 
HETATM   26  C17 UNK     1      21.608  14.031   5.638  1.00  0.00     0.001 A 
HETATM   27  C12 UNK     1      20.917  13.537   6.745  1.00  0.00     0.007 A 
ENDBRANCH  21  22
ENDBRANCH  20  21
ENDBRANCH   2  20
TORSDOF 4
ENDMDL
MODEL 3
REMARK VINA RESULT:      -9.1     27.698     29.541
REMARK  4 active torsions:
REMARK  status: ('A' for Active; 'I' for Inactive)
REMARK    1  A    between atoms: C5_10  and  N1_4 
REMARK       I    between atoms: C7_12  and  N2_5 
REMARK    2  A    between atoms: C5_10  and  C6_11 
REMARK    3  A    between atoms: C6_11  and  C8_13 
REMARK    4  A    between atoms: C7_12  and  C9_14 
ROOT
HETATM    1  O1  UNK     1       8.953   6.837   6.421  1.00  0.00    -0.267 OA
HETATM    2  N1  UNK     1      13.307   5.472   8.429  1.00  0.00     0.091 N 
HETATM    3  N2  UNK     1      10.525   5.862   7.832  1.00  0.00    -0.344 N 
HETATM    4  C1  UNK     1      12.354   5.763   9.507  1.00  0.00     0.292 C 
HETATM    5  C2  UNK     1      12.901   6.155   7.194  1.00  0.00     0.292 C 
HETATM    6  C3  UNK     1      10.938   5.317   9.131  1.00  0.00     0.156 C 
HETATM    7  C4  UNK     1      11.510   5.697   6.762  1.00  0.00     0.156 C 
HETATM    8  C7  UNK     1       9.272   6.385   7.523  1.00  0.00     0.260 C 
ENDROOT
BRANCH   8   9
HETATM    9  C9  UNK     1       8.248   6.393   8.587  1.00  0.00     0.108 A 
HETATM   10  C10 UNK     1       8.142   7.521   9.299  1.00  0.00     0.037 A 
HETATM   11  C14 UNK     1       7.163   7.625  10.368  1.00  0.00    -0.001 A 
HETATM   12  C15 UNK     1       6.343   6.534  10.638  1.00  0.00     0.089 A 
HETATM   13  C19 UNK     1       7.018   8.783  11.136  1.00  0.00     0.014 A 
HETATM   14  O2  UNK     1       6.460   5.348   9.886  1.00  0.00    -0.274 OA
HETATM   15  C20 UNK     1       5.385   6.568  11.650  1.00  0.00     0.038 A 
HETATM   16  C13 UNK     1       7.386   5.220   8.856  1.00  0.00     0.304 A 
HETATM   17  O3  UNK     1       7.480   4.184   8.206  1.00  0.00    -0.259 OA
HETATM   18  C22 UNK     1       5.246   7.726  12.410  1.00  0.00     0.003 A 
HETATM   19  C21 UNK     1       6.061   8.832  12.155  1.00  0.00     0.001 A 
ENDBRANCH   8   9
BRANCH   2  20
HETATM   20  C5  UNK     1      14.660   5.874   8.816  1.00  0.00     0.277 C 
BRANCH  20  21
HETATM   21  C6  UNK     1      14.664   6.876   9.969  1.00  0.00     0.068 C 
BRANCH  21  22
HETATM   22  C8  UNK     1      15.310   8.189   9.605  1.00  0.00    -0.057 A 
HETATM   23  C11 UNK     1      14.636   9.072   8.776  1.00  0.00     0.007 A 
HETATM   24  C16 UNK     1      15.233  10.287   8.439  1.00  0.00     0.001 A 
HETATM   25  C18 UNK     1      16.497  10.605   8.935  1.00  0.00     0.000 A 
HETATM   26  C17 UNK     1      17.165   9.706   9.769  1.00  0.00     0.001 A 
HETATM   27  C12 UNK     1      16.567   8.491  10.106  1.00  0.00     0.007 A 
ENDBRANCH  21  22
ENDBRANCH  20  21
ENDBRANCH   2  20
TORSDOF 4
ENDMDL
MODEL 4
REMARK VINA RESULT:      -9.1      5.191      8.483
REMARK  4 active torsions:
REMARK  status: ('A' for Active; 'I' for Inactive)
REMARK    1  A    between atoms: C5_10  and  N1_4 
REMARK       I    between atoms: C7_12  and  N2_5 
REMARK    2  A    between atoms: C5_10  and  C6_11 
REMARK    3  A    between atoms: C6_11  and  C8_13 
REMARK    4  A    between atoms: C7_12  and  C9_14 
ROOT
HETATM    1  O1  UNK     1      19.421   5.295  29.697  1.00  0.00    -0.267 OA
HETATM    2  N1  UNK     1      18.451   1.122  32.249  1.00  0.00     0.091 N 
HETATM    3  N2  UNK     1      18.518   3.814  31.248  1.00  0.00    -0.344 N 
HETATM    4  C1  UNK     1      18.480   2.257  33.180  1.00  0.00     0.292 C 
HETATM    5  C2  UNK     1      19.210   1.445  31.033  1.00  0.00     0.292 C 
HETATM    6  C3  UNK     1      17.888   3.516  32.540  1.00  0.00     0.156 C 
HETATM    7  C4  UNK     1      18.615   2.669  30.341  1.00  0.00     0.156 C 
HETATM    8  C7  UNK     1      18.894   5.074  30.789  1.00  0.00     0.260 C 
ENDROOT
BRANCH   8   9
HETATM    9  C9  UNK     1      18.635   6.231  31.670  1.00  0.00     0.108 A 
HETATM   10  C10 UNK     1      17.425   6.794  31.567  1.00  0.00     0.037 A 
HETATM   11  C14 UNK     1      17.076   7.939  32.393  1.00  0.00    -0.001 A 
HETATM   12  C15 UNK     1      18.020   8.437  33.287  1.00  0.00     0.089 A 
HETATM   13  C19 UNK     1      15.826   8.558  32.320  1.00  0.00     0.014 A 
HETATM   14  O2  UNK     1      19.292   7.840  33.389  1.00  0.00    -0.274 OA
HETATM   15  C20 UNK     1      17.749   9.531  34.106  1.00  0.00     0.038 A 
HETATM   16  C13 UNK     1      19.654   6.743  32.614  1.00  0.00     0.304 A 
HETATM   17  O3  UNK     1      20.764   6.230  32.710  1.00  0.00    -0.259 OA
HETATM   18  C22 UNK     1      16.500  10.142  34.027  1.00  0.00     0.003 A 
HETATM   19  C21 UNK     1      15.539   9.656  33.136  1.00  0.00     0.001 A 
ENDBRANCH   8   9
BRANCH   2  20
HETATM   20  C5  UNK     1      18.990  -0.080  32.886  1.00  0.00     0.277 C 
BRANCH  20  21
HETATM   21  C6  UNK     1      17.904  -0.931  33.540  1.00  0.00     0.068 C 
BRANCH  21  22
HETATM   22  C8  UNK     1      17.445  -0.380  34.867  1.00  0.00    -0.057 A 
HETATM   23  C11 UNK     1      18.354  -0.266  35.908  1.00  0.00     0.007 A 
HETATM   24  C16 UNK     1      17.931   0.244  37.135  1.00  0.00     0.001 A 
HETATM   25  C18 UNK     1      16.603   0.634  37.308  1.00  0.00     0.000 A 
HETATM   26  C17 UNK     1      15.697   0.513  36.252  1.00  0.00     0.001 A 
HETATM   27  C12 UNK     1      16.122   0.003  35.024  1.00  0.00     0.007 A 
ENDBRANCH  21  22
ENDBRANCH  20  21
ENDBRANCH   2  20
TORSDOF 4
ENDMDL
MODEL 5
REMARK VINA RESULT:      -9.1     27.038     30.014
REMARK  4 active torsions:
REMARK  status: ('A' for Active; 'I' for Inactive)
REMARK    1  A    between atoms: C5_10  and  N1_4 
REMARK       I    between atoms: C7_12  and  N2_5 
REMARK    2  A    between atoms: C5_10  and  C6_11 
REMARK    3  A    between atoms: C6_11  and  C8_13 
REMARK    4  A    between atoms: C7_12  and  C9_14 
ROOT
HETATM    1  O1  UNK     1      15.223   5.087   8.743  1.00  0.00    -0.267 OA
HETATM    2  N1  UNK     1      16.316   9.640  10.455  1.00  0.00     0.091 N 
HETATM    3  N2  UNK     1      15.016   7.185   9.727  1.00  0.00    -0.344 N 
HETATM    4  C1  UNK     1      14.974   9.662   9.859  1.00  0.00     0.292 C 
HETATM    5  C2  UNK     1      17.094   8.520   9.910  1.00  0.00     0.292 C 
HETATM    6  C3  UNK     1      14.225   8.354  10.129  1.00  0.00     0.156 C 
HETATM    7  C4  UNK     1      16.399   7.193  10.204  1.00  0.00     0.156 C 
HETATM    8  C7  UNK     1      14.535   6.056   9.067  1.00  0.00     0.260 C 
ENDROOT
BRANCH   8   9
HETATM    9  C9  UNK     1      13.096   6.013   8.739  1.00  0.00     0.108 A 
HETATM   10  C10 UNK     1      12.763   6.357   7.489  1.00  0.00     0.037 A 
HETATM   11  C14 UNK     1      11.370   6.346   7.071  1.00  0.00    -0.001 A 
HETATM   12  C15 UNK     1      10.394   5.974   7.991  1.00  0.00     0.089 A 
HETATM   13  C19 UNK     1      10.977   6.696   5.778  1.00  0.00     0.014 A 
HETATM   14  O2  UNK     1      10.751   5.614   9.306  1.00  0.00    -0.274 OA
HETATM   15  C20 UNK     1       9.042   5.942   7.655  1.00  0.00     0.038 A 
HETATM   16  C13 UNK     1      12.075   5.614   9.734  1.00  0.00     0.304 A 
HETATM   17  O3  UNK     1      12.376   5.298  10.881  1.00  0.00    -0.259 OA
HETATM   18  C22 UNK     1       8.659   6.293   6.362  1.00  0.00     0.003 A 
HETATM   19  C21 UNK     1       9.624   6.670   5.425  1.00  0.00     0.001 A 
ENDBRANCH   8   9
BRANCH   2  20
HETATM   20  C5  UNK     1      17.006  10.908  10.215  1.00  0.00     0.277 C 
BRANCH  20  21
HETATM   21  C6  UNK     1      18.095  10.789   9.152  1.00  0.00     0.068 C 
BRANCH  21  22
HETATM   22  C8  UNK     1      17.976  11.831   8.068  1.00  0.00    -0.057 A 
HETATM   23  C11 UNK     1      16.920  12.729   8.101  1.00  0.00     0.007 A 
HETATM   24  C16 UNK     1      16.809  13.694   7.100  1.00  0.00     0.001 A 
HETATM   25  C18 UNK     1      17.756  13.749   6.077  1.00  0.00     0.000 A 
HETATM   26  C17 UNK     1      18.814  12.839   6.055  1.00  0.00     0.001 A 
HETATM   27  C12 UNK     1      18.924  11.874   7.058  1.00  0.00     0.007 A 
ENDBRANCH  21  22
ENDBRANCH  20  21
ENDBRANCH   2  20
TORSDOF 4
ENDMDL
MODEL 6
REMARK VINA RESULT:      -9.0     27.024     29.002
REMARK  4 active torsions:
REMARK  status: ('A' for Active; 'I' for Inactive)
REMARK    1  A    between atoms: C5_10  and  N1_4 
REMARK       I    between atoms: C7_12  and  N2_5 
REMARK    2  A    between atoms: C5_10  and  C6_11 
REMARK    3  A    between atoms: C6_11  and  C8_13 
REMARK    4  A    between atoms: C7_12  and  C9_14 
ROOT
HETATM    1  O1  UNK     1       7.475   6.940   7.370  1.00  0.00    -0.267 OA
HETATM    2  N1  UNK     1      12.301   5.705   7.567  1.00  0.00     0.091 N 
HETATM    3  N2  UNK     1       9.457   5.859   7.932  1.00  0.00    -0.344 N 
HETATM    4  C1  UNK     1      11.721   5.582   8.910  1.00  0.00     0.292 C 
HETATM    5  C2  UNK     1      11.494   6.619   6.747  1.00  0.00     0.292 C 
HETATM    6  C3  UNK     1      10.282   5.061   8.848  1.00  0.00     0.156 C 
HETATM    7  C4  UNK     1      10.063   6.104   6.623  1.00  0.00     0.156 C 
HETATM    8  C7  UNK     1       8.145   6.271   8.159  1.00  0.00     0.260 C 
ENDROOT
BRANCH   8   9
HETATM    9  C9  UNK     1       7.509   5.870   9.429  1.00  0.00     0.108 A 
HETATM   10  C10 UNK     1       7.030   4.622   9.484  1.00  0.00     0.037 A 
HETATM   11  C14 UNK     1       6.385   4.135  10.693  1.00  0.00    -0.001 A 
HETATM   12  C15 UNK     1       6.275   4.987  11.787  1.00  0.00     0.089 A 
HETATM   13  C19 UNK     1       5.871   2.840  10.794  1.00  0.00     0.014 A 
HETATM   14  O2  UNK     1       6.781   6.301  11.723  1.00  0.00    -0.274 OA
HETATM   15  C20 UNK     1       5.668   4.583  12.974  1.00  0.00     0.038 A 
HETATM   16  C13 UNK     1       7.404   6.794  10.581  1.00  0.00     0.304 A 
HETATM   17  O3  UNK     1       7.841   7.939  10.535  1.00  0.00    -0.259 OA
HETATM   18  C22 UNK     1       5.159   3.290  13.067  1.00  0.00     0.003 A 
HETATM   19  C21 UNK     1       5.260   2.419  11.979  1.00  0.00     0.001 A 
ENDBRANCH   8   9
BRANCH   2  20
HETATM   20  C5  UNK     1      13.686   6.173   7.645  1.00  0.00     0.277 C 
BRANCH  20  21
HETATM   21  C6  UNK     1      14.344   5.829   8.979  1.00  0.00     0.068 C 
BRANCH  21  22
HETATM   22  C8  UNK     1      15.335   6.873   9.432  1.00  0.00    -0.057 A 
HETATM   23  C11 UNK     1      14.959   8.207   9.446  1.00  0.00     0.007 A 
HETATM   24  C16 UNK     1      15.874   9.173   9.866  1.00  0.00     0.001 A 
HETATM   25  C18 UNK     1      17.155   8.792  10.265  1.00  0.00     0.000 A 
HETATM   26  C17 UNK     1      17.521   7.445  10.245  1.00  0.00     0.001 A 
HETATM   27  C12 UNK     1      16.605   6.480   9.826  1.00  0.00     0.007 A 
ENDBRANCH  21  22
ENDBRANCH  20  21
ENDBRANCH   2  20
TORSDOF 4
ENDMDL
MODEL 7
REMARK VINA RESULT:      -9.0      1.751      2.861
REMARK  4 active torsions:
REMARK  status: ('A' for Active; 'I' for Inactive)
REMARK    1  A    between atoms: C5_10  and  N1_4 
REMARK       I    between atoms: C7_12  and  N2_5 
REMARK    2  A    between atoms: C5_10  and  C6_11 
REMARK    3  A    between atoms: C6_11  and  C8_13 
REMARK    4  A    between atoms: C7_12  and  C9_14 
ROOT
HETATM    1  O1  UNK     1      16.266   0.079  35.510  1.00  0.00    -0.267 OA
HETATM    2  N1  UNK     1      20.095  -2.757  36.978  1.00  0.00     0.091 N 
HETATM    3  N2  UNK     1      18.428  -0.716  35.836  1.00  0.00    -0.344 N 
HETATM    4  C1  UNK     1      20.362  -2.257  35.623  1.00  0.00     0.292 C 
HETATM    5  C2  UNK     1      18.651  -2.737  37.251  1.00  0.00     0.292 C 
HETATM    6  C3  UNK     1      19.839  -0.829  35.445  1.00  0.00     0.156 C 
HETATM    7  C4  UNK     1      18.105  -1.316  37.130  1.00  0.00     0.156 C 
HETATM    8  C7  UNK     1      17.445   0.001  35.158  1.00  0.00     0.260 C 
ENDROOT
BRANCH   8   9
HETATM    9  C9  UNK     1      17.843   0.726  33.935  1.00  0.00     0.108 A 
HETATM   10  C10 UNK     1      17.856   2.062  34.017  1.00  0.00     0.037 A 
HETATM   11  C14 UNK     1      18.234   2.865  32.865  1.00  0.00    -0.001 A 
HETATM   12  C15 UNK     1      18.580   2.222  31.681  1.00  0.00     0.089 A 
HETATM   13  C19 UNK     1      18.261   4.261  32.906  1.00  0.00     0.014 A 
HETATM   14  O2  UNK     1      18.564   0.815  31.601  1.00  0.00    -0.274 OA
HETATM   15  C20 UNK     1      18.952   2.932  30.541  1.00  0.00     0.038 A 
HETATM   16  C13 UNK     1      18.208   0.021  32.686  1.00  0.00     0.304 A 
HETATM   17  O3  UNK     1      18.197  -1.203  32.606  1.00  0.00    -0.259 OA
HETATM   18  C22 UNK     1      18.977   4.324  30.591  1.00  0.00     0.003 A 
HETATM   19  C21 UNK     1      18.632   4.988  31.771  1.00  0.00     0.001 A 
ENDBRANCH   8   9
BRANCH   2  20
HETATM   20  C5  UNK     1      20.628  -4.110  37.141  1.00  0.00     0.277 C 
BRANCH  20  21
HETATM   21  C6  UNK     1      19.625  -5.187  36.733  1.00  0.00     0.068 C 
BRANCH  21  22
HETATM   22  C8  UNK     1      19.675  -6.405  37.621  1.00  0.00    -0.057 A 
HETATM   23  C11 UNK     1      20.379  -6.348  38.814  1.00  0.00     0.007 A 
HETATM   24  C16 UNK     1      20.426  -7.474  39.637  1.00  0.00     0.001 A 
HETATM   25  C18 UNK     1      19.767  -8.643  39.257  1.00  0.00     0.000 A 
HETATM   26  C17 UNK     1      19.061  -8.686  38.053  1.00  0.00     0.001 A 
HETATM   27  C12 UNK     1      19.016  -7.560  37.231  1.00  0.00     0.007 A 
ENDBRANCH  21  22
ENDBRANCH  20  21
ENDBRANCH   2  20
TORSDOF 4
ENDMDL
MODEL 8
REMARK VINA RESULT:      -9.0     27.150     29.555
REMARK  4 active torsions:
REMARK  status: ('A' for Active; 'I' for Inactive)
REMARK    1  A    between atoms: C5_10  and  N1_4 
REMARK       I    between atoms: C7_12  and  N2_5 
REMARK    2  A    between atoms: C5_10  and  C6_11 
REMARK    3  A    between atoms: C6_11  and  C8_13 
REMARK    4  A    between atoms: C7_12  and  C9_14 
ROOT
HETATM    1  O1  UNK     1      15.239   5.169   8.691  1.00  0.00    -0.267 OA
HETATM    2  N1  UNK     1      16.291   9.756  10.338  1.00  0.00     0.091 N 
HETATM    3  N2  UNK     1      15.013   7.278   9.648  1.00  0.00    -0.344 N 
HETATM    4  C1  UNK     1      14.947   9.757   9.745  1.00  0.00     0.292 C 
HETATM    5  C2  UNK     1      17.079   8.636   9.807  1.00  0.00     0.292 C 
HETATM    6  C3  UNK     1      14.212   8.446  10.035  1.00  0.00     0.156 C 
HETATM    7  C4  UNK     1      16.398   7.307  10.121  1.00  0.00     0.156 C 
HETATM    8  C7  UNK     1      14.542   6.137   9.004  1.00  0.00     0.260 C 
ENDROOT
BRANCH   8   9
HETATM    9  C9  UNK     1      13.103   6.075   8.681  1.00  0.00     0.108 A 
HETATM   10  C10 UNK     1      12.759   6.431   7.437  1.00  0.00     0.037 A 
HETATM   11  C14 UNK     1      11.366   6.404   7.023  1.00  0.00    -0.001 A 
HETATM   12  C15 UNK     1      10.399   6.003   7.941  1.00  0.00     0.089 A 
HETATM   13  C19 UNK     1      10.963   6.767   5.736  1.00  0.00     0.014 A 
HETATM   14  O2  UNK     1      10.767   5.630   9.249  1.00  0.00    -0.274 OA
HETATM   15  C20 UNK     1       9.047   5.955   7.609  1.00  0.00     0.038 A 
HETATM   16  C13 UNK     1      12.092   5.645   9.673  1.00  0.00     0.304 A 
HETATM   17  O3  UNK     1      12.402   5.318  10.814  1.00  0.00    -0.259 OA
HETATM   18  C22 UNK     1       8.653   6.318   6.323  1.00  0.00     0.003 A 
HETATM   19  C21 UNK     1       9.609   6.723   5.387  1.00  0.00     0.001 A 
ENDBRANCH   8   9
BRANCH   2  20
HETATM   20  C5  UNK     1      16.968  11.028  10.080  1.00  0.00     0.277 C 
BRANCH  20  21
HETATM   21  C6  UNK     1      17.754  11.015   8.771  1.00  0.00     0.068 C 
BRANCH  21  22
HETATM   22  C8  UNK     1      19.127  11.625   8.903  1.00  0.00    -0.057 A 
HETATM   23  C11 UNK     1      19.692  11.763  10.162  1.00  0.00     0.007 A 
HETATM   24  C16 UNK     1      20.962  12.326  10.286  1.00  0.00     0.001 A 
HETATM   25  C18 UNK     1      21.652  12.745   9.149  1.00  0.00     0.000 A 
HETATM   26  C17 UNK     1      21.072  12.601   7.887  1.00  0.00     0.001 A 
HETATM   27  C12 UNK     1      19.802  12.037   7.765  1.00  0.00     0.007 A 
ENDBRANCH  21  22
ENDBRANCH  20  21
ENDBRANCH   2  20
TORSDOF 4
ENDMDL
MODEL 9
REMARK VINA RESULT:      -9.0      3.247      9.146
REMARK  4 active torsions:
REMARK  status: ('A' for Active; 'I' for Inactive)
REMARK    1  A    between atoms: C5_10  and  N1_4 
REMARK       I    between atoms: C7_12  and  N2_5 
REMARK    2  A    between atoms: C5_10  and  C6_11 
REMARK    3  A    between atoms: C6_11  and  C8_13 
REMARK    4  A    between atoms: C7_12  and  C9_14 
ROOT
HETATM    1  O1  UNK     1      18.649  -1.437  38.559  1.00  0.00    -0.267 OA
HETATM    2  N1  UNK     1      17.718   1.723  34.817  1.00  0.00     0.091 N 
HETATM    3  N2  UNK     1      18.098  -0.603  36.458  1.00  0.00    -0.344 N 
HETATM    4  C1  UNK     1      18.437   0.556  34.290  1.00  0.00     0.292 C 
HETATM    5  C2  UNK     1      17.965   1.863  36.259  1.00  0.00     0.292 C 
HETATM    6  C3  UNK     1      18.002  -0.730  34.999  1.00  0.00     0.156 C 
HETATM    7  C4  UNK     1      17.498   0.615  37.004  1.00  0.00     0.156 C 
HETATM    8  C7  UNK     1      18.581  -1.571  37.336  1.00  0.00     0.260 C 
ENDROOT
BRANCH   8   9
HETATM    9  C9  UNK     1      19.034  -2.853  36.762  1.00  0.00     0.108 A 
HETATM   10  C10 UNK     1      18.244  -3.912  36.980  1.00  0.00     0.037 A 
HETATM   11  C14 UNK     1      18.606  -5.219  36.455  1.00  0.00    -0.001 A 
HETATM   12  C15 UNK     1      19.785  -5.348  35.726  1.00  0.00     0.089 A 
HETATM   13  C19 UNK     1      17.812  -6.350  36.658  1.00  0.00     0.014 A 
HETATM   14  O2  UNK     1      20.613  -4.230  35.501  1.00  0.00    -0.274 OA
HETATM   15  C20 UNK     1      20.189  -6.572  35.196  1.00  0.00     0.038 A 
HETATM   16  C13 UNK     1      20.291  -2.968  35.990  1.00  0.00     0.304 A 
HETATM   17  O3  UNK     1      21.019  -2.001  35.788  1.00  0.00    -0.259 OA
HETATM   18  C22 UNK     1      19.391  -7.695  35.403  1.00  0.00     0.003 A 
HETATM   19  C21 UNK     1      18.205  -7.584  36.132  1.00  0.00     0.001 A 
ENDBRANCH   8   9
BRANCH   2  20
HETATM   20  C5  UNK     1      18.121   2.939  34.108  1.00  0.00     0.277 C 
BRANCH  20  21
HETATM   21  C6  UNK     1      18.129   2.755  32.592  1.00  0.00     0.068 C 
BRANCH  21  22
HETATM   22  C8  UNK     1      18.300   4.054  31.844  1.00  0.00    -0.057 A 
HETATM   23  C11 UNK     1      17.794   5.224  32.388  1.00  0.00     0.007 A 
HETATM   24  C16 UNK     1      17.953   6.426  31.697  1.00  0.00     0.001 A 
HETATM   25  C18 UNK     1      18.615   6.442  30.469  1.00  0.00     0.000 A 
HETATM   26  C17 UNK     1      19.119   5.256  29.932  1.00  0.00     0.001 A 
HETATM   27  C12 UNK     1      18.960   4.055  30.625  1.00  0.00     0.007 A 
ENDBRANCH  21  22
ENDBRANCH  20  21
ENDBRANCH   2  20
TORSDOF 4
ENDMDL
MODEL 10
REMARK VINA RESULT:      -8.9     27.947     30.160
REMARK  4 active torsions:
REMARK  status: ('A' for Active; 'I' for Inactive)
REMARK    1  A    between atoms: C5_10  and  N1_4 
REMARK       I    between atoms: C7_12  and  N2_5 
REMARK    2  A    between atoms: C5_10  and  C6_11 
REMARK    3  A    between atoms: C6_11  and  C8_13 
REMARK    4  A    between atoms: C7_12  and  C9_14 
ROOT
HETATM    1  O1  UNK     1      15.553   6.563   9.715  1.00  0.00    -0.267 OA
HETATM    2  N1  UNK     1      16.852  11.277   8.741  1.00  0.00     0.091 N 
HETATM    3  N2  UNK     1      15.435   8.863   9.380  1.00  0.00    -0.344 N 
HETATM    4  C1  UNK     1      15.542  11.008   8.137  1.00  0.00     0.292 C 
HETATM    5  C2  UNK     1      17.583  10.020   8.951  1.00  0.00     0.292 C 
HETATM    6  C3  UNK     1      14.701  10.083   9.023  1.00  0.00     0.156 C 
HETATM    7  C4  UNK     1      16.794   9.092   9.872  1.00  0.00     0.156 C 
HETATM    8  C7  UNK     1      14.913   7.572   9.410  1.00  0.00     0.260 C 
ENDROOT
BRANCH   8   9
HETATM    9  C9  UNK     1      13.490   7.397   9.058  1.00  0.00     0.108 A 
HETATM   10  C10 UNK     1      13.235   6.955   7.821  1.00  0.00     0.037 A 
HETATM   11  C14 UNK     1      11.864   6.752   7.381  1.00  0.00    -0.001 A 
HETATM   12  C15 UNK     1      10.826   7.026   8.267  1.00  0.00     0.089 A 
HETATM   13  C19 UNK     1      11.552   6.293   6.100  1.00  0.00     0.014 A 
HETATM   14  O2  UNK     1      11.100   7.491   9.568  1.00  0.00    -0.274 OA
HETATM   15  C20 UNK     1       9.490   6.853   7.908  1.00  0.00     0.038 A 
HETATM   16  C13 UNK     1      12.402   7.694  10.017  1.00  0.00     0.304 A 
HETATM   17  O3  UNK     1      12.630   8.099  11.152  1.00  0.00    -0.259 OA
HETATM   18  C22 UNK     1       9.188   6.394   6.628  1.00  0.00     0.003 A 
HETATM   19  C21 UNK     1      10.217   6.114   5.725  1.00  0.00     0.001 A 
ENDBRANCH   8   9
BRANCH   2  20
HETATM   20  C5  UNK     1      17.630  12.187   7.899  1.00  0.00     0.277 C 
BRANCH  20  21
HETATM   21  C6  UNK     1      18.955  11.576   7.448  1.00  0.00     0.068 C 
BRANCH  21  22
HETATM   22  C8  UNK     1      20.155  12.340   7.950  1.00  0.00    -0.057 A 
HETATM   23  C11 UNK     1      20.758  13.279   7.126  1.00  0.00     0.007 A 
HETATM   24  C16 UNK     1      21.867  13.986   7.589  1.00  0.00     0.001 A 
HETATM   25  C18 UNK     1      22.361  13.746   8.871  1.00  0.00     0.000 A 
HETATM   26  C17 UNK     1      21.746  12.798   9.691  1.00  0.00     0.001 A 
HETATM   27  C12 UNK     1      20.636  12.091   9.226  1.00  0.00     0.007 A 
ENDBRANCH  21  22
ENDBRANCH  20  21
ENDBRANCH   2  20
TORSDOF 4
ENDMDL
