MODEL 1
REMARK VINA RESULT:      -7.0      0.000      0.000
REMARK  1 active torsions:
REMARK  status: ('A' for Active; 'I' for Inactive)
REMARK    1  A    between atoms: C11_16  and  C6_11 
ROOT
HETATM    1  O1  UNK     1      18.358  -0.729  34.177  1.00  0.00    -0.309 OA
HETATM    2  O2  UNK     1      18.193   2.803  32.152  1.00  0.00    -0.287 OA
HETATM    3  C1  UNK     1      18.885   0.542  32.175  1.00  0.00     0.048 A 
HETATM    4  C2  UNK     1      18.905  -0.634  32.922  1.00  0.00     0.090 A 
HETATM    5  C3  UNK     1      19.459   0.582  30.902  1.00  0.00     0.025 A 
HETATM    6  C4  UNK     1      20.054  -0.568  30.381  1.00  0.00    -0.061 A 
HETATM    7  C5  UNK     1      18.249   1.737  32.751  1.00  0.00     0.187 A 
HETATM    8  C6  UNK     1      17.759   0.396  34.722  1.00  0.00     0.111 A 
HETATM    9  C7  UNK     1      19.501  -1.782  32.399  1.00  0.00     0.039 A 
HETATM   10  C8  UNK     1      20.075  -1.747  31.128  1.00  0.00     0.009 A 
HETATM   11  C9  UNK     1      17.677   1.582  34.102  1.00  0.00     0.093 A 
HETATM   12  C10 UNK     1      20.670  -0.536  29.023  1.00  0.00     0.048 C 
ENDROOT
BRANCH   8  13
HETATM   13  C11 UNK     1      17.199   0.170  36.091  1.00  0.00     0.237 C 
HETATM   14 Cl1  UNK     1      17.564  -1.498  36.592  1.00  0.00    -0.076 Cl
HETATM   15 Cl2  UNK     1      17.935   1.316  37.238  1.00  0.00    -0.076 Cl
HETATM   16 Cl3  UNK     1      15.435   0.416  36.063  1.00  0.00    -0.076 Cl
ENDBRANCH   8  13
TORSDOF 1
ENDMDL
MODEL 2
REMARK VINA RESULT:      -6.7      1.206      2.729
REMARK  1 active torsions:
REMARK  status: ('A' for Active; 'I' for Inactive)
REMARK    1  A    between atoms: C11_16  and  C6_11 
ROOT
HETATM    1  O1  UNK     1      18.215   0.404  33.630  1.00  0.00    -0.309 OA
HETATM    2  O2  UNK     1      20.498  -2.971  33.618  1.00  0.00    -0.287 OA
HETATM    3  C1  UNK     1      19.705  -1.089  32.426  1.00  0.00     0.048 A 
HETATM    4  C2  UNK     1      18.907   0.052  32.500  1.00  0.00     0.090 A 
HETATM    5  C3  UNK     1      20.388  -1.400  31.248  1.00  0.00     0.025 A 
HETATM    6  C4  UNK     1      20.266  -0.558  30.141  1.00  0.00    -0.061 A 
HETATM    7  C5  UNK     1      19.815  -1.956  33.609  1.00  0.00     0.187 A 
HETATM    8  C6  UNK     1      18.315  -0.411  34.746  1.00  0.00     0.111 A 
HETATM    9  C7  UNK     1      18.787   0.891  31.391  1.00  0.00     0.039 A 
HETATM   10  C8  UNK     1      19.468   0.584  30.213  1.00  0.00     0.009 A 
HETATM   11  C9  UNK     1      19.049  -1.532  34.798  1.00  0.00     0.093 A 
HETATM   12  C10 UNK     1      20.991  -0.882  28.878  1.00  0.00     0.048 C 
ENDROOT
BRANCH   8  13
HETATM   13  C11 UNK     1      17.518   0.076  35.915  1.00  0.00     0.237 C 
HETATM   14 Cl1  UNK     1      15.812   0.217  35.427  1.00  0.00    -0.076 Cl
HETATM   15 Cl2  UNK     1      17.663  -1.078  37.264  1.00  0.00    -0.076 Cl
HETATM   16 Cl3  UNK     1      18.127   1.666  36.434  1.00  0.00    -0.076 Cl
ENDBRANCH   8  13
TORSDOF 1
ENDMDL
MODEL 3
REMARK VINA RESULT:      -6.7      4.583      5.901
REMARK  1 active torsions:
REMARK  status: ('A' for Active; 'I' for Inactive)
REMARK    1  A    between atoms: C11_16  and  C6_11 
ROOT
HETATM    1  O1  UNK     1      17.981   5.278  33.370  1.00  0.00    -0.309 OA
HETATM    2  O2  UNK     1      19.241   6.326  29.639  1.00  0.00    -0.287 OA
HETATM    3  C1  UNK     1      18.685   4.593  31.148  1.00  0.00     0.048 A 
HETATM    4  C2  UNK     1      18.250   4.305  32.441  1.00  0.00     0.090 A 
HETATM    5  C3  UNK     1      18.945   3.561  30.243  1.00  0.00     0.025 A 
HETATM    6  C4  UNK     1      18.765   2.236  30.642  1.00  0.00    -0.061 A 
HETATM    7  C5  UNK     1      18.864   5.999  30.757  1.00  0.00     0.187 A 
HETATM    8  C6  UNK     1      18.151   6.604  33.004  1.00  0.00     0.111 A 
HETATM    9  C7  UNK     1      18.072   2.979  32.837  1.00  0.00     0.039 A 
HETATM   10  C8  UNK     1      18.329   1.946  31.936  1.00  0.00     0.009 A 
HETATM   11  C9  UNK     1      18.563   7.006  31.793  1.00  0.00     0.093 A 
HETATM   12  C10 UNK     1      19.040   1.127  29.683  1.00  0.00     0.048 C 
ENDROOT
BRANCH   8  13
HETATM   13  C11 UNK     1      17.826   7.571  34.098  1.00  0.00     0.237 C 
HETATM   14 Cl1  UNK     1      17.382   9.133  33.370  1.00  0.00    -0.076 Cl
HETATM   15 Cl2  UNK     1      16.466   6.951  35.066  1.00  0.00    -0.076 Cl
HETATM   16 Cl3  UNK     1      19.248   7.783  35.150  1.00  0.00    -0.076 Cl
ENDBRANCH   8  13
TORSDOF 1
ENDMDL
MODEL 4
REMARK VINA RESULT:      -6.7     13.457     14.693
REMARK  1 active torsions:
REMARK  status: ('A' for Active; 'I' for Inactive)
REMARK    1  A    between atoms: C11_16  and  C6_11 
ROOT
HETATM    1  O1  UNK     1      30.974  -6.553  37.074  1.00  0.00    -0.309 OA
HETATM    2  O2  UNK     1      28.099  -4.422  39.021  1.00  0.00    -0.287 OA
HETATM    3  C1  UNK     1      28.979  -6.543  38.460  1.00  0.00     0.048 A 
HETATM    4  C2  UNK     1      29.992  -7.209  37.773  1.00  0.00     0.090 A 
HETATM    5  C3  UNK     1      28.004  -7.262  39.155  1.00  0.00     0.025 A 
HETATM    6  C4  UNK     1      28.051  -8.657  39.157  1.00  0.00    -0.061 A 
HETATM    7  C5  UNK     1      28.956  -5.072  38.440  1.00  0.00     0.187 A 
HETATM    8  C6  UNK     1      30.954  -5.168  37.052  1.00  0.00     0.111 A 
HETATM    9  C7  UNK     1      30.037  -8.604  37.777  1.00  0.00     0.039 A 
HETATM   10  C8  UNK     1      29.065  -9.326  38.470  1.00  0.00     0.009 A 
HETATM   11  C9  UNK     1      30.034  -4.416  37.673  1.00  0.00     0.093 A 
HETATM   12  C10 UNK     1      27.014  -9.435  39.896  1.00  0.00     0.048 C 
ENDROOT
BRANCH   8  13
HETATM   13  C11 UNK     1      32.073  -4.567  36.261  1.00  0.00     0.237 C 
HETATM   14 Cl1  UNK     1      33.610  -5.273  36.813  1.00  0.00    -0.076 Cl
HETATM   15 Cl2  UNK     1      31.840  -4.917  34.530  1.00  0.00    -0.076 Cl
HETATM   16 Cl3  UNK     1      32.100  -2.803  36.506  1.00  0.00    -0.076 Cl
ENDBRANCH   8  13
TORSDOF 1
ENDMDL
MODEL 5
REMARK VINA RESULT:      -6.7     13.485     14.713
REMARK  1 active torsions:
REMARK  status: ('A' for Active; 'I' for Inactive)
REMARK    1  A    between atoms: C11_16  and  C6_11 
ROOT
HETATM    1  O1  UNK     1      30.983  -6.561  37.061  1.00  0.00    -0.309 OA
HETATM    2  O2  UNK     1      28.141  -4.421  39.048  1.00  0.00    -0.287 OA
HETATM    3  C1  UNK     1      28.999  -6.545  38.462  1.00  0.00     0.048 A 
HETATM    4  C2  UNK     1      30.001  -7.214  37.762  1.00  0.00     0.090 A 
HETATM    5  C3  UNK     1      28.023  -7.262  39.159  1.00  0.00     0.025 A 
HETATM    6  C4  UNK     1      28.058  -8.657  39.149  1.00  0.00    -0.061 A 
HETATM    7  C5  UNK     1      28.989  -5.074  38.454  1.00  0.00     0.187 A 
HETATM    8  C6  UNK     1      30.975  -5.175  37.051  1.00  0.00     0.111 A 
HETATM    9  C7  UNK     1      30.033  -8.609  37.753  1.00  0.00     0.039 A 
HETATM   10  C8  UNK     1      29.061  -9.329  38.448  1.00  0.00     0.009 A 
HETATM   11  C9  UNK     1      30.066  -4.421  37.685  1.00  0.00     0.093 A 
HETATM   12  C10 UNK     1      27.020  -9.432  39.889  1.00  0.00     0.048 C 
ENDROOT
BRANCH   8  13
HETATM   13  C11 UNK     1      32.093  -4.577  36.255  1.00  0.00     0.237 C 
HETATM   14 Cl1  UNK     1      32.101  -2.816  36.511  1.00  0.00    -0.076 Cl
HETATM   15 Cl2  UNK     1      33.646  -5.268  36.788  1.00  0.00    -0.076 Cl
HETATM   16 Cl3  UNK     1      31.853  -4.932  34.527  1.00  0.00    -0.076 Cl
ENDBRANCH   8  13
TORSDOF 1
ENDMDL
MODEL 6
REMARK VINA RESULT:      -6.6      7.473      9.699
REMARK  1 active torsions:
REMARK  status: ('A' for Active; 'I' for Inactive)
REMARK    1  A    between atoms: C11_16  and  C6_11 
ROOT
HETATM    1  O1  UNK     1      17.587   8.057  32.933  1.00  0.00    -0.309 OA
HETATM    2  O2  UNK     1      13.824   6.905  31.878  1.00  0.00    -0.287 OA
HETATM    3  C1  UNK     1      15.202   8.515  32.926  1.00  0.00     0.048 A 
HETATM    4  C2  UNK     1      16.514   8.849  33.255  1.00  0.00     0.090 A 
HETATM    5  C3  UNK     1      14.147   9.360  33.279  1.00  0.00     0.025 A 
HETATM    6  C4  UNK     1      14.417  10.545  33.966  1.00  0.00    -0.061 A 
HETATM    7  C5  UNK     1      14.949   7.261  32.201  1.00  0.00     0.187 A 
HETATM    8  C6  UNK     1      17.352   6.873  32.251  1.00  0.00     0.111 A 
HETATM    9  C7  UNK     1      16.781  10.034  33.942  1.00  0.00     0.039 A 
HETATM   10  C8  UNK     1      15.731  10.881  34.296  1.00  0.00     0.009 A 
HETATM   11  C9  UNK     1      16.137   6.445  31.880  1.00  0.00     0.093 A 
HETATM   12  C10 UNK     1      13.297  11.454  34.349  1.00  0.00     0.048 C 
ENDROOT
BRANCH   8  13
HETATM   13  C11 UNK     1      18.596   6.097  31.956  1.00  0.00     0.237 C 
HETATM   14 Cl1  UNK     1      18.338   4.399  32.425  1.00  0.00    -0.076 Cl
HETATM   15 Cl2  UNK     1      18.965   6.190  30.217  1.00  0.00    -0.076 Cl
HETATM   16 Cl3  UNK     1      19.958   6.774  32.883  1.00  0.00    -0.076 Cl
ENDBRANCH   8  13
TORSDOF 1
ENDMDL
MODEL 7
REMARK VINA RESULT:      -6.6      4.164      5.592
REMARK  1 active torsions:
REMARK  status: ('A' for Active; 'I' for Inactive)
REMARK    1  A    between atoms: C11_16  and  C6_11 
ROOT
HETATM    1  O1  UNK     1      18.323   4.230  33.558  1.00  0.00    -0.309 OA
HETATM    2  O2  UNK     1      18.371   1.287  30.740  1.00  0.00    -0.287 OA
HETATM    3  C1  UNK     1      18.370   1.858  33.035  1.00  0.00     0.048 A 
HETATM    4  C2  UNK     1      18.352   2.914  33.944  1.00  0.00     0.090 A 
HETATM    5  C3  UNK     1      18.400   0.536  33.485  1.00  0.00     0.025 A 
HETATM    6  C4  UNK     1      18.411   0.279  34.856  1.00  0.00    -0.061 A 
HETATM    7  C5  UNK     1      18.358   2.162  31.595  1.00  0.00     0.187 A 
HETATM    8  C6  UNK     1      18.313   4.519  32.203  1.00  0.00     0.111 A 
HETATM    9  C7  UNK     1      18.363   2.653  35.315  1.00  0.00     0.039 A 
HETATM   10  C8  UNK     1      18.392   1.334  35.769  1.00  0.00     0.009 A 
HETATM   11  C9  UNK     1      18.328   3.593  31.233  1.00  0.00     0.093 A 
HETATM   12  C10 UNK     1      18.443  -1.130  35.348  1.00  0.00     0.048 C 
ENDROOT
BRANCH   8  13
HETATM   13  C11 UNK     1      18.280   5.985  31.905  1.00  0.00     0.237 C 
HETATM   14 Cl1  UNK     1      18.691   6.232  30.191  1.00  0.00    -0.076 Cl
HETATM   15 Cl2  UNK     1      16.652   6.629  32.231  1.00  0.00    -0.076 Cl
HETATM   16 Cl3  UNK     1      19.463   6.830  32.933  1.00  0.00    -0.076 Cl
ENDBRANCH   8  13
TORSDOF 1
ENDMDL
MODEL 8
REMARK VINA RESULT:      -6.5     24.454     26.279
REMARK  1 active torsions:
REMARK  status: ('A' for Active; 'I' for Inactive)
REMARK    1  A    between atoms: C11_16  and  C6_11 
ROOT
HETATM    1  O1  UNK     1      14.117   7.072   8.753  1.00  0.00    -0.309 OA
HETATM    2  O2  UNK     1      11.020   9.142  10.405  1.00  0.00    -0.287 OA
HETATM    3  C1  UNK     1      11.749   7.615   8.754  1.00  0.00     0.048 A 
HETATM    4  C2  UNK     1      12.853   6.937   8.238  1.00  0.00     0.090 A 
HETATM    5  C3  UNK     1      10.483   7.439   8.190  1.00  0.00     0.025 A 
HETATM    6  C4  UNK     1      10.330   6.576   7.103  1.00  0.00    -0.061 A 
HETATM    7  C5  UNK     1      11.942   8.516   9.900  1.00  0.00     0.187 A 
HETATM    8  C6  UNK     1      14.302   7.922   9.832  1.00  0.00     0.111 A 
HETATM    9  C7  UNK     1      12.696   6.075   7.151  1.00  0.00     0.039 A 
HETATM   10  C8  UNK     1      11.434   5.896   6.585  1.00  0.00     0.009 A 
HETATM   11  C9  UNK     1      13.322   8.627  10.414  1.00  0.00     0.093 A 
HETATM   12  C10 UNK     1       8.983   6.382   6.492  1.00  0.00     0.048 C 
ENDROOT
BRANCH   8  13
HETATM   13  C11 UNK     1      15.721   7.987  10.304  1.00  0.00     0.237 C 
HETATM   14 Cl1  UNK     1      16.545   6.476   9.854  1.00  0.00    -0.076 Cl
HETATM   15 Cl2  UNK     1      16.545   9.370   9.543  1.00  0.00    -0.076 Cl
HETATM   16 Cl3  UNK     1      15.753   8.185  12.074  1.00  0.00    -0.076 Cl
ENDBRANCH   8  13
TORSDOF 1
ENDMDL
MODEL 9
REMARK VINA RESULT:      -6.4      6.927      7.668
REMARK  1 active torsions:
REMARK  status: ('A' for Active; 'I' for Inactive)
REMARK    1  A    between atoms: C11_16  and  C6_11 
ROOT
HETATM    1  O1  UNK     1      16.941   7.043  31.828  1.00  0.00    -0.309 OA
HETATM    2  O2  UNK     1      19.299   7.697  35.086  1.00  0.00    -0.287 OA
HETATM    3  C1  UNK     1      19.136   6.914  32.861  1.00  0.00     0.048 A 
HETATM    4  C2  UNK     1      18.273   6.718  31.784  1.00  0.00     0.090 A 
HETATM    5  C3  UNK     1      20.484   6.564  32.761  1.00  0.00     0.025 A 
HETATM    6  C4  UNK     1      20.964   6.015  31.571  1.00  0.00    -0.061 A 
HETATM    7  C5  UNK     1      18.600   7.496  34.102  1.00  0.00     0.187 A 
HETATM    8  C6  UNK     1      16.434   7.590  32.996  1.00  0.00     0.111 A 
HETATM    9  C7  UNK     1      18.756   6.169  30.596  1.00  0.00     0.039 A 
HETATM   10  C8  UNK     1      20.102   5.818  30.491  1.00  0.00     0.009 A 
HETATM   11  C9  UNK     1      17.162   7.826  34.097  1.00  0.00     0.093 A 
HETATM   12  C10 UNK     1      22.402   5.637  31.453  1.00  0.00     0.048 C 
ENDROOT
BRANCH   8  13
HETATM   13  C11 UNK     1      14.972   7.903  32.924  1.00  0.00     0.237 C 
HETATM   14 Cl1  UNK     1      14.768   9.666  32.808  1.00  0.00    -0.076 Cl
HETATM   15 Cl2  UNK     1      14.261   7.121  31.490  1.00  0.00    -0.076 Cl
HETATM   16 Cl3  UNK     1      14.158   7.299  34.388  1.00  0.00    -0.076 Cl
ENDBRANCH   8  13
TORSDOF 1
ENDMDL
MODEL 10
REMARK VINA RESULT:      -6.4     13.446     14.686
REMARK  1 active torsions:
REMARK  status: ('A' for Active; 'I' for Inactive)
REMARK    1  A    between atoms: C11_16  and  C6_11 
ROOT
HETATM    1  O1  UNK     1      29.118  -8.802  38.140  1.00  0.00    -0.309 OA
HETATM    2  O2  UNK     1      29.149  -4.911  39.349  1.00  0.00    -0.287 OA
HETATM    3  C1  UNK     1      30.357  -6.737  38.456  1.00  0.00     0.048 A 
HETATM    4  C2  UNK     1      30.275  -8.070  38.059  1.00  0.00     0.090 A 
HETATM    5  C3  UNK     1      31.563  -6.040  38.352  1.00  0.00     0.025 A 
HETATM    6  C4  UNK     1      32.689  -6.690  37.846  1.00  0.00    -0.061 A 
HETATM    7  C5  UNK     1      29.152  -6.079  38.984  1.00  0.00     0.187 A 
HETATM    8  C6  UNK     1      27.981  -8.185  38.639  1.00  0.00     0.111 A 
HETATM    9  C7  UNK     1      31.404  -8.718  37.555  1.00  0.00     0.039 A 
HETATM   10  C8  UNK     1      32.610  -8.025  37.448  1.00  0.00     0.009 A 
HETATM   11  C9  UNK     1      27.934  -6.910  39.051  1.00  0.00     0.093 A 
HETATM   12  C10 UNK     1      33.983  -5.955  37.731  1.00  0.00     0.048 C 
ENDROOT
BRANCH   8  13
HETATM   13  C11 UNK     1      26.783  -9.082  38.678  1.00  0.00     0.237 C 
HETATM   14 Cl1  UNK     1      26.688  -9.979  37.145  1.00  0.00    -0.076 Cl
HETATM   15 Cl2  UNK     1      26.933 -10.226  40.035  1.00  0.00    -0.076 Cl
HETATM   16 Cl3  UNK     1      25.311  -8.103  38.894  1.00  0.00    -0.076 Cl
ENDBRANCH   8  13
TORSDOF 1
ENDMDL
