MODEL 1
REMARK VINA RESULT:      -8.6      0.000      0.000
REMARK  1 active torsions:
REMARK  status: ('A' for Active; 'I' for Inactive)
REMARK       I    between atoms: C5_9  and  N1_4 
REMARK    1  A    between atoms: C5_9  and  C8_12 
ROOT
HETATM    1  O1  UNK     1      19.418  -1.462  34.675  1.00  0.00    -0.274 OA
HETATM    2  O3  UNK     1      20.659  -3.333  34.251  1.00  0.00    -0.259 OA
HETATM    3  C8  UNK     1      19.853  -3.072  36.463  1.00  0.00     0.108 A 
HETATM    4  C11 UNK     1      19.156  -2.333  37.335  1.00  0.00     0.037 A 
HETATM    5  C12 UNK     1      18.538  -1.087  36.910  1.00  0.00    -0.001 A 
HETATM    6  C13 UNK     1      20.021  -2.659  35.052  1.00  0.00     0.304 A 
HETATM    7  C14 UNK     1      18.685  -0.679  35.588  1.00  0.00     0.089 A 
HETATM    8  C15 UNK     1      17.802  -0.284  37.785  1.00  0.00     0.014 A 
HETATM    9  C16 UNK     1      18.118   0.504  35.117  1.00  0.00     0.038 A 
HETATM   10  C17 UNK     1      17.228   0.906  37.328  1.00  0.00     0.001 A 
HETATM   11  C18 UNK     1      17.386   1.299  35.997  1.00  0.00     0.003 A 
ENDROOT
BRANCH   3  12
HETATM   12  C5  UNK     1      20.442  -4.322  36.991  1.00  0.00     0.264 C 
HETATM   13  O2  UNK     1      21.609  -4.283  37.372  1.00  0.00    -0.267 OA
HETATM   14  N1  UNK     1      19.606  -5.428  37.003  1.00  0.00    -0.313 N 
HETATM   15  C1  UNK     1      18.200  -5.480  36.544  1.00  0.00     0.137 A 
HETATM   16  C4  UNK     1      19.964  -6.717  37.462  1.00  0.00     0.043 A 
HETATM   17  C2  UNK     1      17.689  -6.910  36.751  1.00  0.00     0.061 A 
HETATM   18  C3  UNK     1      18.884  -7.590  37.331  1.00  0.00    -0.030 A 
HETATM   19  C6  UNK     1      18.980  -8.920  37.714  1.00  0.00     0.009 A 
HETATM   20  C9  UNK     1      20.189  -9.375  38.238  1.00  0.00     0.001 A 
HETATM   21  C10 UNK     1      21.276  -8.501  38.372  1.00  0.00     0.002 A 
HETATM   22  C7  UNK     1      21.171  -7.161  37.984  1.00  0.00     0.030 A 
ENDBRANCH   3  12
TORSDOF 1
ENDMDL
MODEL 2
REMARK VINA RESULT:      -8.4     11.991     14.004
REMARK  1 active torsions:
REMARK  status: ('A' for Active; 'I' for Inactive)
REMARK       I    between atoms: C5_9  and  N1_4 
REMARK    1  A    between atoms: C5_9  and  C8_12 
ROOT
HETATM    1  O1  UNK     1      14.056   9.641  35.084  1.00  0.00    -0.274 OA
HETATM    2  O3  UNK     1      14.060   7.753  33.797  1.00  0.00    -0.259 OA
HETATM    3  C8  UNK     1      15.828   9.289  33.437  1.00  0.00     0.108 A 
HETATM    4  C11 UNK     1      16.405  10.451  33.768  1.00  0.00     0.037 A 
HETATM    5  C12 UNK     1      15.820  11.290  34.803  1.00  0.00    -0.001 A 
HETATM    6  C13 UNK     1      14.591   8.817  34.099  1.00  0.00     0.304 A 
HETATM    7  C14 UNK     1      14.657  10.865  35.437  1.00  0.00     0.089 A 
HETATM    8  C15 UNK     1      16.387  12.509  35.182  1.00  0.00     0.014 A 
HETATM    9  C16 UNK     1      14.047  11.621  36.436  1.00  0.00     0.038 A 
HETATM   10  C17 UNK     1      15.787  13.280  36.182  1.00  0.00     0.001 A 
HETATM   11  C18 UNK     1      14.619  12.836  36.807  1.00  0.00     0.003 A 
ENDROOT
BRANCH   3  12
HETATM   12  C5  UNK     1      16.498   8.508  32.374  1.00  0.00     0.264 C 
HETATM   13  O2  UNK     1      15.965   8.480  31.268  1.00  0.00    -0.267 OA
HETATM   14  N1  UNK     1      17.677   7.877  32.738  1.00  0.00    -0.313 N 
HETATM   15  C1  UNK     1      18.324   7.907  34.070  1.00  0.00     0.137 A 
HETATM   16  C4  UNK     1      18.475   7.082  31.883  1.00  0.00     0.043 A 
HETATM   17  C2  UNK     1      19.603   7.066  33.992  1.00  0.00     0.061 A 
HETATM   18  C3  UNK     1      19.589   6.602  32.574  1.00  0.00    -0.030 A 
HETATM   19  C6  UNK     1      20.530   5.794  31.954  1.00  0.00     0.009 A 
HETATM   20  C9  UNK     1      20.343   5.465  30.612  1.00  0.00     0.001 A 
HETATM   21  C10 UNK     1      19.227   5.945  29.914  1.00  0.00     0.002 A 
HETATM   22  C7  UNK     1      18.282   6.759  30.547  1.00  0.00     0.030 A 
ENDBRANCH   3  12
TORSDOF 1
ENDMDL
MODEL 3
REMARK VINA RESULT:      -8.3     18.965     20.703
REMARK  1 active torsions:
REMARK  status: ('A' for Active; 'I' for Inactive)
REMARK       I    between atoms: C5_9  and  N1_4 
REMARK    1  A    between atoms: C5_9  and  C8_12 
ROOT
HETATM    1  O1  UNK     1      19.423   1.302  16.399  1.00  0.00    -0.274 OA
HETATM    2  O3  UNK     1      19.496   0.224  14.386  1.00  0.00    -0.259 OA
HETATM    3  C8  UNK     1      18.840  -1.069  16.259  1.00  0.00     0.108 A 
HETATM    4  C11 UNK     1      18.600  -1.116  17.575  1.00  0.00     0.037 A 
HETATM    5  C12 UNK     1      18.764   0.077  18.393  1.00  0.00    -0.001 A 
HETATM    6  C13 UNK     1      19.275   0.178  15.591  1.00  0.00     0.304 A 
HETATM    7  C14 UNK     1      19.174   1.259  17.785  1.00  0.00     0.089 A 
HETATM    8  C15 UNK     1      18.525   0.075  19.769  1.00  0.00     0.014 A 
HETATM    9  C16 UNK     1      19.350   2.435  18.511  1.00  0.00     0.038 A 
HETATM   10  C17 UNK     1      18.698   1.247  20.511  1.00  0.00     0.001 A 
HETATM   11  C18 UNK     1      19.109   2.424  19.883  1.00  0.00     0.003 A 
ENDROOT
BRANCH   3  12
HETATM   12  C5  UNK     1      18.644  -2.332  15.515  1.00  0.00     0.264 C 
HETATM   13  O2  UNK     1      17.594  -2.467  14.891  1.00  0.00    -0.267 OA
HETATM   14  N1  UNK     1      19.679  -3.250  15.595  1.00  0.00    -0.313 N 
HETATM   15  C1  UNK     1      20.946  -3.092  16.345  1.00  0.00     0.137 A 
HETATM   16  C4  UNK     1      19.700  -4.515  14.965  1.00  0.00     0.043 A 
HETATM   17  C2  UNK     1      21.778  -4.362  16.138  1.00  0.00     0.061 A 
HETATM   18  C3  UNK     1      20.892  -5.178  15.257  1.00  0.00    -0.030 A 
HETATM   19  C6  UNK     1      21.157  -6.444  14.755  1.00  0.00     0.009 A 
HETATM   20  C9  UNK     1      20.199  -7.050  13.943  1.00  0.00     0.001 A 
HETATM   21  C10 UNK     1      19.000  -6.387  13.646  1.00  0.00     0.002 A 
HETATM   22  C7  UNK     1      18.742  -5.111  14.157  1.00  0.00     0.030 A 
ENDBRANCH   3  12
TORSDOF 1
ENDMDL
MODEL 4
REMARK VINA RESULT:      -8.2      1.656      2.746
REMARK  1 active torsions:
REMARK  status: ('A' for Active; 'I' for Inactive)
REMARK       I    between atoms: C5_9  and  N1_4 
REMARK    1  A    between atoms: C5_9  and  C8_12 
ROOT
HETATM    1  O1  UNK     1      18.629  -1.263  35.484  1.00  0.00    -0.274 OA
HETATM    2  O3  UNK     1      18.611  -2.110  37.606  1.00  0.00    -0.259 OA
HETATM    3  C8  UNK     1      20.003  -3.209  36.036  1.00  0.00     0.108 A 
HETATM    4  C11 UNK     1      20.465  -3.274  34.781  1.00  0.00     0.037 A 
HETATM    5  C12 UNK     1      20.020  -2.310  33.786  1.00  0.00    -0.001 A 
HETATM    6  C13 UNK     1      19.036  -2.171  36.458  1.00  0.00     0.304 A 
HETATM    7  C14 UNK     1      19.110  -1.326  34.161  1.00  0.00     0.089 A 
HETATM    8  C15 UNK     1      20.474  -2.338  32.465  1.00  0.00     0.014 A 
HETATM    9  C16 UNK     1      18.644  -0.374  33.257  1.00  0.00     0.038 A 
HETATM   10  C17 UNK     1      20.015  -1.390  31.547  1.00  0.00     0.001 A 
HETATM   11  C18 UNK     1      19.102  -0.410  31.942  1.00  0.00     0.003 A 
ENDROOT
BRANCH   3  12
HETATM   12  C5  UNK     1      20.516  -4.233  36.973  1.00  0.00     0.264 C 
HETATM   13  O2  UNK     1      21.568  -3.990  37.559  1.00  0.00    -0.267 OA
HETATM   14  N1  UNK     1      19.746  -5.378  37.100  1.00  0.00    -0.313 N 
HETATM   15  C1  UNK     1      18.477  -5.675  36.396  1.00  0.00     0.137 A 
HETATM   16  C4  UNK     1      20.049  -6.477  37.936  1.00  0.00     0.043 A 
HETATM   17  C2  UNK     1      17.995  -7.055  36.855  1.00  0.00     0.061 A 
HETATM   18  C3  UNK     1      19.062  -7.457  37.818  1.00  0.00    -0.030 A 
HETATM   19  C6  UNK     1      19.129  -8.640  38.540  1.00  0.00     0.009 A 
HETATM   20  C9  UNK     1      20.213  -8.836  39.395  1.00  0.00     0.001 A 
HETATM   21  C10 UNK     1      21.206  -7.854  39.516  1.00  0.00     0.002 A 
HETATM   22  C7  UNK     1      21.130  -6.665  38.785  1.00  0.00     0.030 A 
ENDBRANCH   3  12
TORSDOF 1
ENDMDL
MODEL 5
REMARK VINA RESULT:      -8.2     29.640     31.663
REMARK  1 active torsions:
REMARK  status: ('A' for Active; 'I' for Inactive)
REMARK       I    between atoms: C5_9  and  N1_4 
REMARK    1  A    between atoms: C5_9  and  C8_12 
ROOT
HETATM    1  O1  UNK     1      16.023   8.407  10.191  1.00  0.00    -0.274 OA
HETATM    2  O3  UNK     1      14.371   6.988  10.885  1.00  0.00    -0.259 OA
HETATM    3  C8  UNK     1      13.712   8.781   9.484  1.00  0.00     0.108 A 
HETATM    4  C11 UNK     1      14.072   9.863   8.784  1.00  0.00     0.037 A 
HETATM    5  C12 UNK     1      15.465  10.284   8.750  1.00  0.00    -0.001 A 
HETATM    6  C13 UNK     1      14.699   7.980  10.242  1.00  0.00     0.304 A 
HETATM    7  C14 UNK     1      16.409   9.545   9.457  1.00  0.00     0.089 A 
HETATM    8  C15 UNK     1      15.887  11.406   8.033  1.00  0.00     0.014 A 
HETATM    9  C16 UNK     1      17.757   9.894   9.466  1.00  0.00     0.038 A 
HETATM   10  C17 UNK     1      17.237  11.769   8.033  1.00  0.00     0.001 A 
HETATM   11  C18 UNK     1      18.170  11.015   8.747  1.00  0.00     0.003 A 
ENDROOT
BRANCH   3  12
HETATM   12  C5  UNK     1      12.274   8.435   9.456  1.00  0.00     0.264 C 
HETATM   13  O2  UNK     1      11.573   8.841  10.380  1.00  0.00    -0.267 OA
HETATM   14  N1  UNK     1      11.855   7.676   8.375  1.00  0.00    -0.313 N 
HETATM   15  C1  UNK     1      12.695   7.184   7.259  1.00  0.00     0.137 A 
HETATM   16  C4  UNK     1      10.530   7.235   8.151  1.00  0.00     0.043 A 
HETATM   17  C2  UNK     1      11.794   6.392   6.304  1.00  0.00     0.061 A 
HETATM   18  C3  UNK     1      10.463   6.495   6.970  1.00  0.00    -0.030 A 
HETATM   19  C6  UNK     1       9.267   5.949   6.527  1.00  0.00     0.009 A 
HETATM   20  C9  UNK     1       8.120   6.154   7.291  1.00  0.00     0.001 A 
HETATM   21  C10 UNK     1       8.182   6.896   8.478  1.00  0.00     0.002 A 
HETATM   22  C7  UNK     1       9.392   7.443   8.917  1.00  0.00     0.030 A 
ENDBRANCH   3  12
TORSDOF 1
ENDMDL
MODEL 6
REMARK VINA RESULT:      -8.2      7.855     11.526
REMARK  1 active torsions:
REMARK  status: ('A' for Active; 'I' for Inactive)
REMARK       I    between atoms: C5_9  and  N1_4 
REMARK    1  A    between atoms: C5_9  and  C8_12 
ROOT
HETATM    1  O1  UNK     1      19.080   2.059  28.800  1.00  0.00    -0.274 OA
HETATM    2  O3  UNK     1      18.353   4.224  28.867  1.00  0.00    -0.259 OA
HETATM    3  C8  UNK     1      18.559   3.108  30.947  1.00  0.00     0.108 A 
HETATM    4  C11 UNK     1      18.879   1.986  31.604  1.00  0.00     0.037 A 
HETATM    5  C12 UNK     1      19.329   0.812  30.872  1.00  0.00    -0.001 A 
HETATM    6  C13 UNK     1      18.646   3.198  29.472  1.00  0.00     0.304 A 
HETATM    7  C14 UNK     1      19.418   0.875  29.485  1.00  0.00     0.089 A 
HETATM    8  C15 UNK     1      19.674  -0.379  31.516  1.00  0.00     0.014 A 
HETATM    9  C16 UNK     1      19.841  -0.214  28.726  1.00  0.00     0.038 A 
HETATM   10  C17 UNK     1      20.100  -1.481  30.767  1.00  0.00     0.001 A 
HETATM   11  C18 UNK     1      20.183  -1.398  29.376  1.00  0.00     0.003 A 
ENDROOT
BRANCH   3  12
HETATM   12  C5  UNK     1      18.114   4.247  31.779  1.00  0.00     0.264 C 
HETATM   13  O2  UNK     1      16.923   4.301  32.079  1.00  0.00    -0.267 OA
HETATM   14  N1  UNK     1      19.098   5.153  32.143  1.00  0.00    -0.313 N 
HETATM   15  C1  UNK     1      20.533   5.093  31.784  1.00  0.00     0.137 A 
HETATM   16  C4  UNK     1      18.892   6.308  32.931  1.00  0.00     0.043 A 
HETATM   17  C2  UNK     1      21.227   6.307  32.411  1.00  0.00     0.061 A 
HETATM   18  C3  UNK     1      20.097   6.992  33.103  1.00  0.00    -0.030 A 
HETATM   19  C6  UNK     1      20.162   8.164  33.842  1.00  0.00     0.009 A 
HETATM   20  C9  UNK     1      18.990   8.654  34.416  1.00  0.00     0.001 A 
HETATM   21  C10 UNK     1      17.778   7.970  34.246  1.00  0.00     0.002 A 
HETATM   22  C7  UNK     1      17.722   6.789  33.500  1.00  0.00     0.030 A 
ENDBRANCH   3  12
TORSDOF 1
ENDMDL
MODEL 7
REMARK VINA RESULT:      -8.1      1.190      2.012
REMARK  1 active torsions:
REMARK  status: ('A' for Active; 'I' for Inactive)
REMARK       I    between atoms: C5_9  and  N1_4 
REMARK    1  A    between atoms: C5_9  and  C8_12 
ROOT
HETATM    1  O1  UNK     1      19.806  -1.427  35.115  1.00  0.00    -0.274 OA
HETATM    2  O3  UNK     1      20.488  -3.546  34.596  1.00  0.00    -0.259 OA
HETATM    3  C8  UNK     1      19.053  -3.320  36.468  1.00  0.00     0.108 A 
HETATM    4  C11 UNK     1      18.346  -2.507  37.262  1.00  0.00     0.037 A 
HETATM    5  C12 UNK     1      18.332  -1.073  37.016  1.00  0.00    -0.001 A 
HETATM    6  C13 UNK     1      19.838  -2.803  35.325  1.00  0.00     0.304 A 
HETATM    7  C14 UNK     1      19.065  -0.566  35.948  1.00  0.00     0.089 A 
HETATM    8  C15 UNK     1      17.609  -0.187  37.818  1.00  0.00     0.014 A 
HETATM    9  C16 UNK     1      19.094   0.797  35.659  1.00  0.00     0.038 A 
HETATM   10  C17 UNK     1      17.629   1.183  37.541  1.00  0.00     0.001 A 
HETATM   11  C18 UNK     1      18.370   1.673  36.464  1.00  0.00     0.003 A 
ENDROOT
BRANCH   3  12
HETATM   12  C5  UNK     1      19.003  -4.761  36.798  1.00  0.00     0.264 C 
HETATM   13  O2  UNK     1      17.992  -5.383  36.477  1.00  0.00    -0.267 OA
HETATM   14  N1  UNK     1      20.116  -5.274  37.445  1.00  0.00    -0.313 N 
HETATM   15  C1  UNK     1      21.335  -4.530  37.834  1.00  0.00     0.137 A 
HETATM   16  C4  UNK     1      20.277  -6.619  37.852  1.00  0.00     0.043 A 
HETATM   17  C2  UNK     1      22.289  -5.512  38.522  1.00  0.00     0.061 A 
HETATM   18  C3  UNK     1      21.515  -6.787  38.473  1.00  0.00    -0.030 A 
HETATM   19  C6  UNK     1      21.914  -8.022  38.964  1.00  0.00     0.009 A 
HETATM   20  C9  UNK     1      21.046  -9.104  38.825  1.00  0.00     0.001 A 
HETATM   21  C10 UNK     1      19.802  -8.939  38.201  1.00  0.00     0.002 A 
HETATM   22  C7  UNK     1      19.408  -7.691  37.709  1.00  0.00     0.030 A 
ENDBRANCH   3  12
TORSDOF 1
ENDMDL
MODEL 8
REMARK VINA RESULT:      -8.0      1.740      7.043
REMARK  1 active torsions:
REMARK  status: ('A' for Active; 'I' for Inactive)
REMARK       I    between atoms: C5_9  and  N1_4 
REMARK    1  A    between atoms: C5_9  and  C8_12 
ROOT
HETATM    1  O1  UNK     1      19.394  -6.750  37.839  1.00  0.00    -0.274 OA
HETATM    2  O3  UNK     1      17.917  -5.706  36.443  1.00  0.00    -0.259 OA
HETATM    3  C8  UNK     1      20.031  -4.673  36.717  1.00  0.00     0.108 A 
HETATM    4  C11 UNK     1      21.239  -4.699  37.294  1.00  0.00     0.037 A 
HETATM    5  C12 UNK     1      21.595  -5.781  38.198  1.00  0.00    -0.001 A 
HETATM    6  C13 UNK     1      19.024  -5.727  36.970  1.00  0.00     0.304 A 
HETATM    7  C14 UNK     1      20.663  -6.783  38.451  1.00  0.00     0.089 A 
HETATM    8  C15 UNK     1      22.843  -5.850  38.823  1.00  0.00     0.014 A 
HETATM    9  C16 UNK     1      20.941  -7.846  39.307  1.00  0.00     0.038 A 
HETATM   10  C17 UNK     1      23.137  -6.911  39.684  1.00  0.00     0.001 A 
HETATM   11  C18 UNK     1      22.188  -7.906  39.925  1.00  0.00     0.003 A 
ENDROOT
BRANCH   3  12
HETATM   12  C5  UNK     1      19.764  -3.532  35.813  1.00  0.00     0.264 C 
HETATM   13  O2  UNK     1      20.149  -3.627  34.650  1.00  0.00    -0.267 OA
HETATM   14  N1  UNK     1      19.096  -2.457  36.376  1.00  0.00    -0.313 N 
HETATM   15  C1  UNK     1      18.630  -2.338  37.777  1.00  0.00     0.137 A 
HETATM   16  C4  UNK     1      18.742  -1.268  35.696  1.00  0.00     0.043 A 
HETATM   17  C2  UNK     1      17.948  -0.975  37.933  1.00  0.00     0.061 A 
HETATM   18  C3  UNK     1      18.081  -0.398  36.564  1.00  0.00    -0.030 A 
HETATM   19  C6  UNK     1      17.628   0.842  36.136  1.00  0.00     0.009 A 
HETATM   20  C9  UNK     1      17.848   1.207  34.809  1.00  0.00     0.001 A 
HETATM   21  C10 UNK     1      18.512   0.336  33.934  1.00  0.00     0.002 A 
HETATM   22  C7  UNK     1      18.964  -0.912  34.374  1.00  0.00     0.030 A 
ENDBRANCH   3  12
TORSDOF 1
ENDMDL
MODEL 9
REMARK VINA RESULT:      -8.0      7.845     12.134
REMARK  1 active torsions:
REMARK  status: ('A' for Active; 'I' for Inactive)
REMARK       I    between atoms: C5_9  and  N1_4 
REMARK    1  A    between atoms: C5_9  and  C8_12 
ROOT
HETATM    1  O1  UNK     1      18.777   1.795  32.987  1.00  0.00    -0.274 OA
HETATM    2  O3  UNK     1      18.135   3.341  34.542  1.00  0.00    -0.259 OA
HETATM    3  C8  UNK     1      18.004   4.001  32.271  1.00  0.00     0.108 A 
HETATM    4  C11 UNK     1      18.185   3.678  30.984  1.00  0.00     0.037 A 
HETATM    5  C12 UNK     1      18.685   2.360  30.624  1.00  0.00    -0.001 A 
HETATM    6  C13 UNK     1      18.300   3.047  33.363  1.00  0.00     0.304 A 
HETATM    7  C14 UNK     1      18.971   1.448  31.635  1.00  0.00     0.089 A 
HETATM    8  C15 UNK     1      18.890   1.979  29.296  1.00  0.00     0.014 A 
HETATM    9  C16 UNK     1      19.452   0.171  31.357  1.00  0.00     0.038 A 
HETATM   10  C17 UNK     1      19.373   0.701  29.001  1.00  0.00     0.001 A 
HETATM   11  C18 UNK     1      19.653  -0.201  30.030  1.00  0.00     0.003 A 
ENDROOT
BRANCH   3  12
HETATM   12  C5  UNK     1      17.491   5.364  32.535  1.00  0.00     0.264 C 
HETATM   13  O2  UNK     1      16.297   5.570  32.333  1.00  0.00    -0.267 OA
HETATM   14  N1  UNK     1      18.422   6.283  32.992  1.00  0.00    -0.313 N 
HETATM   15  C1  UNK     1      19.862   6.039  33.237  1.00  0.00     0.137 A 
HETATM   16  C4  UNK     1      18.148   7.635  33.304  1.00  0.00     0.043 A 
HETATM   17  C2  UNK     1      20.484   7.349  33.734  1.00  0.00     0.061 A 
HETATM   18  C3  UNK     1      19.313   8.273  33.734  1.00  0.00    -0.030 A 
HETATM   19  C6  UNK     1      19.309   9.611  34.102  1.00  0.00     0.009 A 
HETATM   20  C9  UNK     1      18.108  10.315  34.034  1.00  0.00     0.001 A 
HETATM   21  C10 UNK     1      16.936   9.678  33.603  1.00  0.00     0.002 A 
HETATM   22  C7  UNK     1      16.949   8.329  33.235  1.00  0.00     0.030 A 
ENDBRANCH   3  12
TORSDOF 1
ENDMDL
MODEL 10
REMARK VINA RESULT:      -7.9     12.041     15.095
REMARK  1 active torsions:
REMARK  status: ('A' for Active; 'I' for Inactive)
REMARK       I    between atoms: C5_9  and  N1_4 
REMARK    1  A    between atoms: C5_9  and  C8_12 
ROOT
HETATM    1  O1  UNK     1      17.432   7.172  30.798  1.00  0.00    -0.274 OA
HETATM    2  O3  UNK     1      15.400   8.179  31.077  1.00  0.00    -0.259 OA
HETATM    3  C8  UNK     1      16.830   8.130  32.965  1.00  0.00     0.108 A 
HETATM    4  C11 UNK     1      18.007   7.762  33.486  1.00  0.00     0.037 A 
HETATM    5  C12 UNK     1      18.983   7.061  32.667  1.00  0.00    -0.001 A 
HETATM    6  C13 UNK     1      16.478   7.844  31.557  1.00  0.00     0.304 A 
HETATM    7  C14 UNK     1      18.672   6.781  31.340  1.00  0.00     0.089 A 
HETATM    8  C15 UNK     1      20.224   6.658  33.167  1.00  0.00     0.014 A 
HETATM    9  C16 UNK     1      19.563   6.113  30.502  1.00  0.00     0.038 A 
HETATM   10  C17 UNK     1      21.128   5.987  32.339  1.00  0.00     0.001 A 
HETATM   11  C18 UNK     1      20.798   5.715  31.010  1.00  0.00     0.003 A 
ENDROOT
BRANCH   3  12
HETATM   12  C5  UNK     1      15.905   8.837  33.878  1.00  0.00     0.264 C 
HETATM   13  O2  UNK     1      14.889   8.243  34.231  1.00  0.00    -0.267 OA
HETATM   14  N1  UNK     1      16.282  10.118  34.249  1.00  0.00    -0.313 N 
HETATM   15  C1  UNK     1      17.504  10.840  33.827  1.00  0.00     0.137 A 
HETATM   16  C4  UNK     1      15.548  10.968  35.109  1.00  0.00     0.043 A 
HETATM   17  C2  UNK     1      17.490  12.221  34.490  1.00  0.00     0.061 A 
HETATM   18  C3  UNK     1      16.216  12.183  35.267  1.00  0.00    -0.030 A 
HETATM   19  C6  UNK     1      15.700  13.192  36.067  1.00  0.00     0.009 A 
HETATM   20  C9  UNK     1      14.487  12.969  36.717  1.00  0.00     0.001 A 
HETATM   21  C10 UNK     1      13.813  11.751  36.561  1.00  0.00     0.002 A 
HETATM   22  C7  UNK     1      14.341  10.739  35.753  1.00  0.00     0.030 A 
ENDBRANCH   3  12
TORSDOF 1
ENDMDL
