MODEL 1
REMARK VINA RESULT:     -10.4      0.000      0.000
REMARK  3 active torsions:
REMARK  status: ('A' for Active; 'I' for Inactive)
REMARK       I    between atoms: C11_18  and  N1_6 
REMARK    1  A    between atoms: C9_16  and  N1_6 
REMARK       I    between atoms: C10_17  and  N2_7 
REMARK    2  A    between atoms: C10_17  and  C8_15 
REMARK    3  A    between atoms: C11_18  and  C12_19 
ROOT
HETATM    1  S1  UNK     1      18.669   2.606  30.168  1.00  0.00    -0.075 SA
HETATM    2  C1  UNK     1      20.520  -1.518  31.485  1.00  0.00     0.005 C 
HETATM    3  C2  UNK     1      20.763  -1.747  29.990  1.00  0.00     0.001 C 
HETATM    4  C3  UNK     1      19.107  -1.042  31.826  1.00  0.00     0.041 C 
HETATM    5  C4  UNK     1      20.808  -0.477  29.135  1.00  0.00     0.005 C 
HETATM    6  C5  UNK     1      18.869   0.396  31.478  1.00  0.00    -0.026 A 
HETATM    7  C6  UNK     1      19.456   0.216  28.967  1.00  0.00     0.046 C 
HETATM    8  C7  UNK     1      19.028   0.932  30.213  1.00  0.00    -0.008 A 
HETATM    9  C8  UNK     1      18.445   1.395  32.413  1.00  0.00     0.073 A 
HETATM   10  C9  UNK     1      18.299   2.634  31.834  1.00  0.00     0.093 A 
ENDROOT
BRANCH  10  11
HETATM   11  N1  UNK     1      17.923   3.841  32.359  1.00  0.00    -0.316 N 
HETATM   12  C11 UNK     1      18.571   5.071  32.181  1.00  0.00     0.262 C 
HETATM   13  O3  UNK     1      19.585   5.311  31.537  1.00  0.00    -0.267 OA
HETATM   14  H11 UNK     1      17.073   3.814  32.915  1.00  0.00     0.169 HD
BRANCH  12  15
HETATM   15  C12 UNK     1      17.893   6.175  32.892  1.00  0.00     0.108 A 
HETATM   16  C13 UNK     1      16.673   6.501  32.452  1.00  0.00     0.037 A 
HETATM   17  C14 UNK     1      15.926   7.576  33.087  1.00  0.00    -0.001 A 
HETATM   18  C15 UNK     1      16.502   8.254  34.158  1.00  0.00     0.089 A 
HETATM   19  C17 UNK     1      14.651   7.950  32.660  1.00  0.00     0.014 A 
HETATM   20  O2  UNK     1      17.786   7.905  34.618  1.00  0.00    -0.274 OA
HETATM   21  C18 UNK     1      15.840   9.292  34.810  1.00  0.00     0.038 A 
HETATM   22  C16 UNK     1      18.525   6.882  34.030  1.00  0.00     0.304 A 
HETATM   23  O4  UNK     1      19.643   6.586  34.437  1.00  0.00    -0.259 OA
HETATM   24  C20 UNK     1      14.567   9.659  34.377  1.00  0.00     0.003 A 
HETATM   25  C19 UNK     1      13.974   8.990  33.305  1.00  0.00     0.001 A 
ENDBRANCH  12  15
ENDBRANCH  10  11
BRANCH   9  26
HETATM   26  C10 UNK     1      18.184   1.180  33.816  1.00  0.00     0.252 C 
HETATM   27  O1  UNK     1      19.061   1.279  34.693  1.00  0.00    -0.268 OA
HETATM   28  N2  UNK     1      16.877   0.870  34.183  1.00  0.00    -0.366 N 
HETATM   29  H12 UNK     1      16.131   0.788  33.501  1.00  0.00     0.159 HD
HETATM   30  H13 UNK     1      16.631   0.714  35.155  1.00  0.00     0.159 HD
ENDBRANCH   9  26
TORSDOF 3
ENDMDL
MODEL 2
REMARK VINA RESULT:      -9.9      1.763      8.542
REMARK  3 active torsions:
REMARK  status: ('A' for Active; 'I' for Inactive)
REMARK       I    between atoms: C11_18  and  N1_6 
REMARK    1  A    between atoms: C9_16  and  N1_6 
REMARK       I    between atoms: C10_17  and  N2_7 
REMARK    2  A    between atoms: C10_17  and  C8_15 
REMARK    3  A    between atoms: C11_18  and  C12_19 
ROOT
HETATM    1  S1  UNK     1      15.647   6.569  31.996  1.00  0.00    -0.075 SA
HETATM    2  C1  UNK     1      16.412  10.277  34.795  1.00  0.00     0.005 C 
HETATM    3  C2  UNK     1      15.110  10.832  34.210  1.00  0.00     0.001 C 
HETATM    4  C3  UNK     1      17.395   9.749  33.750  1.00  0.00     0.041 C 
HETATM    5  C4  UNK     1      14.165   9.785  33.612  1.00  0.00     0.005 C 
HETATM    6  C5  UNK     1      16.990   8.428  33.171  1.00  0.00    -0.026 A 
HETATM    7  C6  UNK     1      14.666   9.160  32.309  1.00  0.00     0.046 C 
HETATM    8  C7  UNK     1      15.783   8.187  32.540  1.00  0.00    -0.008 A 
HETATM    9  C8  UNK     1      17.803   7.249  33.197  1.00  0.00     0.073 A 
HETATM   10  C9  UNK     1      17.195   6.172  32.596  1.00  0.00     0.093 A 
ENDROOT
BRANCH  10  11
HETATM   11  N1  UNK     1      17.613   4.882  32.410  1.00  0.00    -0.316 N 
HETATM   12  C11 UNK     1      18.318   4.380  31.308  1.00  0.00     0.262 C 
HETATM   13  O3  UNK     1      18.695   4.979  30.308  1.00  0.00    -0.267 OA
HETATM   14  H11 UNK     1      17.390   4.251  33.175  1.00  0.00     0.169 HD
BRANCH  12  15
HETATM   15  C12 UNK     1      18.610   2.937  31.433  1.00  0.00     0.108 A 
HETATM   16  C13 UNK     1      19.119   2.340  30.349  1.00  0.00     0.037 A 
HETATM   17  C14 UNK     1      19.438   0.921  30.375  1.00  0.00    -0.001 A 
HETATM   18  C15 UNK     1      19.208   0.200  31.543  1.00  0.00     0.089 A 
HETATM   19  C17 UNK     1      19.969   0.257  29.267  1.00  0.00     0.014 A 
HETATM   20  O2  UNK     1      18.674   0.835  32.682  1.00  0.00    -0.274 OA
HETATM   21  C18 UNK     1      19.493  -1.161  31.634  1.00  0.00     0.038 A 
HETATM   22  C16 UNK     1      18.357   2.190  32.687  1.00  0.00     0.304 A 
HETATM   23  O4  UNK     1      17.892   2.734  33.682  1.00  0.00    -0.259 OA
HETATM   24  C20 UNK     1      20.022  -1.815  30.523  1.00  0.00     0.003 A 
HETATM   25  C19 UNK     1      20.260  -1.109  29.343  1.00  0.00     0.001 A 
ENDBRANCH  12  15
ENDBRANCH  10  11
BRANCH   9  26
HETATM   26  C10 UNK     1      19.121   7.147  33.777  1.00  0.00     0.252 C 
HETATM   27  O1  UNK     1      20.144   6.924  33.104  1.00  0.00    -0.268 OA
HETATM   28  N2  UNK     1      19.230   7.333  35.152  1.00  0.00    -0.366 N 
HETATM   29  H12 UNK     1      18.423   7.526  35.736  1.00  0.00     0.159 HD
HETATM   30  H13 UNK     1      20.131   7.280  35.616  1.00  0.00     0.159 HD
ENDBRANCH   9  26
TORSDOF 3
ENDMDL
MODEL 3
REMARK VINA RESULT:      -9.8      6.716     12.534
REMARK  3 active torsions:
REMARK  status: ('A' for Active; 'I' for Inactive)
REMARK       I    between atoms: C11_18  and  N1_6 
REMARK    1  A    between atoms: C9_16  and  N1_6 
REMARK       I    between atoms: C10_17  and  N2_7 
REMARK    2  A    between atoms: C10_17  and  C8_15 
REMARK    3  A    between atoms: C11_18  and  C12_19 
ROOT
HETATM    1  S1  UNK     1      18.497  -2.326  37.630  1.00  0.00    -0.075 SA
HETATM    2  C1  UNK     1      18.731   1.729  35.250  1.00  0.00     0.005 C 
HETATM    3  C2  UNK     1      17.722   2.249  36.279  1.00  0.00     0.001 C 
HETATM    4  C3  UNK     1      18.366   0.375  34.641  1.00  0.00     0.041 C 
HETATM    5  C4  UNK     1      17.686   1.480  37.603  1.00  0.00     0.005 C 
HETATM    6  C5  UNK     1      18.595  -0.774  35.576  1.00  0.00    -0.026 A 
HETATM    7  C6  UNK     1      17.089   0.076  37.497  1.00  0.00     0.046 C 
HETATM    8  C7  UNK     1      18.023  -0.888  36.831  1.00  0.00    -0.008 A 
HETATM    9  C8  UNK     1      19.433  -1.898  35.286  1.00  0.00     0.073 A 
HETATM   10  C9  UNK     1      19.469  -2.812  36.314  1.00  0.00     0.093 A 
ENDROOT
BRANCH  10  11
HETATM   11  N1  UNK     1      20.135  -4.000  36.448  1.00  0.00    -0.316 N 
HETATM   12  C11 UNK     1      19.561  -5.275  36.544  1.00  0.00     0.262 C 
HETATM   13  O3  UNK     1      18.375  -5.580  36.530  1.00  0.00    -0.267 OA
HETATM   14  H11 UNK     1      21.147  -3.919  36.457  1.00  0.00     0.169 HD
BRANCH  12  15
HETATM   15  C12 UNK     1      20.575  -6.342  36.680  1.00  0.00     0.108 A 
HETATM   16  C13 UNK     1      20.445  -7.390  35.858  1.00  0.00     0.037 A 
HETATM   17  C14 UNK     1      21.394  -8.491  35.916  1.00  0.00    -0.001 A 
HETATM   18  C15 UNK     1      22.436  -8.433  36.838  1.00  0.00     0.089 A 
HETATM   19  C17 UNK     1      21.296  -9.604  35.079  1.00  0.00     0.014 A 
HETATM   20  O2  UNK     1      22.569  -7.327  37.699  1.00  0.00    -0.274 OA
HETATM   21  C18 UNK     1      23.378  -9.454  36.944  1.00  0.00     0.038 A 
HETATM   22  C16 UNK     1      21.676  -6.259  37.667  1.00  0.00     0.304 A 
HETATM   23  O4  UNK     1      21.799  -5.300  38.421  1.00  0.00    -0.259 OA
HETATM   24  C20 UNK     1      23.272 -10.561  36.105  1.00  0.00     0.003 A 
HETATM   25  C19 UNK     1      22.234 -10.637  35.174  1.00  0.00     0.001 A 
ENDBRANCH  12  15
ENDBRANCH  10  11
BRANCH   9  26
HETATM   26  C10 UNK     1      20.180  -2.101  34.067  1.00  0.00     0.252 C 
HETATM   27  O1  UNK     1      21.398  -2.354  34.051  1.00  0.00    -0.268 OA
HETATM   28  N2  UNK     1      19.477  -2.027  32.868  1.00  0.00    -0.366 N 
HETATM   29  H12 UNK     1      18.481  -1.833  32.838  1.00  0.00     0.159 HD
HETATM   30  H13 UNK     1      19.946  -2.168  31.979  1.00  0.00     0.159 HD
ENDBRANCH   9  26
TORSDOF 3
ENDMDL
MODEL 4
REMARK VINA RESULT:      -9.8      4.765      9.802
REMARK  3 active torsions:
REMARK  status: ('A' for Active; 'I' for Inactive)
REMARK       I    between atoms: C11_18  and  N1_6 
REMARK    1  A    between atoms: C9_16  and  N1_6 
REMARK       I    between atoms: C10_17  and  N2_7 
REMARK    2  A    between atoms: C10_17  and  C8_15 
REMARK    3  A    between atoms: C11_18  and  C12_19 
ROOT
HETATM    1  S1  UNK     1      20.033  -1.698  31.369  1.00  0.00    -0.075 SA
HETATM    2  C1  UNK     1      17.698   2.227  30.223  1.00  0.00     0.005 C 
HETATM    3  C2  UNK     1      18.354   2.068  28.847  1.00  0.00     0.001 C 
HETATM    4  C3  UNK     1      18.667   2.094  31.399  1.00  0.00     0.041 C 
HETATM    5  C4  UNK     1      18.827   0.651  28.510  1.00  0.00     0.005 C 
HETATM    6  C5  UNK     1      19.084   0.680  31.664  1.00  0.00    -0.026 A 
HETATM    7  C6  UNK     1      20.042   0.186  29.314  1.00  0.00     0.046 C 
HETATM    8  C7  UNK     1      19.689  -0.146  30.732  1.00  0.00    -0.008 A 
HETATM    9  C8  UNK     1      18.910   0.005  32.916  1.00  0.00     0.073 A 
HETATM   10  C9  UNK     1      19.381  -1.287  32.891  1.00  0.00     0.093 A 
ENDROOT
BRANCH  10  11
HETATM   11  N1  UNK     1      19.406  -2.260  33.854  1.00  0.00    -0.316 N 
HETATM   12  C11 UNK     1      20.469  -2.556  34.718  1.00  0.00     0.262 C 
HETATM   13  O3  UNK     1      21.567  -2.017  34.787  1.00  0.00    -0.267 OA
HETATM   14  H11 UNK     1      18.547  -2.795  33.937  1.00  0.00     0.169 HD
BRANCH  12  15
HETATM   15  C12 UNK     1      20.158  -3.672  35.635  1.00  0.00     0.108 A 
HETATM   16  C13 UNK     1      20.095  -4.890  35.085  1.00  0.00     0.037 A 
HETATM   17  C14 UNK     1      19.794  -6.052  35.907  1.00  0.00    -0.001 A 
HETATM   18  C15 UNK     1      19.575  -5.874  37.270  1.00  0.00     0.089 A 
HETATM   19  C17 UNK     1      19.718  -7.341  35.376  1.00  0.00     0.014 A 
HETATM   20  O2  UNK     1      19.643  -4.589  37.844  1.00  0.00    -0.274 OA
HETATM   21  C18 UNK     1      19.282  -6.944  38.113  1.00  0.00     0.038 A 
HETATM   22  C16 UNK     1      19.928  -3.459  37.083  1.00  0.00     0.304 A 
HETATM   23  O4  UNK     1      19.985  -2.344  37.591  1.00  0.00    -0.259 OA
HETATM   24  C20 UNK     1      19.208  -8.227  37.573  1.00  0.00     0.003 A 
HETATM   25  C19 UNK     1      19.426  -8.426  36.209  1.00  0.00     0.001 A 
ENDBRANCH  12  15
ENDBRANCH  10  11
BRANCH   9  26
HETATM   26  C10 UNK     1      18.315   0.572  34.102  1.00  0.00     0.252 C 
HETATM   27  O1  UNK     1      18.965   0.832  35.131  1.00  0.00    -0.268 OA
HETATM   28  N2  UNK     1      16.951   0.850  34.062  1.00  0.00    -0.366 N 
HETATM   29  H12 UNK     1      16.387   0.662  33.240  1.00  0.00     0.159 HD
HETATM   30  H13 UNK     1      16.478   1.256  34.863  1.00  0.00     0.159 HD
ENDBRANCH   9  26
TORSDOF 3
ENDMDL
MODEL 5
REMARK VINA RESULT:      -9.6      7.524     10.331
REMARK  3 active torsions:
REMARK  status: ('A' for Active; 'I' for Inactive)
REMARK       I    between atoms: C11_18  and  N1_6 
REMARK    1  A    between atoms: C9_16  and  N1_6 
REMARK       I    between atoms: C10_17  and  N2_7 
REMARK    2  A    between atoms: C10_17  and  C8_15 
REMARK    3  A    between atoms: C11_18  and  C12_19 
ROOT
HETATM    1  S1  UNK     1      20.117  -6.451  38.779  1.00  0.00    -0.075 SA
HETATM    2  C1  UNK     1      19.193 -10.813  37.266  1.00  0.00     0.005 C 
HETATM    3  C2  UNK     1      19.690 -11.264  38.643  1.00  0.00     0.001 C 
HETATM    4  C3  UNK     1      20.115  -9.817  36.561  1.00  0.00     0.041 C 
HETATM    5  C4  UNK     1      19.639 -10.193  39.737  1.00  0.00     0.005 C 
HETATM    6  C5  UNK     1      20.042  -8.435  37.136  1.00  0.00    -0.026 A 
HETATM    7  C6  UNK     1      20.662  -9.070  39.564  1.00  0.00     0.046 C 
HETATM    8  C7  UNK     1      20.287  -8.126  38.463  1.00  0.00    -0.008 A 
HETATM    9  C8  UNK     1      19.712  -7.262  36.385  1.00  0.00     0.073 A 
HETATM   10  C9  UNK     1      19.716  -6.121  37.153  1.00  0.00     0.093 A 
ENDROOT
BRANCH  10  11
HETATM   11  N1  UNK     1      19.458  -4.814  36.838  1.00  0.00    -0.316 N 
HETATM   12  C11 UNK     1      20.393  -3.775  36.743  1.00  0.00     0.262 C 
HETATM   13  O3  UNK     1      21.604  -3.821  36.921  1.00  0.00    -0.267 OA
HETATM   14  H11 UNK     1      18.482  -4.612  36.640  1.00  0.00     0.169 HD
BRANCH  12  15
HETATM   15  C12 UNK     1      19.769  -2.485  36.381  1.00  0.00     0.108 A 
HETATM   16  C13 UNK     1      19.038  -1.893  37.334  1.00  0.00     0.037 A 
HETATM   17  C14 UNK     1      18.384  -0.621  37.072  1.00  0.00    -0.001 A 
HETATM   18  C15 UNK     1      18.532  -0.032  35.820  1.00  0.00     0.089 A 
HETATM   19  C17 UNK     1      17.612   0.032  38.036  1.00  0.00     0.014 A 
HETATM   20  O2  UNK     1      19.304  -0.659  34.822  1.00  0.00    -0.274 OA
HETATM   21  C18 UNK     1      17.933   1.186  35.506  1.00  0.00     0.038 A 
HETATM   22  C16 UNK     1      19.941  -1.877  35.042  1.00  0.00     0.304 A 
HETATM   23  O4  UNK     1      20.610  -2.415  34.167  1.00  0.00    -0.259 OA
HETATM   24  C20 UNK     1      17.164   1.829  36.473  1.00  0.00     0.003 A 
HETATM   25  C19 UNK     1      17.003   1.254  37.735  1.00  0.00     0.001 A 
ENDBRANCH  12  15
ENDBRANCH  10  11
BRANCH   9  26
HETATM   26  C10 UNK     1      19.400  -7.223  34.976  1.00  0.00     0.252 C 
HETATM   27  O1  UNK     1      18.244  -7.343  34.532  1.00  0.00    -0.268 OA
HETATM   28  N2  UNK     1      20.458  -7.021  34.094  1.00  0.00    -0.366 N 
HETATM   29  H12 UNK     1      21.414  -6.909  34.414  1.00  0.00     0.159 HD
HETATM   30  H13 UNK     1      20.301  -6.977  33.092  1.00  0.00     0.159 HD
ENDBRANCH   9  26
TORSDOF 3
ENDMDL
MODEL 6
REMARK VINA RESULT:      -9.5      1.539      2.077
REMARK  3 active torsions:
REMARK  status: ('A' for Active; 'I' for Inactive)
REMARK       I    between atoms: C11_18  and  N1_6 
REMARK    1  A    between atoms: C9_16  and  N1_6 
REMARK       I    between atoms: C10_17  and  N2_7 
REMARK    2  A    between atoms: C10_17  and  C8_15 
REMARK    3  A    between atoms: C11_18  and  C12_19 
ROOT
HETATM    1  S1  UNK     1      18.713   2.780  29.934  1.00  0.00    -0.075 SA
HETATM    2  C1  UNK     1      20.386  -1.241  31.721  1.00  0.00     0.005 C 
HETATM    3  C2  UNK     1      20.695  -1.615  30.268  1.00  0.00     0.001 C 
HETATM    4  C3  UNK     1      18.972  -0.704  31.944  1.00  0.00     0.041 C 
HETATM    5  C4  UNK     1      20.816  -0.433  29.302  1.00  0.00     0.005 C 
HETATM    6  C5  UNK     1      18.789   0.699  31.452  1.00  0.00    -0.026 A 
HETATM    7  C6  UNK     1      19.493   0.271  29.002  1.00  0.00     0.046 C 
HETATM    8  C7  UNK     1      19.024   1.110  30.152  1.00  0.00    -0.008 A 
HETATM    9  C8  UNK     1      18.347   1.792  32.267  1.00  0.00     0.073 A 
HETATM   10  C9  UNK     1      18.263   2.974  31.569  1.00  0.00     0.093 A 
ENDROOT
BRANCH  10  11
HETATM   11  N1  UNK     1      17.894   4.233  31.959  1.00  0.00    -0.316 N 
HETATM   12  C11 UNK     1      18.690   5.386  31.929  1.00  0.00     0.262 C 
HETATM   13  O3  UNK     1      19.852   5.501  31.558  1.00  0.00    -0.267 OA
HETATM   14  H11 UNK     1      16.935   4.311  32.283  1.00  0.00     0.169 HD
BRANCH  12  15
HETATM   15  C12 UNK     1      17.974   6.580  32.425  1.00  0.00     0.108 A 
HETATM   16  C13 UNK     1      18.736   7.571  32.903  1.00  0.00     0.037 A 
HETATM   17  C14 UNK     1      18.122   8.787  33.414  1.00  0.00    -0.001 A 
HETATM   18  C15 UNK     1      16.735   8.900  33.396  1.00  0.00     0.089 A 
HETATM   19  C17 UNK     1      18.877   9.845  33.923  1.00  0.00     0.014 A 
HETATM   20  O2  UNK     1      15.938   7.854  32.891  1.00  0.00    -0.274 OA
HETATM   21  C18 UNK     1      16.085  10.037  33.871  1.00  0.00     0.038 A 
HETATM   22  C16 UNK     1      16.496   6.679  32.396  1.00  0.00     0.304 A 
HETATM   23  O4  UNK     1      15.795   5.773  31.958  1.00  0.00    -0.259 OA
HETATM   24  C20 UNK     1      16.847  11.088  34.376  1.00  0.00     0.003 A 
HETATM   25  C19 UNK     1      18.239  10.994  34.403  1.00  0.00     0.001 A 
ENDBRANCH  12  15
ENDBRANCH  10  11
BRANCH   9  26
HETATM   26  C10 UNK     1      18.013   1.716  33.669  1.00  0.00     0.252 C 
HETATM   27  O1  UNK     1      16.947   1.230  34.088  1.00  0.00    -0.268 OA
HETATM   28  N2  UNK     1      18.954   2.196  34.577  1.00  0.00    -0.366 N 
HETATM   29  H12 UNK     1      19.839   2.591  34.277  1.00  0.00     0.159 HD
HETATM   30  H13 UNK     1      18.779   2.163  35.576  1.00  0.00     0.159 HD
ENDBRANCH   9  26
TORSDOF 3
ENDMDL
MODEL 7
REMARK VINA RESULT:      -9.5     15.451     18.581
REMARK  3 active torsions:
REMARK  status: ('A' for Active; 'I' for Inactive)
REMARK       I    between atoms: C11_18  and  N1_6 
REMARK    1  A    between atoms: C9_16  and  N1_6 
REMARK       I    between atoms: C10_17  and  N2_7 
REMARK    2  A    between atoms: C10_17  and  C8_15 
REMARK    3  A    between atoms: C11_18  and  C12_19 
ROOT
HETATM    1  S1  UNK     1      20.139  -4.685  15.092  1.00  0.00    -0.075 SA
HETATM    2  C1  UNK     1      18.979  -5.830  10.675  1.00  0.00     0.005 C 
HETATM    3  C2  UNK     1      19.275  -7.272  11.102  1.00  0.00     0.001 C 
HETATM    4  C3  UNK     1      20.063  -4.825  11.065  1.00  0.00     0.041 C 
HETATM    5  C4  UNK     1      19.206  -7.533  12.609  1.00  0.00     0.005 C 
HETATM    6  C5  UNK     1      20.058  -4.487  12.524  1.00  0.00    -0.026 A 
HETATM    7  C6  UNK     1      20.343  -6.898  13.409  1.00  0.00     0.046 C 
HETATM    8  C7  UNK     1      20.183  -5.414  13.543  1.00  0.00    -0.008 A 
HETATM    9  C8  UNK     1      19.926  -3.160  13.047  1.00  0.00     0.073 A 
HETATM   10  C9  UNK     1      19.953  -3.126  14.422  1.00  0.00     0.093 A 
ENDROOT
BRANCH  10  11
HETATM   11  N1  UNK     1      19.856  -2.085  15.305  1.00  0.00    -0.316 N 
HETATM   12  C11 UNK     1      18.703  -1.665  15.982  1.00  0.00     0.262 C 
HETATM   13  O3  UNK     1      17.572  -2.132  15.922  1.00  0.00    -0.267 OA
HETATM   14  H11 UNK     1      20.730  -1.597  15.481  1.00  0.00     0.169 HD
BRANCH  12  15
HETATM   15  C12 UNK     1      18.955  -0.505  16.862  1.00  0.00     0.108 A 
HETATM   16  C13 UNK     1      18.952  -0.750  18.178  1.00  0.00     0.037 A 
HETATM   17  C14 UNK     1      19.191   0.329  19.125  1.00  0.00    -0.001 A 
HETATM   18  C15 UNK     1      19.422   1.612  18.639  1.00  0.00     0.089 A 
HETATM   19  C17 UNK     1      19.196   0.120  20.505  1.00  0.00     0.014 A 
HETATM   20  O2  UNK     1      19.425   1.863  17.253  1.00  0.00    -0.274 OA
HETATM   21  C18 UNK     1      19.657   2.689  19.492  1.00  0.00     0.038 A 
HETATM   22  C16 UNK     1      19.199   0.852  16.323  1.00  0.00     0.304 A 
HETATM   23  O4  UNK     1      19.203   1.080  15.118  1.00  0.00    -0.259 OA
HETATM   24  C20 UNK     1      19.660   2.471  20.868  1.00  0.00     0.003 A 
HETATM   25  C19 UNK     1      19.431   1.190  21.374  1.00  0.00     0.001 A 
ENDBRANCH  12  15
ENDBRANCH  10  11
BRANCH   9  26
HETATM   26  C10 UNK     1      19.777  -1.956  12.264  1.00  0.00     0.252 C 
HETATM   27  O1  UNK     1      18.733  -1.280  12.250  1.00  0.00    -0.268 OA
HETATM   28  N2  UNK     1      20.875  -1.542  11.515  1.00  0.00    -0.366 N 
HETATM   29  H12 UNK     1      21.748  -2.059  11.506  1.00  0.00     0.159 HD
HETATM   30  H13 UNK     1      20.834  -0.700  10.950  1.00  0.00     0.159 HD
ENDBRANCH   9  26
TORSDOF 3
ENDMDL
MODEL 8
REMARK VINA RESULT:      -9.4      6.953     12.421
REMARK  3 active torsions:
REMARK  status: ('A' for Active; 'I' for Inactive)
REMARK       I    between atoms: C11_18  and  N1_6 
REMARK    1  A    between atoms: C9_16  and  N1_6 
REMARK       I    between atoms: C10_17  and  N2_7 
REMARK    2  A    between atoms: C10_17  and  C8_15 
REMARK    3  A    between atoms: C11_18  and  C12_19 
ROOT
HETATM    1  S1  UNK     1      17.534  -2.250  37.332  1.00  0.00    -0.075 SA
HETATM    2  C1  UNK     1      19.247   1.828  35.717  1.00  0.00     0.005 C 
HETATM    3  C2  UNK     1      18.174   2.484  36.592  1.00  0.00     0.001 C 
HETATM    4  C3  UNK     1      18.732   0.685  34.842  1.00  0.00     0.041 C 
HETATM    5  C4  UNK     1      17.653   1.618  37.744  1.00  0.00     0.005 C 
HETATM    6  C5  UNK     1      18.464  -0.573  35.610  1.00  0.00    -0.026 A 
HETATM    7  C6  UNK     1      16.790   0.437  37.300  1.00  0.00     0.046 C 
HETATM    8  C7  UNK     1      17.605  -0.663  36.691  1.00  0.00    -0.008 A 
HETATM    9  C8  UNK     1      19.064  -1.842  35.320  1.00  0.00     0.073 A 
HETATM   10  C9  UNK     1      18.647  -2.834  36.177  1.00  0.00     0.093 A 
ENDROOT
BRANCH  10  11
HETATM   11  N1  UNK     1      18.970  -4.162  36.252  1.00  0.00    -0.316 N 
HETATM   12  C11 UNK     1      20.149  -4.709  36.775  1.00  0.00     0.262 C 
HETATM   13  O3  UNK     1      21.111  -4.124  37.259  1.00  0.00    -0.267 OA
HETATM   14  H11 UNK     1      18.254  -4.791  35.901  1.00  0.00     0.169 HD
BRANCH  12  15
HETATM   15  C12 UNK     1      20.170  -6.185  36.698  1.00  0.00     0.108 A 
HETATM   16  C13 UNK     1      19.926  -6.840  37.840  1.00  0.00     0.037 A 
HETATM   17  C14 UNK     1      19.924  -8.294  37.865  1.00  0.00    -0.001 A 
HETATM   18  C15 UNK     1      20.180  -8.988  36.686  1.00  0.00     0.089 A 
HETATM   19  C17 UNK     1      19.676  -9.018  39.032  1.00  0.00     0.014 A 
HETATM   20  O2  UNK     1      20.435  -8.293  35.487  1.00  0.00    -0.274 OA
HETATM   21  C18 UNK     1      20.193 -10.381  36.642  1.00  0.00     0.038 A 
HETATM   22  C16 UNK     1      20.443  -6.902  35.432  1.00  0.00     0.304 A 
HETATM   23  O4  UNK     1      20.667  -6.306  34.385  1.00  0.00    -0.259 OA
HETATM   24  C20 UNK     1      19.944 -11.095  37.812  1.00  0.00     0.003 A 
HETATM   25  C19 UNK     1      19.686 -10.416  39.005  1.00  0.00     0.001 A 
ENDBRANCH  12  15
ENDBRANCH  10  11
BRANCH   9  26
HETATM   26  C10 UNK     1      20.007  -2.105  34.259  1.00  0.00     0.252 C 
HETATM   27  O1  UNK     1      21.199  -2.395  34.467  1.00  0.00    -0.268 OA
HETATM   28  N2  UNK     1      19.530  -2.048  32.953  1.00  0.00    -0.366 N 
HETATM   29  H12 UNK     1      18.564  -1.824  32.740  1.00  0.00     0.159 HD
HETATM   30  H13 UNK     1      20.144  -2.230  32.165  1.00  0.00     0.159 HD
ENDBRANCH   9  26
TORSDOF 3
ENDMDL
MODEL 9
REMARK VINA RESULT:      -9.3     13.440     16.175
REMARK  3 active torsions:
REMARK  status: ('A' for Active; 'I' for Inactive)
REMARK       I    between atoms: C11_18  and  N1_6 
REMARK    1  A    between atoms: C9_16  and  N1_6 
REMARK       I    between atoms: C10_17  and  N2_7 
REMARK    2  A    between atoms: C10_17  and  C8_15 
REMARK    3  A    between atoms: C11_18  and  C12_19 
ROOT
HETATM    1  S1  UNK     1      29.041  -8.780  37.733  1.00  0.00    -0.075 SA
HETATM    2  C1  UNK     1      32.970  -6.358  36.806  1.00  0.00     0.005 C 
HETATM    3  C2  UNK     1      33.611  -7.728  36.562  1.00  0.00     0.001 C 
HETATM    4  C3  UNK     1      32.166  -6.262  38.104  1.00  0.00     0.041 C 
HETATM    5  C4  UNK     1      32.630  -8.856  36.230  1.00  0.00     0.005 C 
HETATM    6  C5  UNK     1      30.845  -6.965  38.033  1.00  0.00    -0.026 A 
HETATM    7  C6  UNK     1      31.760  -9.299  37.407  1.00  0.00     0.046 C 
HETATM    8  C7  UNK     1      30.686  -8.304  37.724  1.00  0.00    -0.008 A 
HETATM    9  C8  UNK     1      29.581  -6.337  38.278  1.00  0.00     0.073 A 
HETATM   10  C9  UNK     1      28.523  -7.207  38.148  1.00  0.00     0.093 A 
ENDROOT
BRANCH  10  11
HETATM   11  N1  UNK     1      27.174  -7.022  38.289  1.00  0.00    -0.316 N 
HETATM   12  C11 UNK     1      26.287  -7.838  39.005  1.00  0.00     0.262 C 
HETATM   13  O3  UNK     1      26.532  -8.860  39.635  1.00  0.00    -0.267 OA
HETATM   14  H11 UNK     1      26.811  -6.191  37.832  1.00  0.00     0.169 HD
BRANCH  12  15
HETATM   15  C12 UNK     1      24.896  -7.344  38.950  1.00  0.00     0.108 A 
HETATM   16  C13 UNK     1      23.935  -8.271  39.035  1.00  0.00     0.037 A 
HETATM   17  C14 UNK     1      22.534  -7.882  38.990  1.00  0.00    -0.001 A 
HETATM   18  C15 UNK     1      22.213  -6.535  38.857  1.00  0.00     0.089 A 
HETATM   19  C17 UNK     1      21.499  -8.816  39.075  1.00  0.00     0.014 A 
HETATM   20  O2  UNK     1      23.229  -5.563  38.769  1.00  0.00    -0.274 OA
HETATM   21  C18 UNK     1      20.891  -6.096  38.807  1.00  0.00     0.038 A 
HETATM   22  C16 UNK     1      24.578  -5.904  38.808  1.00  0.00     0.304 A 
HETATM   23  O4  UNK     1      25.455  -5.052  38.730  1.00  0.00    -0.259 OA
HETATM   24  C20 UNK     1      19.865  -7.035  38.892  1.00  0.00     0.003 A 
HETATM   25  C19 UNK     1      20.167  -8.391  39.026  1.00  0.00     0.001 A 
ENDBRANCH  12  15
ENDBRANCH  10  11
BRANCH   9  26
HETATM   26  C10 UNK     1      29.381  -4.951  38.625  1.00  0.00     0.252 C 
HETATM   27  O1  UNK     1      29.007  -4.580  39.753  1.00  0.00    -0.268 OA
HETATM   28  N2  UNK     1      29.648  -4.001  37.643  1.00  0.00    -0.366 N 
HETATM   29  H12 UNK     1      29.963  -4.260  36.714  1.00  0.00     0.159 HD
HETATM   30  H13 UNK     1      29.532  -3.010  37.830  1.00  0.00     0.159 HD
ENDBRANCH   9  26
TORSDOF 3
ENDMDL
MODEL 10
REMARK VINA RESULT:      -9.1     14.353     16.685
REMARK  3 active torsions:
REMARK  status: ('A' for Active; 'I' for Inactive)
REMARK       I    between atoms: C11_18  and  N1_6 
REMARK    1  A    between atoms: C9_16  and  N1_6 
REMARK       I    between atoms: C10_17  and  N2_7 
REMARK    2  A    between atoms: C10_17  and  C8_15 
REMARK    3  A    between atoms: C11_18  and  C12_19 
ROOT
HETATM    1  S1  UNK     1      29.741  -9.001  37.032  1.00  0.00    -0.075 SA
HETATM    2  C1  UNK     1      32.963  -5.571  37.187  1.00  0.00     0.005 C 
HETATM    3  C2  UNK     1      33.964  -6.661  36.789  1.00  0.00     0.001 C 
HETATM    4  C3  UNK     1      32.039  -5.959  38.342  1.00  0.00     0.041 C 
HETATM    5  C4  UNK     1      33.353  -7.887  36.104  1.00  0.00     0.005 C 
HETATM    6  C5  UNK     1      30.963  -6.921  37.940  1.00  0.00    -0.026 A 
HETATM    7  C6  UNK     1      32.520  -8.774  37.030  1.00  0.00     0.046 C 
HETATM    8  C7  UNK     1      31.195  -8.158  37.363  1.00  0.00    -0.008 A 
HETATM    9  C8  UNK     1      29.560  -6.683  38.104  1.00  0.00     0.073 A 
HETATM   10  C9  UNK     1      28.788  -7.728  37.653  1.00  0.00     0.093 A 
ENDROOT
BRANCH  10  11
HETATM   11  N1  UNK     1      27.431  -7.905  37.621  1.00  0.00    -0.316 N 
HETATM   12  C11 UNK     1      26.629  -8.419  38.648  1.00  0.00     0.262 C 
HETATM   13  O3  UNK     1      26.970  -8.809  39.758  1.00  0.00    -0.267 OA
HETATM   14  H11 UNK     1      26.987  -7.607  36.757  1.00  0.00     0.169 HD
BRANCH  12  15
HETATM   15  C12 UNK     1      25.200  -8.473  38.275  1.00  0.00     0.108 A 
HETATM   16  C13 UNK     1      24.366  -7.737  39.020  1.00  0.00     0.037 A 
HETATM   17  C14 UNK     1      22.941  -7.725  38.730  1.00  0.00    -0.001 A 
HETATM   18  C15 UNK     1      22.463  -8.489  37.670  1.00  0.00     0.089 A 
HETATM   19  C17 UNK     1      22.035  -6.973  39.481  1.00  0.00     0.014 A 
HETATM   20  O2  UNK     1      23.345  -9.260  36.889  1.00  0.00    -0.274 OA
HETATM   21  C18 UNK     1      21.109  -8.521  37.340  1.00  0.00     0.038 A 
HETATM   22  C16 UNK     1      24.713  -9.293  37.142  1.00  0.00     0.304 A 
HETATM   23  O4  UNK     1      25.474  -9.968  36.457  1.00  0.00    -0.259 OA
HETATM   24  C20 UNK     1      20.213  -7.768  38.095  1.00  0.00     0.003 A 
HETATM   25  C19 UNK     1      20.673  -6.995  39.162  1.00  0.00     0.001 A 
ENDBRANCH  12  15
ENDBRANCH  10  11
BRANCH   9  26
HETATM   26  C10 UNK     1      28.969  -5.495  38.673  1.00  0.00     0.252 C 
HETATM   27  O1  UNK     1      28.347  -5.496  39.751  1.00  0.00    -0.268 OA
HETATM   28  N2  UNK     1      29.134  -4.302  37.975  1.00  0.00    -0.366 N 
HETATM   29  H12 UNK     1      29.641  -4.256  37.098  1.00  0.00     0.159 HD
HETATM   30  H13 UNK     1      28.746  -3.433  38.329  1.00  0.00     0.159 HD
ENDBRANCH   9  26
TORSDOF 3
ENDMDL
