MODEL 1
REMARK VINA RESULT:      -9.1      0.000      0.000
REMARK  3 active torsions:
REMARK  status: ('A' for Active; 'I' for Inactive)
REMARK    1  A    between atoms: C12_17  and  O2_3 
REMARK    2  A    between atoms: C6_11  and  O2_3 
REMARK    3  A    between atoms: C11_16  and  C12_17 
ROOT
HETATM    1  O1  UNK     1      16.370   7.572  33.224  1.00  0.00    -0.275 OA
HETATM    2  O3  UNK     1      15.377   9.231  34.443  1.00  0.00    -0.260 OA
HETATM    3  C1  UNK     1      18.808   7.424  33.172  1.00  0.00     0.004 A 
HETATM    4  C2  UNK     1      17.555   6.947  32.784  1.00  0.00     0.092 A 
HETATM    5  C3  UNK     1      18.873   8.597  34.053  1.00  0.00    -0.043 A 
HETATM    6  C4  UNK     1      19.937   6.746  32.693  1.00  0.00     0.017 A 
HETATM    7  C5  UNK     1      17.404   5.839  31.949  1.00  0.00     0.075 A 
HETATM    8  C6  UNK     1      18.537   5.180  31.484  1.00  0.00     0.082 A 
HETATM    9  C7  UNK     1      19.802   5.633  31.855  1.00  0.00     0.038 A 
HETATM   10  C8  UNK     1      17.731   9.171  34.456  1.00  0.00     0.090 A 
HETATM   11  C9  UNK     1      20.206   9.133  34.487  1.00  0.00     0.049 C 
HETATM   12  C10 UNK     1      16.401   8.680  34.056  1.00  0.00     0.288 A 
ENDROOT
BRANCH   8  13
HETATM   13  O2  UNK     1      18.412   4.098  30.670  1.00  0.00    -0.275 OA
BRANCH  13  14
HETATM   14  C12 UNK     1      18.225   2.888  31.344  1.00  0.00     0.298 C 
HETATM   15  O4  UNK     1      17.693   2.758  32.436  1.00  0.00    -0.259 OA
BRANCH  14  16
HETATM   16  C11 UNK     1      18.750   1.745  30.554  1.00  0.00     0.041 A 
HETATM   17  C13 UNK     1      19.505   0.784  31.193  1.00  0.00     0.041 A 
HETATM   18  C15 UNK     1      19.997  -0.291  30.450  1.00  0.00     0.035 A 
HETATM   19 Cl1  UNK     1      20.942  -1.506  31.218  1.00  0.00    -0.084 Cl
HETATM   20  C17 UNK     1      19.721  -0.379  29.086  1.00  0.00     0.024 A 
HETATM   21  C16 UNK     1      18.955   0.606  28.463  1.00  0.00     0.003 A 
HETATM   22  C14 UNK     1      18.464   1.681  29.206  1.00  0.00     0.018 A 
ENDBRANCH  14  16
ENDBRANCH  13  14
ENDBRANCH   8  13
TORSDOF 3
ENDMDL
MODEL 2
REMARK VINA RESULT:      -9.0      3.045      7.980
REMARK  3 active torsions:
REMARK  status: ('A' for Active; 'I' for Inactive)
REMARK    1  A    between atoms: C12_17  and  O2_3 
REMARK    2  A    between atoms: C6_11  and  O2_3 
REMARK    3  A    between atoms: C11_16  and  C12_17 
ROOT
HETATM    1  O1  UNK     1      19.256  -0.066  32.718  1.00  0.00    -0.275 OA
HETATM    2  O3  UNK     1      19.979  -2.154  33.301  1.00  0.00    -0.260 OA
HETATM    3  C1  UNK     1      19.299   0.600  30.367  1.00  0.00     0.004 A 
HETATM    4  C2  UNK     1      19.021   0.887  31.705  1.00  0.00     0.092 A 
HETATM    5  C3  UNK     1      19.845  -0.720  30.029  1.00  0.00    -0.043 A 
HETATM    6  C4  UNK     1      19.036   1.600  29.421  1.00  0.00     0.017 A 
HETATM    7  C5  UNK     1      18.501   2.116  32.112  1.00  0.00     0.075 A 
HETATM    8  C6  UNK     1      18.247   3.096  31.157  1.00  0.00     0.082 A 
HETATM    9  C7  UNK     1      18.514   2.838  29.814  1.00  0.00     0.038 A 
HETATM   10  C8  UNK     1      20.059  -1.605  31.012  1.00  0.00     0.090 A 
HETATM   11  C9  UNK     1      20.156  -1.057  28.600  1.00  0.00     0.049 C 
HETATM   12  C10 UNK     1      19.771  -1.320  32.427  1.00  0.00     0.288 A 
ENDROOT
BRANCH   8  13
HETATM   13  O2  UNK     1      17.740   4.300  31.533  1.00  0.00    -0.275 OA
BRANCH  13  14
HETATM   14  C12 UNK     1      18.682   5.331  31.586  1.00  0.00     0.298 C 
HETATM   15  O4  UNK     1      19.602   5.495  30.799  1.00  0.00    -0.259 OA
BRANCH  14  16
HETATM   16  C11 UNK     1      18.424   6.238  32.735  1.00  0.00     0.041 A 
HETATM   17  C13 UNK     1      19.379   7.173  33.074  1.00  0.00     0.041 A 
HETATM   18  C15 UNK     1      19.136   8.026  34.151  1.00  0.00     0.035 A 
HETATM   19 Cl1  UNK     1      20.307   9.204  34.599  1.00  0.00    -0.084 Cl
HETATM   20  C17 UNK     1      17.942   7.922  34.866  1.00  0.00     0.024 A 
HETATM   21  C16 UNK     1      16.993   6.966  34.504  1.00  0.00     0.003 A 
HETATM   22  C14 UNK     1      17.236   6.114  33.426  1.00  0.00     0.018 A 
ENDBRANCH  14  16
ENDBRANCH  13  14
ENDBRANCH   8  13
TORSDOF 3
ENDMDL
MODEL 3
REMARK VINA RESULT:      -9.0      3.129      8.039
REMARK  3 active torsions:
REMARK  status: ('A' for Active; 'I' for Inactive)
REMARK    1  A    between atoms: C12_17  and  O2_3 
REMARK    2  A    between atoms: C6_11  and  O2_3 
REMARK    3  A    between atoms: C11_16  and  C12_17 
ROOT
HETATM    1  O1  UNK     1      19.224  -0.047  32.764  1.00  0.00    -0.275 OA
HETATM    2  O3  UNK     1      19.981  -2.131  33.317  1.00  0.00    -0.260 OA
HETATM    3  C1  UNK     1      19.317   0.679  30.432  1.00  0.00     0.004 A 
HETATM    4  C2  UNK     1      18.994   0.925  31.768  1.00  0.00     0.092 A 
HETATM    5  C3  UNK     1      19.905  -0.619  30.078  1.00  0.00    -0.043 A 
HETATM    6  C4  UNK     1      19.057   1.696  29.504  1.00  0.00     0.017 A 
HETATM    7  C5  UNK     1      18.433   2.131  32.190  1.00  0.00     0.075 A 
HETATM    8  C6  UNK     1      18.182   3.128  31.253  1.00  0.00     0.082 A 
HETATM    9  C7  UNK     1      18.493   2.911  29.912  1.00  0.00     0.038 A 
HETATM   10  C8  UNK     1      20.113  -1.523  31.045  1.00  0.00     0.090 A 
HETATM   11  C9  UNK     1      20.264  -0.913  28.651  1.00  0.00     0.049 C 
HETATM   12  C10 UNK     1      19.777  -1.280  32.458  1.00  0.00     0.288 A 
ENDROOT
BRANCH   8  13
HETATM   13  O2  UNK     1      17.635   4.310  31.643  1.00  0.00    -0.275 OA
BRANCH  13  14
HETATM   14  C12 UNK     1      18.568   5.289  31.996  1.00  0.00     0.298 C 
HETATM   15  O4  UNK     1      19.698   5.390  31.543  1.00  0.00    -0.259 OA
BRANCH  14  16
HETATM   16  C11 UNK     1      18.010   6.225  33.006  1.00  0.00     0.041 A 
HETATM   17  C13 UNK     1      16.653   6.471  33.009  1.00  0.00     0.041 A 
HETATM   18  C15 UNK     1      16.129   7.349  33.959  1.00  0.00     0.035 A 
HETATM   19 Cl1  UNK     1      14.440   7.676  33.990  1.00  0.00    -0.084 Cl
HETATM   20  C17 UNK     1      16.976   7.962  34.883  1.00  0.00     0.024 A 
HETATM   21  C16 UNK     1      18.345   7.697  34.858  1.00  0.00     0.003 A 
HETATM   22  C14 UNK     1      18.868   6.819  33.908  1.00  0.00     0.018 A 
ENDBRANCH  14  16
ENDBRANCH  13  14
ENDBRANCH   8  13
TORSDOF 3
ENDMDL
MODEL 4
REMARK VINA RESULT:      -8.7      7.758     10.018
REMARK  3 active torsions:
REMARK  status: ('A' for Active; 'I' for Inactive)
REMARK    1  A    between atoms: C12_17  and  O2_3 
REMARK    2  A    between atoms: C6_11  and  O2_3 
REMARK    3  A    between atoms: C11_16  and  C12_17 
ROOT
HETATM    1  O1  UNK     1      19.162  -0.525  34.012  1.00  0.00    -0.275 OA
HETATM    2  O3  UNK     1      18.365   1.167  32.697  1.00  0.00    -0.260 OA
HETATM    3  C1  UNK     1      18.292  -0.787  36.280  1.00  0.00     0.004 A 
HETATM    4  C2  UNK     1      19.138  -1.201  35.249  1.00  0.00     0.092 A 
HETATM    5  C3  UNK     1      17.421   0.373  36.053  1.00  0.00    -0.043 A 
HETATM    6  C4  UNK     1      18.327  -1.512  37.478  1.00  0.00     0.017 A 
HETATM    7  C5  UNK     1      19.997  -2.292  35.382  1.00  0.00     0.075 A 
HETATM    8  C6  UNK     1      20.016  -3.000  36.580  1.00  0.00     0.082 A 
HETATM    9  C7  UNK     1      19.183  -2.610  37.626  1.00  0.00     0.038 A 
HETATM   10  C8  UNK     1      17.466   0.996  34.867  1.00  0.00     0.090 A 
HETATM   11  C9  UNK     1      16.502   0.843  37.142  1.00  0.00     0.049 C 
HETATM   12  C10 UNK     1      18.351   0.572  33.769  1.00  0.00     0.288 A 
ENDROOT
BRANCH   8  13
HETATM   13  O2  UNK     1      20.845  -4.067  36.729  1.00  0.00    -0.275 OA
BRANCH  13  14
HETATM   14  C12 UNK     1      20.353  -5.259  36.192  1.00  0.00     0.298 C 
HETATM   15  O4  UNK     1      20.121  -5.464  35.010  1.00  0.00    -0.259 OA
BRANCH  14  16
HETATM   16  C11 UNK     1      20.148  -6.282  37.249  1.00  0.00     0.041 A 
HETATM   17  C13 UNK     1      19.682  -7.530  36.889  1.00  0.00     0.041 A 
HETATM   18  C15 UNK     1      19.492  -8.491  37.882  1.00  0.00     0.035 A 
HETATM   19 Cl1  UNK     1      18.912 -10.057  37.466  1.00  0.00    -0.084 Cl
HETATM   20  C17 UNK     1      19.771  -8.182  39.213  1.00  0.00     0.024 A 
HETATM   21  C16 UNK     1      20.241  -6.914  39.552  1.00  0.00     0.003 A 
HETATM   22  C14 UNK     1      20.431  -5.952  38.558  1.00  0.00     0.018 A 
ENDBRANCH  14  16
ENDBRANCH  13  14
ENDBRANCH   8  13
TORSDOF 3
ENDMDL
MODEL 5
REMARK VINA RESULT:      -8.6      3.139      8.032
REMARK  3 active torsions:
REMARK  status: ('A' for Active; 'I' for Inactive)
REMARK    1  A    between atoms: C12_17  and  O2_3 
REMARK    2  A    between atoms: C6_11  and  O2_3 
REMARK    3  A    between atoms: C11_16  and  C12_17 
ROOT
HETATM    1  O1  UNK     1      19.602   1.009  29.245  1.00  0.00    -0.275 OA
HETATM    2  O3  UNK     1      20.448  -0.811  28.151  1.00  0.00    -0.260 OA
HETATM    3  C1  UNK     1      18.999   0.810  31.605  1.00  0.00     0.004 A 
HETATM    4  C2  UNK     1      19.100   1.570  30.438  1.00  0.00     0.092 A 
HETATM    5  C3  UNK     1      19.426  -0.594  31.569  1.00  0.00    -0.043 A 
HETATM    6  C4  UNK     1      18.492   1.442  32.748  1.00  0.00     0.017 A 
HETATM    7  C5  UNK     1      18.717   2.910  30.384  1.00  0.00     0.075 A 
HETATM    8  C6  UNK     1      18.216   3.519  31.530  1.00  0.00     0.082 A 
HETATM    9  C7  UNK     1      18.104   2.786  32.710  1.00  0.00     0.038 A 
HETATM   10  C8  UNK     1      19.898  -1.101  30.422  1.00  0.00     0.090 A 
HETATM   11  C9  UNK     1      19.328  -1.437  32.807  1.00  0.00     0.049 C 
HETATM   12  C10 UNK     1      20.012  -0.314  29.183  1.00  0.00     0.288 A 
ENDROOT
BRANCH   8  13
HETATM   13  O2  UNK     1      17.837   4.825  31.500  1.00  0.00    -0.275 OA
BRANCH  13  14
HETATM   14  C12 UNK     1      18.732   5.699  32.124  1.00  0.00     0.298 C 
HETATM   15  O4  UNK     1      19.924   5.792  31.876  1.00  0.00    -0.259 OA
BRANCH  14  16
HETATM   16  C11 UNK     1      18.046   6.534  33.143  1.00  0.00     0.041 A 
HETATM   17  C13 UNK     1      16.673   6.663  33.086  1.00  0.00     0.041 A 
HETATM   18  C15 UNK     1      16.029   7.446  34.045  1.00  0.00     0.035 A 
HETATM   19 Cl1  UNK     1      14.319   7.626  34.002  1.00  0.00    -0.084 Cl
HETATM   20  C17 UNK     1      16.773   8.083  35.038  1.00  0.00     0.024 A 
HETATM   21  C16 UNK     1      18.160   7.937  35.074  1.00  0.00     0.003 A 
HETATM   22  C14 UNK     1      18.804   7.154  34.115  1.00  0.00     0.018 A 
ENDBRANCH  14  16
ENDBRANCH  13  14
ENDBRANCH   8  13
TORSDOF 3
ENDMDL
MODEL 6
REMARK VINA RESULT:      -8.6      1.123      1.676
REMARK  3 active torsions:
REMARK  status: ('A' for Active; 'I' for Inactive)
REMARK    1  A    between atoms: C12_17  and  O2_3 
REMARK    2  A    between atoms: C6_11  and  O2_3 
REMARK    3  A    between atoms: C11_16  and  C12_17 
ROOT
HETATM    1  O1  UNK     1      16.422   8.342  32.994  1.00  0.00    -0.275 OA
HETATM    2  O3  UNK     1      15.810  10.497  33.449  1.00  0.00    -0.260 OA
HETATM    3  C1  UNK     1      18.701   7.616  33.497  1.00  0.00     0.004 A 
HETATM    4  C2  UNK     1      17.421   7.346  33.010  1.00  0.00     0.092 A 
HETATM    5  C3  UNK     1      18.993   8.966  33.996  1.00  0.00    -0.043 A 
HETATM    6  C4  UNK     1      19.635   6.572  33.479  1.00  0.00     0.017 A 
HETATM    7  C5  UNK     1      17.059   6.092  32.518  1.00  0.00     0.075 A 
HETATM    8  C6  UNK     1      18.001   5.068  32.509  1.00  0.00     0.082 A 
HETATM    9  C7  UNK     1      19.288   5.308  32.989  1.00  0.00     0.038 A 
HETATM   10  C8  UNK     1      18.026   9.893  33.968  1.00  0.00     0.090 A 
HETATM   11  C9  UNK     1      20.361   9.288  34.525  1.00  0.00     0.049 C 
HETATM   12  C10 UNK     1      16.671   9.624  33.459  1.00  0.00     0.288 A 
ENDROOT
BRANCH   8  13
HETATM   13  O2  UNK     1      17.670   3.838  32.034  1.00  0.00    -0.275 OA
BRANCH  13  14
HETATM   14  C12 UNK     1      18.428   3.420  30.937  1.00  0.00     0.298 C 
HETATM   15  O4  UNK     1      18.741   4.115  29.983  1.00  0.00    -0.259 OA
BRANCH  14  16
HETATM   16  C11 UNK     1      18.831   1.996  31.073  1.00  0.00     0.041 A 
HETATM   17  C13 UNK     1      19.412   1.362  29.994  1.00  0.00     0.041 A 
HETATM   18  C15 UNK     1      19.792   0.026  30.123  1.00  0.00     0.035 A 
HETATM   19 Cl1  UNK     1      20.520  -0.794  28.797  1.00  0.00    -0.084 Cl
HETATM   20  C17 UNK     1      19.582  -0.646  31.327  1.00  0.00     0.024 A 
HETATM   21  C16 UNK     1      18.992   0.018  32.402  1.00  0.00     0.003 A 
HETATM   22  C14 UNK     1      18.611   1.354  32.274  1.00  0.00     0.018 A 
ENDBRANCH  14  16
ENDBRANCH  13  14
ENDBRANCH   8  13
TORSDOF 3
ENDMDL
MODEL 7
REMARK VINA RESULT:      -8.6      3.217      7.742
REMARK  3 active torsions:
REMARK  status: ('A' for Active; 'I' for Inactive)
REMARK    1  A    between atoms: C12_17  and  O2_3 
REMARK    2  A    between atoms: C6_11  and  O2_3 
REMARK    3  A    between atoms: C11_16  and  C12_17 
ROOT
HETATM    1  O1  UNK     1      19.922  -0.043  29.910  1.00  0.00    -0.275 OA
HETATM    2  O3  UNK     1      20.562  -2.236  29.830  1.00  0.00    -0.260 OA
HETATM    3  C1  UNK     1      18.853   0.817  31.932  1.00  0.00     0.004 A 
HETATM    4  C2  UNK     1      19.331   1.012  30.635  1.00  0.00     0.092 A 
HETATM    5  C3  UNK     1      18.974  -0.518  32.533  1.00  0.00    -0.043 A 
HETATM    6  C4  UNK     1      18.280   1.916  32.584  1.00  0.00     0.017 A 
HETATM    7  C5  UNK     1      19.255   2.247  29.990  1.00  0.00     0.075 A 
HETATM    8  C6  UNK     1      18.683   3.327  30.655  1.00  0.00     0.082 A 
HETATM    9  C7  UNK     1      18.197   3.162  31.951  1.00  0.00     0.038 A 
HETATM   10  C8  UNK     1      19.539  -1.502  31.820  1.00  0.00     0.090 A 
HETATM   11  C9  UNK     1      18.468  -0.760  33.924  1.00  0.00     0.049 C 
HETATM   12  C10 UNK     1      20.051  -1.312  30.452  1.00  0.00     0.288 A 
ENDROOT
BRANCH   8  13
HETATM   13  O2  UNK     1      18.599   4.539  30.045  1.00  0.00    -0.275 OA
BRANCH  13  14
HETATM   14  C12 UNK     1      19.483   5.499  30.545  1.00  0.00     0.298 C 
HETATM   15  O4  UNK     1      20.673   5.577  30.280  1.00  0.00    -0.259 OA
BRANCH  14  16
HETATM   16  C11 UNK     1      18.789   6.447  31.454  1.00  0.00     0.041 A 
HETATM   17  C13 UNK     1      19.412   6.825  32.626  1.00  0.00     0.041 A 
HETATM   18  C15 UNK     1      18.761   7.717  33.479  1.00  0.00     0.035 A 
HETATM   19 Cl1  UNK     1      19.511   8.208  34.947  1.00  0.00    -0.084 Cl
HETATM   20  C17 UNK     1      17.501   8.211  33.140  1.00  0.00     0.024 A 
HETATM   21  C16 UNK     1      16.893   7.813  31.950  1.00  0.00     0.003 A 
HETATM   22  C14 UNK     1      17.544   6.920  31.097  1.00  0.00     0.018 A 
ENDBRANCH  14  16
ENDBRANCH  13  14
ENDBRANCH   8  13
TORSDOF 3
ENDMDL
MODEL 8
REMARK VINA RESULT:      -8.6      3.839      6.030
REMARK  3 active torsions:
REMARK  status: ('A' for Active; 'I' for Inactive)
REMARK    1  A    between atoms: C12_17  and  O2_3 
REMARK    2  A    between atoms: C6_11  and  O2_3 
REMARK    3  A    between atoms: C11_16  and  C12_17 
ROOT
HETATM    1  O1  UNK     1      18.202   1.874  30.691  1.00  0.00    -0.275 OA
HETATM    2  O3  UNK     1      18.325   1.527  28.435  1.00  0.00    -0.260 OA
HETATM    3  C1  UNK     1      18.597   4.117  31.577  1.00  0.00     0.004 A 
HETATM    4  C2  UNK     1      18.297   2.768  31.778  1.00  0.00     0.092 A 
HETATM    5  C3  UNK     1      18.816   4.593  30.206  1.00  0.00    -0.043 A 
HETATM    6  C4  UNK     1      18.671   4.940  32.709  1.00  0.00     0.017 A 
HETATM    7  C5  UNK     1      18.074   2.234  33.047  1.00  0.00     0.075 A 
HETATM    8  C6  UNK     1      18.152   3.068  34.158  1.00  0.00     0.082 A 
HETATM    9  C7  UNK     1      18.450   4.419  33.989  1.00  0.00     0.038 A 
HETATM   10  C8  UNK     1      18.721   3.721  29.192  1.00  0.00     0.090 A 
HETATM   11  C9  UNK     1      19.141   6.037  29.958  1.00  0.00     0.049 C 
HETATM   12  C10 UNK     1      18.404   2.296  29.386  1.00  0.00     0.288 A 
ENDROOT
BRANCH   8  13
HETATM   13  O2  UNK     1      17.939   2.567  35.404  1.00  0.00    -0.275 OA
BRANCH  13  14
HETATM   14  C12 UNK     1      19.046   1.923  35.964  1.00  0.00     0.298 C 
HETATM   15  O4  UNK     1      20.131   2.438  36.186  1.00  0.00    -0.259 OA
BRANCH  14  16
HETATM   16  C11 UNK     1      18.740   0.503  36.277  1.00  0.00     0.041 A 
HETATM   17  C13 UNK     1      19.446  -0.490  35.629  1.00  0.00     0.041 A 
HETATM   18  C15 UNK     1      19.160  -1.823  35.924  1.00  0.00     0.035 A 
HETATM   19 Cl1  UNK     1      20.022  -3.085  35.134  1.00  0.00    -0.084 Cl
HETATM   20  C17 UNK     1      18.174  -2.133  36.862  1.00  0.00     0.024 A 
HETATM   21  C16 UNK     1      17.475  -1.111  37.503  1.00  0.00     0.003 A 
HETATM   22  C14 UNK     1      17.761   0.222  37.207  1.00  0.00     0.018 A 
ENDBRANCH  14  16
ENDBRANCH  13  14
ENDBRANCH   8  13
TORSDOF 3
ENDMDL
MODEL 9
REMARK VINA RESULT:      -8.4     22.070     24.568
REMARK  3 active torsions:
REMARK  status: ('A' for Active; 'I' for Inactive)
REMARK    1  A    between atoms: C12_17  and  O2_3 
REMARK    2  A    between atoms: C6_11  and  O2_3 
REMARK    3  A    between atoms: C11_16  and  C12_17 
ROOT
HETATM    1  O1  UNK     1       9.498   5.682   9.584  1.00  0.00    -0.275 OA
HETATM    2  O3  UNK     1       7.239   5.873   9.293  1.00  0.00    -0.260 OA
HETATM    3  C1  UNK     1      10.972   5.864   7.644  1.00  0.00     0.004 A 
HETATM    4  C2  UNK     1      10.788   5.678   9.016  1.00  0.00     0.092 A 
HETATM    5  C3  UNK     1       9.790   6.064   6.796  1.00  0.00    -0.043 A 
HETATM    6  C4  UNK     1      12.286   5.847   7.158  1.00  0.00     0.017 A 
HETATM    7  C5  UNK     1      11.856   5.481   9.892  1.00  0.00     0.075 A 
HETATM    8  C6  UNK     1      13.153   5.468   9.389  1.00  0.00     0.082 A 
HETATM    9  C7  UNK     1      13.368   5.651   8.024  1.00  0.00     0.038 A 
HETATM   10  C8  UNK     1       8.576   6.062   7.364  1.00  0.00     0.090 A 
HETATM   11  C9  UNK     1       9.955   6.265   5.318  1.00  0.00     0.049 C 
HETATM   12  C10 UNK     1       8.364   5.869   8.808  1.00  0.00     0.288 A 
ENDROOT
BRANCH   8  13
HETATM   13  O2  UNK     1      14.208   5.278  10.226  1.00  0.00    -0.275 OA
BRANCH  13  14
HETATM   14  C12 UNK     1      15.385   5.916   9.824  1.00  0.00     0.298 C 
HETATM   15  O4  UNK     1      16.326   5.382   9.258  1.00  0.00    -0.259 OA
BRANCH  14  16
HETATM   16  C11 UNK     1      15.355   7.363  10.163  1.00  0.00     0.041 A 
HETATM   17  C13 UNK     1      15.366   8.288   9.139  1.00  0.00     0.041 A 
HETATM   18  C15 UNK     1      15.337   9.646   9.458  1.00  0.00     0.035 A 
HETATM   19 Cl1  UNK     1      15.348  10.825   8.205  1.00  0.00    -0.084 Cl
HETATM   20  C17 UNK     1      15.298  10.048  10.793  1.00  0.00     0.024 A 
HETATM   21  C16 UNK     1      15.290   9.093  11.809  1.00  0.00     0.003 A 
HETATM   22  C14 UNK     1      15.319   7.734  11.491  1.00  0.00     0.018 A 
ENDBRANCH  14  16
ENDBRANCH  13  14
ENDBRANCH   8  13
TORSDOF 3
ENDMDL
MODEL 10
REMARK VINA RESULT:      -8.4      9.434     13.908
REMARK  3 active torsions:
REMARK  status: ('A' for Active; 'I' for Inactive)
REMARK    1  A    between atoms: C12_17  and  O2_3 
REMARK    2  A    between atoms: C6_11  and  O2_3 
REMARK    3  A    between atoms: C11_16  and  C12_17 
ROOT
HETATM    1  O1  UNK     1      21.532  -9.049  35.166  1.00  0.00    -0.275 OA
HETATM    2  O3  UNK     1      22.525 -11.092  34.906  1.00  0.00    -0.260 OA
HETATM    3  C1  UNK     1      19.920  -8.726  36.974  1.00  0.00     0.004 A 
HETATM    4  C2  UNK     1      20.632  -8.231  35.879  1.00  0.00     0.092 A 
HETATM    5  C3  UNK     1      20.125 -10.124  37.373  1.00  0.00    -0.043 A 
HETATM    6  C4  UNK     1      19.047  -7.848  37.630  1.00  0.00     0.017 A 
HETATM    7  C5  UNK     1      20.496  -6.916  35.434  1.00  0.00     0.075 A 
HETATM    8  C6  UNK     1      19.623  -6.060  36.099  1.00  0.00     0.082 A 
HETATM    9  C7  UNK     1      18.900  -6.526  37.195  1.00  0.00     0.038 A 
HETATM   10  C8  UNK     1      20.986 -10.879  36.676  1.00  0.00     0.090 A 
HETATM   11  C9  UNK     1      19.374 -10.685  38.545  1.00  0.00     0.049 C 
HETATM   12  C10 UNK     1      21.745 -10.373  35.520  1.00  0.00     0.288 A 
ENDROOT
BRANCH   8  13
HETATM   13  O2  UNK     1      19.477  -4.775  35.681  1.00  0.00    -0.275 OA
BRANCH  13  14
HETATM   14  C12 UNK     1      20.151  -3.834  36.465  1.00  0.00     0.298 C 
HETATM   15  O4  UNK     1      21.230  -4.006  37.011  1.00  0.00    -0.259 OA
BRANCH  14  16
HETATM   16  C11 UNK     1      19.390  -2.561  36.551  1.00  0.00     0.041 A 
HETATM   17  C13 UNK     1      19.309  -1.755  35.434  1.00  0.00     0.041 A 
HETATM   18  C15 UNK     1      18.592  -0.560  35.515  1.00  0.00     0.035 A 
HETATM   19 Cl1  UNK     1      18.471   0.466  34.140  1.00  0.00    -0.084 Cl
HETATM   20  C17 UNK     1      17.974  -0.199  36.712  1.00  0.00     0.024 A 
HETATM   21  C16 UNK     1      18.072  -1.030  37.827  1.00  0.00     0.003 A 
HETATM   22  C14 UNK     1      18.788  -2.225  37.746  1.00  0.00     0.018 A 
ENDBRANCH  14  16
ENDBRANCH  13  14
ENDBRANCH   8  13
TORSDOF 3
ENDMDL
