MODEL 1
REMARK VINA RESULT:      -8.1      0.000      0.000
REMARK  1 active torsions:
REMARK  status: ('A' for Active; 'I' for Inactive)
REMARK    1  A    between atoms: C12_18  and  C4_10 
ROOT
HETATM    1  N1  UNK     1      30.650 -10.198  35.376  1.00  0.00    -0.191 NA
HETATM    2  N2  UNK     1      26.416 -10.216  36.788  1.00  0.00    -0.191 NA
HETATM    3  C12 UNK     1      28.150  -7.767  35.126  1.00  0.00     0.048 C 
HETATM    4  C16 UNK     1      28.368  -8.998  35.601  1.00  0.00     0.125 C 
HETATM    5  C17 UNK     1      27.290  -9.668  36.256  1.00  0.00     0.111 C 
HETATM    6  C18 UNK     1      29.628  -9.657  35.476  1.00  0.00     0.111 C 
ENDROOT
BRANCH   3   7
HETATM    7  C4  UNK     1      29.113  -6.927  34.432  1.00  0.00     0.003 C 
HETATM    8  C2  UNK     1      30.067  -6.038  35.154  1.00  0.00     0.044 A 
HETATM    9  C5  UNK     1      31.206  -5.583  34.481  1.00  0.00     0.084 A 
HETATM   10  C8  UNK     1      29.908  -5.602  36.485  1.00  0.00     0.103 A 
HETATM   11  C10 UNK     1      32.182  -4.811  35.123  1.00  0.00     0.039 A 
HETATM   12  O1  UNK     1      31.453  -5.868  33.168  1.00  0.00    -0.334 OA
HETATM   13  C11 UNK     1      32.013  -4.429  36.450  1.00  0.00     0.017 A 
HETATM   14  C9  UNK     1      30.863  -4.812  37.137  1.00  0.00    -0.001 A 
HETATM   15  C13 UNK     1      30.639  -4.403  38.516  1.00  0.00     0.020 A 
HETATM   16  C14 UNK     1      29.524  -4.753  39.158  1.00  0.00     0.083 A 
HETATM   17  C15 UNK     1      28.479  -5.558  38.506  1.00  0.00     0.288 A 
HETATM   18  O2  UNK     1      28.725  -5.940  37.192  1.00  0.00    -0.274 OA
HETATM   19  O3  UNK     1      27.452  -5.871  39.095  1.00  0.00    -0.260 OA
HETATM   20  C1  UNK     1      30.299  -6.142  32.342  1.00  0.00     0.099 C 
HETATM   21  C3  UNK     1      29.222  -6.925  33.085  1.00  0.00     0.057 C 
HETATM   22  C6  UNK     1      30.900  -6.917  31.153  1.00  0.00     0.052 C 
HETATM   23  C7  UNK     1      29.745  -4.800  31.833  1.00  0.00     0.052 C 
HETATM   24 Cl1  UNK     1      28.124  -7.827  32.066  1.00  0.00    -0.085 Cl
ENDBRANCH   3   7
TORSDOF 1
ENDMDL
MODEL 2
REMARK VINA RESULT:      -8.0     12.800     14.505
REMARK  1 active torsions:
REMARK  status: ('A' for Active; 'I' for Inactive)
REMARK    1  A    between atoms: C12_18  and  C4_10 
ROOT
HETATM    1  N1  UNK     1      20.192   2.960  36.404  1.00  0.00    -0.191 NA
HETATM    2  N2  UNK     1      18.111   5.604  33.472  1.00  0.00    -0.191 NA
HETATM    3  C12 UNK     1      17.995   2.191  33.795  1.00  0.00     0.048 C 
HETATM    4  C16 UNK     1      18.592   3.231  34.388  1.00  0.00     0.125 C 
HETATM    5  C17 UNK     1      18.326   4.539  33.881  1.00  0.00     0.111 C 
HETATM    6  C18 UNK     1      19.474   3.077  35.500  1.00  0.00     0.111 C 
ENDROOT
BRANCH   3   7
HETATM    7  C4  UNK     1      18.135   0.791  34.162  1.00  0.00     0.003 C 
HETATM    8  C2  UNK     1      18.888  -0.185  33.324  1.00  0.00     0.044 A 
HETATM    9  C5  UNK     1      19.328  -1.378  33.909  1.00  0.00     0.084 A 
HETATM   10  C8  UNK     1      19.192  -0.005  31.960  1.00  0.00     0.103 A 
HETATM   11  C10 UNK     1      20.107  -2.301  33.202  1.00  0.00     0.039 A 
HETATM   12  O1  UNK     1      19.044  -1.717  35.202  1.00  0.00    -0.334 OA
HETATM   13  C11 UNK     1      20.422  -2.076  31.866  1.00  0.00     0.017 A 
HETATM   14  C9  UNK     1      19.952  -0.928  31.231  1.00  0.00    -0.001 A 
HETATM   15  C13 UNK     1      20.236  -0.677  29.826  1.00  0.00     0.020 A 
HETATM   16  C14 UNK     1      19.761   0.411  29.219  1.00  0.00     0.083 A 
HETATM   17  C15 UNK     1      18.935   1.395  29.936  1.00  0.00     0.288 A 
HETATM   18  O2  UNK     1      18.688   1.132  31.278  1.00  0.00    -0.274 OA
HETATM   19  O3  UNK     1      18.493   2.391  29.374  1.00  0.00    -0.260 OA
HETATM   20  C1  UNK     1      17.847  -1.139  35.770  1.00  0.00     0.099 C 
HETATM   21  C3  UNK     1      17.615   0.296  35.307  1.00  0.00     0.057 C 
HETATM   22  C6  UNK     1      18.093  -1.254  37.287  1.00  0.00     0.052 C 
HETATM   23  C7  UNK     1      16.656  -2.034  35.390  1.00  0.00     0.052 C 
HETATM   24 Cl1  UNK     1      16.618   1.265  36.367  1.00  0.00    -0.085 Cl
ENDBRANCH   3   7
TORSDOF 1
ENDMDL
MODEL 3
REMARK VINA RESULT:      -7.9      2.081      4.740
REMARK  1 active torsions:
REMARK  status: ('A' for Active; 'I' for Inactive)
REMARK    1  A    between atoms: C12_18  and  C4_10 
ROOT
HETATM    1  N1  UNK     1      31.068 -10.088  36.096  1.00  0.00    -0.191 NA
HETATM    2  N2  UNK     1      29.972  -8.954  31.921  1.00  0.00    -0.191 NA
HETATM    3  C12 UNK     1      28.720  -7.792  34.895  1.00  0.00     0.048 C 
HETATM    4  C16 UNK     1      29.634  -8.672  34.472  1.00  0.00     0.125 C 
HETATM    5  C17 UNK     1      29.819  -8.827  33.064  1.00  0.00     0.111 C 
HETATM    6  C18 UNK     1      30.423  -9.452  35.371  1.00  0.00     0.111 C 
ENDROOT
BRANCH   3   7
HETATM    7  C4  UNK     1      28.388  -7.492  36.278  1.00  0.00     0.003 C 
HETATM    8  C2  UNK     1      28.945  -6.311  36.997  1.00  0.00     0.044 A 
HETATM    9  C5  UNK     1      28.295  -5.854  38.149  1.00  0.00     0.084 A 
HETATM   10  C8  UNK     1      30.103  -5.607  36.609  1.00  0.00     0.103 A 
HETATM   11  C10 UNK     1      28.717  -4.704  38.827  1.00  0.00     0.039 A 
HETATM   12  O1  UNK     1      27.203  -6.481  38.681  1.00  0.00    -0.334 OA
HETATM   13  C11 UNK     1      29.843  -4.010  38.395  1.00  0.00     0.017 A 
HETATM   14  C9  UNK     1      30.553  -4.468  37.288  1.00  0.00    -0.001 A 
HETATM   15  C13 UNK     1      31.753  -3.784  36.829  1.00  0.00     0.020 A 
HETATM   16  C14 UNK     1      32.441  -4.244  35.783  1.00  0.00     0.083 A 
HETATM   17  C15 UNK     1      32.023  -5.453  35.056  1.00  0.00     0.288 A 
HETATM   18  O2  UNK     1      30.870  -6.079  35.513  1.00  0.00    -0.274 OA
HETATM   19  O3  UNK     1      32.662  -5.877  34.100  1.00  0.00    -0.260 OA
HETATM   20  C1  UNK     1      27.074  -7.893  38.401  1.00  0.00     0.099 C 
HETATM   21  C3  UNK     1      27.526  -8.252  36.990  1.00  0.00     0.057 C 
HETATM   22  C6  UNK     1      25.575  -8.158  38.642  1.00  0.00     0.052 C 
HETATM   23  C7  UNK     1      27.891  -8.666  39.449  1.00  0.00     0.052 C 
HETATM   24 Cl1  UNK     1      26.849  -9.731  36.347  1.00  0.00    -0.085 Cl
ENDBRANCH   3   7
TORSDOF 1
ENDMDL
MODEL 4
REMARK VINA RESULT:      -7.7     32.063     34.672
REMARK  1 active torsions:
REMARK  status: ('A' for Active; 'I' for Inactive)
REMARK    1  A    between atoms: C12_18  and  C4_10 
ROOT
HETATM    1  N1  UNK     1      15.049  10.800   8.699  1.00  0.00    -0.191 NA
HETATM    2  N2  UNK     1      12.261  12.126  11.921  1.00  0.00    -0.191 NA
HETATM    3  C12 UNK     1      12.903   8.964  10.760  1.00  0.00     0.048 C 
HETATM    4  C16 UNK     1      13.298  10.218  10.513  1.00  0.00     0.125 C 
HETATM    5  C17 UNK     1      12.725  11.270  11.291  1.00  0.00     0.111 C 
HETATM    6  C18 UNK     1      14.264  10.535   9.511  1.00  0.00     0.111 C 
ENDROOT
BRANCH   3   7
HETATM    7  C4  UNK     1      13.368   7.764  10.082  1.00  0.00     0.003 C 
HETATM    8  C2  UNK     1      12.560   7.070   9.039  1.00  0.00     0.044 A 
HETATM    9  C5  UNK     1      13.204   6.195   8.158  1.00  0.00     0.084 A 
HETATM   10  C8  UNK     1      11.168   7.219   8.871  1.00  0.00     0.103 A 
HETATM   11  C10 UNK     1      12.520   5.572   7.107  1.00  0.00     0.039 A 
HETATM   12  O1  UNK     1      14.536   5.901   8.248  1.00  0.00    -0.334 OA
HETATM   13  C11 UNK     1      11.153   5.770   6.945  1.00  0.00     0.017 A 
HETATM   14  C9  UNK     1      10.463   6.586   7.839  1.00  0.00    -0.001 A 
HETATM   15  C13 UNK     1       9.027   6.789   7.718  1.00  0.00     0.020 A 
HETATM   16  C14 UNK     1       8.371   7.552   8.593  1.00  0.00     0.083 A 
HETATM   17  C15 UNK     1       9.064   8.214   9.710  1.00  0.00     0.288 A 
HETATM   18  O2  UNK     1      10.435   8.008   9.794  1.00  0.00    -0.274 OA
HETATM   19  O3  UNK     1       8.457   8.908  10.517  1.00  0.00    -0.260 OA
HETATM   20  C1  UNK     1      15.135   6.035   9.556  1.00  0.00     0.099 C 
HETATM   21  C3  UNK     1      14.580   7.222  10.335  1.00  0.00     0.057 C 
HETATM   22  C6  UNK     1      16.637   6.169   9.237  1.00  0.00     0.052 C 
HETATM   23  C7  UNK     1      14.905   4.722  10.325  1.00  0.00     0.052 C 
HETATM   24 Cl1  UNK     1      15.625   7.839  11.593  1.00  0.00    -0.085 Cl
ENDBRANCH   3   7
TORSDOF 1
ENDMDL
MODEL 5
REMARK VINA RESULT:      -7.6      2.221      4.885
REMARK  1 active torsions:
REMARK  status: ('A' for Active; 'I' for Inactive)
REMARK    1  A    between atoms: C12_18  and  C4_10 
ROOT
HETATM    1  N1  UNK     1      27.214  -5.855  33.069  1.00  0.00    -0.191 NA
HETATM    2  N2  UNK     1      30.493  -8.081  31.017  1.00  0.00    -0.191 NA
HETATM    3  C12 UNK     1      29.769  -7.860  34.362  1.00  0.00     0.048 C 
HETATM    4  C16 UNK     1      29.288  -7.396  33.204  1.00  0.00     0.125 C 
HETATM    5  C17 UNK     1      29.955  -7.774  31.998  1.00  0.00     0.111 C 
HETATM    6  C18 UNK     1      28.144  -6.545  33.133  1.00  0.00     0.111 C 
ENDROOT
BRANCH   3   7
HETATM    7  C4  UNK     1      29.234  -7.592  35.687  1.00  0.00     0.003 C 
HETATM    8  C2  UNK     1      29.604  -6.378  36.469  1.00  0.00     0.044 A 
HETATM    9  C5  UNK     1      28.774  -5.975  37.521  1.00  0.00     0.084 A 
HETATM   10  C8  UNK     1      30.750  -5.591  36.236  1.00  0.00     0.103 A 
HETATM   11  C10 UNK     1      29.020  -4.802  38.245  1.00  0.00     0.039 A 
HETATM   12  O1  UNK     1      27.669  -6.681  37.905  1.00  0.00    -0.334 OA
HETATM   13  C11 UNK     1      30.140  -4.026  37.965  1.00  0.00     0.017 A 
HETATM   14  C9  UNK     1      31.023  -4.426  36.964  1.00  0.00    -0.001 A 
HETATM   15  C13 UNK     1      32.222  -3.656  36.667  1.00  0.00     0.020 A 
HETATM   16  C14 UNK     1      33.074  -4.060  35.725  1.00  0.00     0.083 A 
HETATM   17  C15 UNK     1      32.845  -5.292  34.953  1.00  0.00     0.288 A 
HETATM   18  O2  UNK     1      31.688  -6.001  35.255  1.00  0.00    -0.274 OA
HETATM   19  O3  UNK     1      33.635  -5.665  34.093  1.00  0.00    -0.260 OA
HETATM   20  C1  UNK     1      27.680  -8.097  37.616  1.00  0.00     0.099 C 
HETATM   21  C3  UNK     1      28.341  -8.416  36.280  1.00  0.00     0.057 C 
HETATM   22  C6  UNK     1      26.185  -8.470  37.656  1.00  0.00     0.052 C 
HETATM   23  C7  UNK     1      28.403  -8.815  38.767  1.00  0.00     0.052 C 
HETATM   24 Cl1  UNK     1      27.864  -9.935  35.559  1.00  0.00    -0.085 Cl
ENDBRANCH   3   7
TORSDOF 1
ENDMDL
MODEL 6
REMARK VINA RESULT:      -7.6      2.460      2.901
REMARK  1 active torsions:
REMARK  status: ('A' for Active; 'I' for Inactive)
REMARK    1  A    between atoms: C12_18  and  C4_10 
ROOT
HETATM    1  N1  UNK     1      27.667  -8.899  35.926  1.00  0.00    -0.191 NA
HETATM    2  N2  UNK     1      28.494 -10.492  40.012  1.00  0.00    -0.191 NA
HETATM    3  C12 UNK     1      30.644  -9.066  37.752  1.00  0.00     0.048 C 
HETATM    4  C16 UNK     1      29.345  -9.375  37.837  1.00  0.00     0.125 C 
HETATM    5  C17 UNK     1      28.877  -9.992  39.038  1.00  0.00     0.111 C 
HETATM    6  C18 UNK     1      28.423  -9.111  36.780  1.00  0.00     0.111 C 
ENDROOT
BRANCH   3   7
HETATM    7  C4  UNK     1      31.308  -8.437  36.622  1.00  0.00     0.003 C 
HETATM    8  C2  UNK     1      31.534  -6.965  36.543  1.00  0.00     0.044 A 
HETATM    9  C5  UNK     1      32.508  -6.478  35.664  1.00  0.00     0.084 A 
HETATM   10  C8  UNK     1      30.826  -6.003  37.291  1.00  0.00     0.103 A 
HETATM   11  C10 UNK     1      32.826  -5.116  35.599  1.00  0.00     0.039 A 
HETATM   12  O1  UNK     1      33.222  -7.289  34.828  1.00  0.00    -0.334 OA
HETATM   13  C11 UNK     1      32.134  -4.196  36.379  1.00  0.00     0.017 A 
HETATM   14  C9  UNK     1      31.115  -4.634  37.222  1.00  0.00    -0.001 A 
HETATM   15  C13 UNK     1      30.349  -3.695  38.027  1.00  0.00     0.020 A 
HETATM   16  C14 UNK     1      29.359  -4.121  38.813  1.00  0.00     0.083 A 
HETATM   17  C15 UNK     1      29.000  -5.545  38.897  1.00  0.00     0.288 A 
HETATM   18  O2  UNK     1      29.754  -6.418  38.122  1.00  0.00    -0.274 OA
HETATM   19  O3  UNK     1      28.084  -5.933  39.614  1.00  0.00    -0.260 OA
HETATM   20  C1  UNK     1      32.591  -8.532  34.445  1.00  0.00     0.099 C 
HETATM   21  C3  UNK     1      31.791  -9.155  35.583  1.00  0.00     0.057 C 
HETATM   22  C6  UNK     1      33.782  -9.401  33.996  1.00  0.00     0.052 C 
HETATM   23  C7  UNK     1      31.689  -8.257  33.231  1.00  0.00     0.052 C 
HETATM   24 Cl1  UNK     1      31.534 -10.880  35.453  1.00  0.00    -0.085 Cl
ENDBRANCH   3   7
TORSDOF 1
ENDMDL
MODEL 7
REMARK VINA RESULT:      -7.5     32.136     34.271
REMARK  1 active torsions:
REMARK  status: ('A' for Active; 'I' for Inactive)
REMARK    1  A    between atoms: C12_18  and  C4_10 
ROOT
HETATM    1  N1  UNK     1      12.280   9.467  12.799  1.00  0.00    -0.191 NA
HETATM    2  N2  UNK     1      10.693  12.630  10.081  1.00  0.00    -0.191 NA
HETATM    3  C12 UNK     1      11.773   9.461   9.340  1.00  0.00     0.048 C 
HETATM    4  C16 UNK     1      11.639  10.244  10.416  1.00  0.00     0.125 C 
HETATM    5  C17 UNK     1      11.117  11.561  10.229  1.00  0.00     0.111 C 
HETATM    6  C18 UNK     1      11.994   9.812  11.729  1.00  0.00     0.111 C 
ENDROOT
BRANCH   3   7
HETATM    7  C4  UNK     1      12.281   8.098   9.324  1.00  0.00     0.003 C 
HETATM    8  C2  UNK     1      13.711   7.773   9.589  1.00  0.00     0.044 A 
HETATM    9  C5  UNK     1      14.048   6.465   9.957  1.00  0.00     0.084 A 
HETATM   10  C8  UNK     1      14.775   8.692   9.490  1.00  0.00     0.103 A 
HETATM   11  C10 UNK     1      15.359   6.111  10.297  1.00  0.00     0.039 A 
HETATM   12  O1  UNK     1      13.131   5.455  10.025  1.00  0.00    -0.334 OA
HETATM   13  C11 UNK     1      16.381   7.052  10.225  1.00  0.00     0.017 A 
HETATM   14  C9  UNK     1      16.096   8.349   9.805  1.00  0.00    -0.001 A 
HETATM   15  C13 UNK     1      17.147   9.350   9.687  1.00  0.00     0.020 A 
HETATM   16  C14 UNK     1      16.869  10.582   9.260  1.00  0.00     0.083 A 
HETATM   17  C15 UNK     1      15.501  10.980   8.890  1.00  0.00     0.288 A 
HETATM   18  O2  UNK     1      14.519  10.006   9.021  1.00  0.00    -0.274 OA
HETATM   19  O3  UNK     1      15.250  12.111   8.491  1.00  0.00    -0.260 OA
HETATM   20  C1  UNK     1      11.961   5.594   9.188  1.00  0.00     0.099 C 
HETATM   21  C3  UNK     1      11.475   7.036   9.096  1.00  0.00     0.057 C 
HETATM   22  C6  UNK     1      10.941   4.654   9.860  1.00  0.00     0.052 C 
HETATM   23  C7  UNK     1      12.301   5.043   7.793  1.00  0.00     0.052 C 
HETATM   24 Cl1  UNK     1       9.791   7.227   8.669  1.00  0.00    -0.085 Cl
ENDBRANCH   3   7
TORSDOF 1
ENDMDL
MODEL 8
REMARK VINA RESULT:      -7.4      2.878      5.254
REMARK  1 active torsions:
REMARK  status: ('A' for Active; 'I' for Inactive)
REMARK    1  A    between atoms: C12_18  and  C4_10 
ROOT
HETATM    1  N1  UNK     1      28.026  -6.549  33.726  1.00  0.00    -0.191 NA
HETATM    2  N2  UNK     1      29.459 -10.348  31.874  1.00  0.00    -0.191 NA
HETATM    3  C12 UNK     1      28.828  -9.631  35.168  1.00  0.00     0.048 C 
HETATM    4  C16 UNK     1      28.778  -9.012  33.984  1.00  0.00     0.125 C 
HETATM    5  C17 UNK     1      29.155  -9.750  32.820  1.00  0.00     0.111 C 
HETATM    6  C18 UNK     1      28.363  -7.653  33.845  1.00  0.00     0.111 C 
ENDROOT
BRANCH   3   7
HETATM    7  C4  UNK     1      28.486  -9.055  36.458  1.00  0.00     0.003 C 
HETATM    8  C2  UNK     1      29.374  -8.088  37.164  1.00  0.00     0.044 A 
HETATM    9  C5  UNK     1      28.828  -7.278  38.166  1.00  0.00     0.084 A 
HETATM   10  C8  UNK     1      30.750  -7.926  36.907  1.00  0.00     0.103 A 
HETATM   11  C10 UNK     1      29.586  -6.295  38.814  1.00  0.00     0.039 A 
HETATM   12  O1  UNK     1      27.525  -7.375  38.569  1.00  0.00    -0.334 OA
HETATM   13  C11 UNK     1      30.933  -6.135  38.509  1.00  0.00     0.017 A 
HETATM   14  C9  UNK     1      31.529  -6.963  37.560  1.00  0.00    -0.001 A 
HETATM   15  C13 UNK     1      32.944  -6.845  37.241  1.00  0.00     0.020 A 
HETATM   16  C14 UNK     1      33.512  -7.658  36.350  1.00  0.00     0.083 A 
HETATM   17  C15 UNK     1      32.741  -8.703  35.659  1.00  0.00     0.288 A 
HETATM   18  O2  UNK     1      31.391  -8.787  35.979  1.00  0.00    -0.274 OA
HETATM   19  O3  UNK     1      33.267  -9.455  34.846  1.00  0.00    -0.260 OA
HETATM   20  C1  UNK     1      26.889  -8.659  38.378  1.00  0.00     0.099 C 
HETATM   21  C3  UNK     1      27.321  -9.338  37.083  1.00  0.00     0.057 C 
HETATM   22  C6  UNK     1      25.388  -8.308  38.406  1.00  0.00     0.052 C 
HETATM   23  C7  UNK     1      27.217  -9.542  39.593  1.00  0.00     0.052 C 
HETATM   24 Cl1  UNK     1      26.199 -10.523  36.456  1.00  0.00    -0.085 Cl
ENDBRANCH   3   7
TORSDOF 1
ENDMDL
MODEL 9
REMARK VINA RESULT:      -7.4      2.903      6.196
REMARK  1 active torsions:
REMARK  status: ('A' for Active; 'I' for Inactive)
REMARK    1  A    between atoms: C12_18  and  C4_10 
ROOT
HETATM    1  N1  UNK     1      33.259  -9.542  34.441  1.00  0.00    -0.191 NA
HETATM    2  N2  UNK     1      35.436  -7.242  31.297  1.00  0.00    -0.191 NA
HETATM    3  C12 UNK     1      33.098  -6.162  33.562  1.00  0.00     0.048 C 
HETATM    4  C16 UNK     1      33.715  -7.301  33.230  1.00  0.00     0.125 C 
HETATM    5  C17 UNK     1      34.664  -7.266  32.163  1.00  0.00     0.111 C 
HETATM    6  C18 UNK     1      33.460  -8.536  33.900  1.00  0.00     0.111 C 
ENDROOT
BRANCH   3   7
HETATM    7  C4  UNK     1      32.108  -5.992  34.614  1.00  0.00     0.003 C 
HETATM    8  C2  UNK     1      30.649  -6.190  34.380  1.00  0.00     0.044 A 
HETATM    9  C5  UNK     1      29.813  -6.412  35.480  1.00  0.00     0.084 A 
HETATM   10  C8  UNK     1      30.028  -6.161  33.115  1.00  0.00     0.103 A 
HETATM   11  C10 UNK     1      28.449  -6.683  35.325  1.00  0.00     0.039 A 
HETATM   12  O1  UNK     1      30.267  -6.395  36.769  1.00  0.00    -0.334 OA
HETATM   13  C11 UNK     1      27.873  -6.685  34.059  1.00  0.00     0.017 A 
HETATM   14  C9  UNK     1      28.660  -6.408  32.943  1.00  0.00    -0.001 A 
HETATM   15  C13 UNK     1      28.084  -6.371  31.607  1.00  0.00     0.020 A 
HETATM   16  C14 UNK     1      28.840  -6.081  30.548  1.00  0.00     0.083 A 
HETATM   17  C15 UNK     1      30.275  -5.786  30.681  1.00  0.00     0.288 A 
HETATM   18  O2  UNK     1      30.798  -5.838  31.968  1.00  0.00    -0.274 OA
HETATM   19  O3  UNK     1      30.966  -5.512  29.707  1.00  0.00    -0.260 OA
HETATM   20  C1  UNK     1      31.449  -5.605  37.024  1.00  0.00     0.099 C 
HETATM   21  C3  UNK     1      32.456  -5.674  35.881  1.00  0.00     0.057 C 
HETATM   22  C6  UNK     1      31.986  -6.199  38.341  1.00  0.00     0.052 C 
HETATM   23  C7  UNK     1      31.010  -4.153  37.276  1.00  0.00     0.052 C 
HETATM   24 Cl1  UNK     1      34.107  -5.309  36.323  1.00  0.00    -0.085 Cl
ENDBRANCH   3   7
TORSDOF 1
ENDMDL
MODEL 10
REMARK VINA RESULT:      -7.2     13.374     14.828
REMARK  1 active torsions:
REMARK  status: ('A' for Active; 'I' for Inactive)
REMARK    1  A    between atoms: C12_18  and  C4_10 
ROOT
HETATM    1  N1  UNK     1      20.643   3.293  36.088  1.00  0.00    -0.191 NA
HETATM    2  N2  UNK     1      17.267   0.787  37.585  1.00  0.00    -0.191 NA
HETATM    3  C12 UNK     1      17.714   2.227  34.504  1.00  0.00     0.048 C 
HETATM    4  C16 UNK     1      18.360   2.148  35.673  1.00  0.00     0.125 C 
HETATM    5  C17 UNK     1      17.755   1.397  36.727  1.00  0.00     0.111 C 
HETATM    6  C18 UNK     1      19.619   2.781  35.898  1.00  0.00     0.111 C 
ENDROOT
BRANCH   3   7
HETATM    7  C4  UNK     1      18.163   2.937  33.318  1.00  0.00     0.003 C 
HETATM    8  C2  UNK     1      18.602   2.232  32.080  1.00  0.00     0.044 A 
HETATM    9  C5  UNK     1      18.628   2.940  30.873  1.00  0.00     0.084 A 
HETATM   10  C8  UNK     1      19.012   0.885  32.027  1.00  0.00     0.103 A 
HETATM   11  C10 UNK     1      18.955   2.319  29.662  1.00  0.00     0.039 A 
HETATM   12  O1  UNK     1      18.324   4.270  30.788  1.00  0.00    -0.334 OA
HETATM   13  C11 UNK     1      19.318   0.976  29.638  1.00  0.00     0.017 A 
HETATM   14  C9  UNK     1      19.364   0.252  30.827  1.00  0.00    -0.001 A 
HETATM   15  C13 UNK     1      19.771  -1.145  30.843  1.00  0.00     0.020 A 
HETATM   16  C14 UNK     1      19.836  -1.823  31.989  1.00  0.00     0.083 A 
HETATM   17  C15 UNK     1      19.504  -1.193  33.277  1.00  0.00     0.288 A 
HETATM   18  O2  UNK     1      19.111   0.139  33.229  1.00  0.00    -0.274 OA
HETATM   19  O3  UNK     1      19.572  -1.817  34.330  1.00  0.00    -0.260 OA
HETATM   20  C1  UNK     1      18.533   5.053  31.984  1.00  0.00     0.099 C 
HETATM   21  C3  UNK     1      18.178   4.288  33.254  1.00  0.00     0.057 C 
HETATM   22  C6  UNK     1      17.639   6.286  31.750  1.00  0.00     0.052 C 
HETATM   23  C7  UNK     1      20.004   5.503  32.012  1.00  0.00     0.052 C 
HETATM   24 Cl1  UNK     1      17.791   5.284  34.638  1.00  0.00    -0.085 Cl
ENDBRANCH   3   7
TORSDOF 1
ENDMDL
