MODEL 1
REMARK VINA RESULT:      -9.3      0.000      0.000
REMARK  4 active torsions:
REMARK  status: ('A' for Active; 'I' for Inactive)
REMARK       I    between atoms: C7_15  and  N1_6 
REMARK    1  A    between atoms: C10_18  and  N2_7 
REMARK    2  A    between atoms: C10_18  and  N3_8 
REMARK    3  A    between atoms: C11_19  and  N3_8 
REMARK    4  A    between atoms: C1_9  and  C7_15 
ROOT
HETATM    1  S1  UNK     1      19.878   5.891  31.478  1.00  0.00    -0.041 SA
HETATM    2  C10 UNK     1      18.315   5.580  32.002  1.00  0.00     0.174 C 
ENDROOT
BRANCH   2   3
HETATM    3  N2  UNK     1      17.627   6.530  32.681  1.00  0.00    -0.355 N 
HETATM    4  C5  UNK     1      18.272   7.381  33.674  1.00  0.00     0.145 C 
HETATM    5  C2  UNK     1      17.908   8.845  33.447  1.00  0.00     0.145 C 
HETATM    6  N1  UNK     1      16.455   9.008  33.328  1.00  0.00    -0.347 N 
HETATM    7  C3  UNK     1      15.828   8.162  32.302  1.00  0.00     0.145 C 
HETATM    8  C7  UNK     1      15.794   9.949  34.114  1.00  0.00     0.248 C 
HETATM    9  C6  UNK     1      16.186   6.695  32.523  1.00  0.00     0.145 C 
HETATM   10  O2  UNK     1      16.345  10.647  34.969  1.00  0.00    -0.270 OA
BRANCH   8  11
HETATM   11  C1  UNK     1      14.322  10.097  33.886  1.00  0.00     0.213 C 
HETATM   12  O1  UNK     1      13.766  10.559  35.120  1.00  0.00    -0.376 OA
HETATM   13  C9  UNK     1      13.224  11.871  34.915  1.00  0.00     0.168 C 
HETATM   14  C8  UNK     1      13.842  12.395  33.639  1.00  0.00     0.029 C 
HETATM   15  C4  UNK     1      14.000  11.133  32.825  1.00  0.00     0.043 C 
ENDBRANCH   8  11
ENDBRANCH   2   3
BRANCH   2  16
HETATM   16  N3  UNK     1      17.711   4.390  31.690  1.00  0.00    -0.333 N 
HETATM   17  H16 UNK     1      16.694   4.401  31.736  1.00  0.00     0.168 HD
BRANCH  16  18
HETATM   18  C11 UNK     1      18.254   3.145  31.291  1.00  0.00     0.036 A 
HETATM   19  C12 UNK     1      18.459   2.161  32.237  1.00  0.00     0.067 A 
HETATM   20  C15 UNK     1      18.995   0.940  31.821  1.00  0.00     0.092 A 
HETATM   21  C14 UNK     1      19.327   0.686  30.490  1.00  0.00     0.004 A 
HETATM   22  O3  UNK     1      19.187  -0.036  32.819  1.00  0.00    -0.275 OA
HETATM   23  C16 UNK     1      19.104   1.709  29.558  1.00  0.00     0.017 A 
HETATM   24  C17 UNK     1      19.885  -0.627  30.142  1.00  0.00    -0.043 A 
HETATM   25  C13 UNK     1      18.568   2.938  29.959  1.00  0.00     0.030 A 
HETATM   26  C18 UNK     1      20.058  -1.536  31.112  1.00  0.00     0.090 A 
HETATM   27  C19 UNK     1      20.253  -0.931  28.719  1.00  0.00     0.049 C 
HETATM   28  C20 UNK     1      19.712  -1.284  32.521  1.00  0.00     0.288 A 
HETATM   29  O4  UNK     1      19.884  -2.141  33.381  1.00  0.00    -0.260 OA
ENDBRANCH  16  18
ENDBRANCH   2  16
TORSDOF 4
ENDMDL
MODEL 2
REMARK VINA RESULT:      -9.0      5.437     10.856
REMARK  4 active torsions:
REMARK  status: ('A' for Active; 'I' for Inactive)
REMARK       I    between atoms: C7_15  and  N1_6 
REMARK    1  A    between atoms: C10_18  and  N2_7 
REMARK    2  A    between atoms: C10_18  and  N3_8 
REMARK    3  A    between atoms: C11_19  and  N3_8 
REMARK    4  A    between atoms: C1_9  and  C7_15 
ROOT
HETATM    1  S1  UNK     1      15.705   0.922  36.337  1.00  0.00    -0.041 SA
HETATM    2  C10 UNK     1      17.314   0.612  35.980  1.00  0.00     0.174 C 
ENDROOT
BRANCH   2   3
HETATM    3  N2  UNK     1      17.777  -0.662  35.990  1.00  0.00    -0.355 N 
HETATM    4  C5  UNK     1      18.262  -1.311  34.778  1.00  0.00     0.145 C 
HETATM    5  C2  UNK     1      19.606  -1.987  35.029  1.00  0.00     0.145 C 
HETATM    6  N1  UNK     1      19.543  -2.843  36.219  1.00  0.00    -0.347 N 
HETATM    7  C3  UNK     1      19.080  -2.163  37.436  1.00  0.00     0.145 C 
HETATM    8  C7  UNK     1      19.961  -4.171  36.143  1.00  0.00     0.248 C 
HETATM    9  C6  UNK     1      17.735  -1.485  37.194  1.00  0.00     0.145 C 
HETATM   10  O2  UNK     1      20.345  -4.718  35.106  1.00  0.00    -0.270 OA
BRANCH   8  11
HETATM   11  C1  UNK     1      19.925  -4.958  37.416  1.00  0.00     0.213 C 
HETATM   12  O1  UNK     1      19.065  -6.075  37.177  1.00  0.00    -0.376 OA
HETATM   13  C9  UNK     1      19.839  -7.278  37.271  1.00  0.00     0.168 C 
HETATM   14  C8  UNK     1      21.288  -6.866  37.141  1.00  0.00     0.029 C 
HETATM   15  C4  UNK     1      21.287  -5.506  37.798  1.00  0.00     0.043 C 
ENDBRANCH   8  11
ENDBRANCH   2   3
BRANCH   2  16
HETATM   16  N3  UNK     1      18.147   1.639  35.616  1.00  0.00    -0.333 N 
HETATM   17  H16 UNK     1      18.807   1.929  36.335  1.00  0.00     0.168 HD
BRANCH  16  18
HETATM   18  C11 UNK     1      18.265   2.357  34.402  1.00  0.00     0.036 A 
HETATM   19  C12 UNK     1      18.268   1.668  33.206  1.00  0.00     0.067 A 
HETATM   20  C15 UNK     1      18.385   2.397  32.020  1.00  0.00     0.092 A 
HETATM   21  C14 UNK     1      18.498   3.787  32.007  1.00  0.00     0.004 A 
HETATM   22  O3  UNK     1      18.384   1.654  30.822  1.00  0.00    -0.275 OA
HETATM   23  C16 UNK     1      18.490   4.452  33.241  1.00  0.00     0.017 A 
HETATM   24  C17 UNK     1      18.616   4.472  30.712  1.00  0.00    -0.043 A 
HETATM   25  C13 UNK     1      18.374   3.736  34.438  1.00  0.00     0.030 A 
HETATM   26  C18 UNK     1      18.612   3.741  29.589  1.00  0.00     0.090 A 
HETATM   27  C19 UNK     1      18.739   5.967  30.665  1.00  0.00     0.049 C 
HETATM   28  C20 UNK     1      18.494   2.273  29.586  1.00  0.00     0.288 A 
HETATM   29  O4  UNK     1      18.495   1.637  28.538  1.00  0.00    -0.260 OA
ENDBRANCH  16  18
ENDBRANCH   2  16
TORSDOF 4
ENDMDL
MODEL 3
REMARK VINA RESULT:      -8.9      1.398      2.008
REMARK  4 active torsions:
REMARK  status: ('A' for Active; 'I' for Inactive)
REMARK       I    between atoms: C7_15  and  N1_6 
REMARK    1  A    between atoms: C10_18  and  N2_7 
REMARK    2  A    between atoms: C10_18  and  N3_8 
REMARK    3  A    between atoms: C11_19  and  N3_8 
REMARK    4  A    between atoms: C1_9  and  C7_15 
ROOT
HETATM    1  S1  UNK     1      20.153   6.256  32.593  1.00  0.00    -0.041 SA
HETATM    2  C10 UNK     1      18.484   6.089  32.585  1.00  0.00     0.174 C 
ENDROOT
BRANCH   2   3
HETATM    3  N2  UNK     1      17.707   7.025  33.180  1.00  0.00    -0.355 N 
HETATM    4  C5  UNK     1      18.245   7.952  34.169  1.00  0.00     0.145 C 
HETATM    5  C2  UNK     1      17.817   9.382  33.856  1.00  0.00     0.145 C 
HETATM    6  N1  UNK     1      16.367   9.458  33.647  1.00  0.00    -0.347 N 
HETATM    7  C3  UNK     1      15.849   8.536  32.626  1.00  0.00     0.145 C 
HETATM    8  C7  UNK     1      15.611  10.393  34.352  1.00  0.00     0.248 C 
HETATM    9  C6  UNK     1      16.271   7.102  32.932  1.00  0.00     0.145 C 
HETATM   10  O2  UNK     1      16.071  11.155  35.204  1.00  0.00    -0.270 OA
BRANCH   8  11
HETATM   11  C1  UNK     1      14.149  10.448  34.033  1.00  0.00     0.213 C 
HETATM   12  O1  UNK     1      13.510  11.038  35.168  1.00  0.00    -0.376 OA
HETATM   13  C9  UNK     1      12.934  12.289  34.770  1.00  0.00     0.168 C 
HETATM   14  C8  UNK     1      13.601  12.674  33.469  1.00  0.00     0.029 C 
HETATM   15  C4  UNK     1      13.849  11.327  32.833  1.00  0.00     0.043 C 
ENDBRANCH   8  11
ENDBRANCH   2   3
BRANCH   2  16
HETATM   16  N3  UNK     1      17.903   5.038  31.922  1.00  0.00    -0.333 N 
HETATM   17  H16 UNK     1      17.094   5.285  31.356  1.00  0.00     0.168 HD
BRANCH  16  18
HETATM   18  C11 UNK     1      18.245   3.666  31.869  1.00  0.00     0.036 A 
HETATM   19  C12 UNK     1      18.709   3.129  30.684  1.00  0.00     0.067 A 
HETATM   20  C15 UNK     1      19.041   1.773  30.654  1.00  0.00     0.092 A 
HETATM   21  C14 UNK     1      18.922   0.951  31.774  1.00  0.00     0.004 A 
HETATM   22  O3  UNK     1      19.510   1.267  29.425  1.00  0.00    -0.275 OA
HETATM   23  C16 UNK     1      18.449   1.531  32.959  1.00  0.00     0.017 A 
HETATM   24  C17 UNK     1      19.295  -0.465  31.651  1.00  0.00    -0.043 A 
HETATM   25  C13 UNK     1      18.111   2.889  33.005  1.00  0.00     0.030 A 
HETATM   26  C18 UNK     1      19.737  -0.919  30.471  1.00  0.00     0.090 A 
HETATM   27  C19 UNK     1      19.178  -1.375  32.839  1.00  0.00     0.049 C 
HETATM   28  C20 UNK     1      19.870  -0.064  29.279  1.00  0.00     0.288 A 
HETATM   29  O4  UNK     1      20.278  -0.515  28.215  1.00  0.00    -0.260 OA
ENDBRANCH  16  18
ENDBRANCH   2  16
TORSDOF 4
ENDMDL
MODEL 4
REMARK VINA RESULT:      -8.7     16.438     18.959
REMARK  4 active torsions:
REMARK  status: ('A' for Active; 'I' for Inactive)
REMARK       I    between atoms: C7_15  and  N1_6 
REMARK    1  A    between atoms: C10_18  and  N2_7 
REMARK    2  A    between atoms: C10_18  and  N3_8 
REMARK    3  A    between atoms: C11_19  and  N3_8 
REMARK    4  A    between atoms: C1_9  and  C7_15 
ROOT
HETATM    1  S1  UNK     1      35.092  -5.843  36.530  1.00  0.00    -0.041 SA
HETATM    2  C10 UNK     1      33.498  -6.367  36.513  1.00  0.00     0.174 C 
ENDROOT
BRANCH   2   3
HETATM    3  N2  UNK     1      32.827  -6.458  35.339  1.00  0.00    -0.355 N 
HETATM    4  C5  UNK     1      32.934  -7.635  34.485  1.00  0.00     0.145 C 
HETATM    5  C2  UNK     1      31.552  -8.109  34.045  1.00  0.00     0.145 C 
HETATM    6  N1  UNK     1      30.773  -6.998  33.490  1.00  0.00    -0.347 N 
HETATM    7  C3  UNK     1      30.653  -5.833  34.378  1.00  0.00     0.145 C 
HETATM    8  C7  UNK     1      30.173  -7.126  32.239  1.00  0.00     0.248 C 
HETATM    9  C6  UNK     1      32.031  -5.351  34.821  1.00  0.00     0.145 C 
HETATM   10  O2  UNK     1      30.290  -8.116  31.513  1.00  0.00    -0.270 OA
BRANCH   8  11
HETATM   11  C1  UNK     1      29.342  -5.971  31.773  1.00  0.00     0.213 C 
HETATM   12  O1  UNK     1      29.210  -6.113  30.356  1.00  0.00    -0.376 OA
HETATM   13  C9  UNK     1      27.828  -6.333  30.045  1.00  0.00     0.168 C 
HETATM   14  C8  UNK     1      27.161  -6.761  31.333  1.00  0.00     0.029 C 
HETATM   15  C4  UNK     1      27.945  -5.984  32.364  1.00  0.00     0.043 C 
ENDBRANCH   8  11
ENDBRANCH   2   3
BRANCH   2  16
HETATM   16  N3  UNK     1      32.894  -6.763  37.678  1.00  0.00    -0.333 N 
HETATM   17  H16 UNK     1      33.492  -6.733  38.502  1.00  0.00     0.168 HD
BRANCH  16  18
HETATM   18  C11 UNK     1      31.570  -7.189  37.944  1.00  0.00     0.036 A 
HETATM   19  C12 UNK     1      30.569  -6.247  38.071  1.00  0.00     0.067 A 
HETATM   20  C15 UNK     1      29.270  -6.690  38.332  1.00  0.00     0.092 A 
HETATM   21  C14 UNK     1      28.955  -8.042  38.466  1.00  0.00     0.004 A 
HETATM   22  O3  UNK     1      28.279  -5.695  38.454  1.00  0.00    -0.275 OA
HETATM   23  C16 UNK     1      29.998  -8.969  38.330  1.00  0.00     0.017 A 
HETATM   24  C17 UNK     1      27.562  -8.417  38.740  1.00  0.00    -0.043 A 
HETATM   25  C13 UNK     1      31.306  -8.541  38.069  1.00  0.00     0.030 A 
HETATM   26  C18 UNK     1      26.640  -7.450  38.852  1.00  0.00     0.090 A 
HETATM   27  C19 UNK     1      27.192  -9.864  38.890  1.00  0.00     0.049 C 
HETATM   28  C20 UNK     1      26.956  -6.019  38.712  1.00  0.00     0.288 A 
HETATM   29  O4  UNK     1      26.085  -5.162  38.820  1.00  0.00    -0.260 OA
ENDBRANCH  16  18
ENDBRANCH   2  16
TORSDOF 4
ENDMDL
MODEL 5
REMARK VINA RESULT:      -8.7      4.555     11.231
REMARK  4 active torsions:
REMARK  status: ('A' for Active; 'I' for Inactive)
REMARK       I    between atoms: C7_15  and  N1_6 
REMARK    1  A    between atoms: C10_18  and  N2_7 
REMARK    2  A    between atoms: C10_18  and  N3_8 
REMARK    3  A    between atoms: C11_19  and  N3_8 
REMARK    4  A    between atoms: C1_9  and  C7_15 
ROOT
HETATM    1  S1  UNK     1      18.348   1.578  36.540  1.00  0.00    -0.041 SA
HETATM    2  C10 UNK     1      18.178   0.563  35.215  1.00  0.00     0.174 C 
ENDROOT
BRANCH   2   3
HETATM    3  N2  UNK     1      18.426  -0.763  35.341  1.00  0.00    -0.355 N 
HETATM    4  C5  UNK     1      18.917  -1.561  34.223  1.00  0.00     0.145 C 
HETATM    5  C2  UNK     1      20.103  -2.419  34.653  1.00  0.00     0.145 C 
HETATM    6  N1  UNK     1      19.787  -3.171  35.871  1.00  0.00    -0.347 N 
HETATM    7  C3  UNK     1      19.321  -2.346  36.995  1.00  0.00     0.145 C 
HETATM    8  C7  UNK     1      19.990  -4.550  35.910  1.00  0.00     0.248 C 
HETATM    9  C6  UNK     1      18.134  -1.486  36.574  1.00  0.00     0.145 C 
HETATM   10  O2  UNK     1      20.381  -5.219  34.950  1.00  0.00    -0.270 OA
BRANCH   8  11
HETATM   11  C1  UNK     1      19.703  -5.233  37.210  1.00  0.00     0.213 C 
HETATM   12  O1  UNK     1      19.124  -6.499  36.883  1.00  0.00    -0.376 OA
HETATM   13  C9  UNK     1      20.007  -7.536  37.332  1.00  0.00     0.168 C 
HETATM   14  C8  UNK     1      21.354  -6.885  37.555  1.00  0.00     0.029 C 
HETATM   15  C4  UNK     1      20.961  -5.501  38.015  1.00  0.00     0.043 C 
ENDBRANCH   8  11
ENDBRANCH   2   3
BRANCH   2  16
HETATM   16  N3  UNK     1      17.728   1.064  34.021  1.00  0.00    -0.333 N 
HETATM   17  H16 UNK     1      17.045   0.480  33.542  1.00  0.00     0.168 HD
BRANCH  16  18
HETATM   18  C11 UNK     1      18.032   2.268  33.341  1.00  0.00     0.036 A 
HETATM   19  C12 UNK     1      18.109   3.447  34.055  1.00  0.00     0.067 A 
HETATM   20  C15 UNK     1      18.411   4.623  33.365  1.00  0.00     0.092 A 
HETATM   21  C14 UNK     1      18.636   4.643  31.988  1.00  0.00     0.004 A 
HETATM   22  O3  UNK     1      18.479   5.804  34.131  1.00  0.00    -0.275 OA
HETATM   23  C16 UNK     1      18.549   3.427  31.297  1.00  0.00     0.017 A 
HETATM   24  C17 UNK     1      18.948   5.926  31.344  1.00  0.00    -0.043 A 
HETATM   25  C13 UNK     1      18.248   2.239  31.975  1.00  0.00     0.030 A 
HETATM   26  C18 UNK     1      19.006   7.033  32.098  1.00  0.00     0.090 A 
HETATM   27  C19 UNK     1      19.195   5.981  29.865  1.00  0.00     0.049 C 
HETATM   28  C20 UNK     1      18.771   7.028  33.552  1.00  0.00     0.288 A 
HETATM   29  O4  UNK     1      18.834   8.062  34.209  1.00  0.00    -0.260 OA
ENDBRANCH  16  18
ENDBRANCH   2  16
TORSDOF 4
ENDMDL
MODEL 6
REMARK VINA RESULT:      -8.5      6.225     12.942
REMARK  4 active torsions:
REMARK  status: ('A' for Active; 'I' for Inactive)
REMARK       I    between atoms: C7_15  and  N1_6 
REMARK    1  A    between atoms: C10_18  and  N2_7 
REMARK    2  A    between atoms: C10_18  and  N3_8 
REMARK    3  A    between atoms: C11_19  and  N3_8 
REMARK    4  A    between atoms: C1_9  and  C7_15 
ROOT
HETATM    1  S1  UNK     1      18.526  -1.412  37.972  1.00  0.00    -0.041 SA
HETATM    2  C10 UNK     1      18.803  -2.268  36.556  1.00  0.00     0.174 C 
ENDROOT
BRANCH   2   3
HETATM    3  N2  UNK     1      19.615  -3.353  36.568  1.00  0.00    -0.355 N 
HETATM    4  C5  UNK     1      20.656  -3.520  37.576  1.00  0.00     0.145 C 
HETATM    5  C2  UNK     1      20.604  -4.921  38.176  1.00  0.00     0.145 C 
HETATM    6  N1  UNK     1      20.582  -5.939  37.121  1.00  0.00    -0.347 N 
HETATM    7  C3  UNK     1      19.508  -5.770  36.132  1.00  0.00     0.145 C 
HETATM    8  C7  UNK     1      21.498  -6.989  37.148  1.00  0.00     0.248 C 
HETATM    9  C6  UNK     1      19.553  -4.371  35.525  1.00  0.00     0.145 C 
HETATM   10  O2  UNK     1      22.391  -7.108  37.990  1.00  0.00    -0.270 OA
BRANCH   8  11
HETATM   11  C1  UNK     1      21.367  -8.020  36.070  1.00  0.00     0.213 C 
HETATM   12  O1  UNK     1      22.637  -8.671  35.976  1.00  0.00    -0.376 OA
HETATM   13  C9  UNK     1      22.475 -10.046  36.348  1.00  0.00     0.168 C 
HETATM   14  C8  UNK     1      21.165 -10.137  37.096  1.00  0.00     0.029 C 
HETATM   15  C4  UNK     1      20.336  -9.081  36.405  1.00  0.00     0.043 C 
ENDBRANCH   8  11
ENDBRANCH   2   3
BRANCH   2  16
HETATM   16  N3  UNK     1      18.160  -1.909  35.400  1.00  0.00    -0.333 N 
HETATM   17  H16 UNK     1      17.518  -2.608  35.032  1.00  0.00     0.168 HD
BRANCH  16  18
HETATM   18  C11 UNK     1      18.215  -0.720  34.633  1.00  0.00     0.036 A 
HETATM   19  C12 UNK     1      18.541  -0.793  33.294  1.00  0.00     0.067 A 
HETATM   20  C15 UNK     1      18.588   0.392  32.556  1.00  0.00     0.092 A 
HETATM   21  C14 UNK     1      18.319   1.637  33.125  1.00  0.00     0.004 A 
HETATM   22  O3  UNK     1      18.925   0.273  31.193  1.00  0.00    -0.275 OA
HETATM   23  C16 UNK     1      17.991   1.671  34.488  1.00  0.00     0.017 A 
HETATM   24  C17 UNK     1      18.392   2.832  32.274  1.00  0.00    -0.043 A 
HETATM   25  C13 UNK     1      17.939   0.492  35.241  1.00  0.00     0.030 A 
HETATM   26  C18 UNK     1      18.714   2.688  30.981  1.00  0.00     0.090 A 
HETATM   27  C19 UNK     1      18.107   4.185  32.858  1.00  0.00     0.049 C 
HETATM   28  C20 UNK     1      19.002   1.382  30.365  1.00  0.00     0.288 A 
HETATM   29  O4  UNK     1      19.294   1.290  29.178  1.00  0.00    -0.260 OA
ENDBRANCH  16  18
ENDBRANCH   2  16
TORSDOF 4
ENDMDL
MODEL 7
REMARK VINA RESULT:      -8.4     23.193     24.849
REMARK  4 active torsions:
REMARK  status: ('A' for Active; 'I' for Inactive)
REMARK       I    between atoms: C7_15  and  N1_6 
REMARK    1  A    between atoms: C10_18  and  N2_7 
REMARK    2  A    between atoms: C10_18  and  N3_8 
REMARK    3  A    between atoms: C11_19  and  N3_8 
REMARK    4  A    between atoms: C1_9  and  C7_15 
ROOT
HETATM    1  S1  UNK     1       9.668   6.184   5.948  1.00  0.00    -0.041 SA
HETATM    2  C10 UNK     1       9.703   6.533   7.588  1.00  0.00     0.174 C 
ENDROOT
BRANCH   2   3
HETATM    3  N2  UNK     1      10.883   6.548   8.253  1.00  0.00    -0.355 N 
HETATM    4  C5  UNK     1      11.444   5.340   8.847  1.00  0.00     0.145 C 
HETATM    5  C2  UNK     1      12.915   5.188   8.473  1.00  0.00     0.145 C 
HETATM    6  N1  UNK     1      13.653   6.425   8.750  1.00  0.00    -0.347 N 
HETATM    7  C3  UNK     1      13.089   7.626   8.119  1.00  0.00     0.145 C 
HETATM    8  C7  UNK     1      14.820   6.383   9.510  1.00  0.00     0.248 C 
HETATM    9  C6  UNK     1      11.617   7.787   8.489  1.00  0.00     0.145 C 
HETATM   10  O2  UNK     1      15.272   5.359  10.029  1.00  0.00    -0.270 OA
BRANCH   8  11
HETATM   11  C1  UNK     1      15.547   7.678   9.692  1.00  0.00     0.213 C 
HETATM   12  O1  UNK     1      14.589   8.612  10.198  1.00  0.00    -0.376 OA
HETATM   13  C9  UNK     1      14.986   9.005  11.519  1.00  0.00     0.168 C 
HETATM   14  C8  UNK     1      15.975   7.966  11.997  1.00  0.00     0.029 C 
HETATM   15  C4  UNK     1      16.667   7.578  10.711  1.00  0.00     0.043 C 
ENDBRANCH   8  11
ENDBRANCH   2   3
BRANCH   2  16
HETATM   16  N3  UNK     1       8.545   6.866   8.244  1.00  0.00    -0.333 N 
HETATM   17  H16 UNK     1       8.160   7.775   7.997  1.00  0.00     0.168 HD
BRANCH  16  18
HETATM   18  C11 UNK     1       7.774   6.152   9.193  1.00  0.00     0.036 A 
HETATM   19  C12 UNK     1       7.359   4.869   8.901  1.00  0.00     0.067 A 
HETATM   20  C15 UNK     1       6.600   4.183   9.852  1.00  0.00     0.092 A 
HETATM   21  C14 UNK     1       6.251   4.750  11.078  1.00  0.00     0.004 A 
HETATM   22  O3  UNK     1       6.197   2.876   9.513  1.00  0.00    -0.275 OA
HETATM   23  C16 UNK     1       6.692   6.055  11.339  1.00  0.00     0.017 A 
HETATM   24  C17 UNK     1       5.451   3.956  12.019  1.00  0.00    -0.043 A 
HETATM   25  C13 UNK     1       7.453   6.756  10.396  1.00  0.00     0.030 A 
HETATM   26  C18 UNK     1       5.081   2.716  11.671  1.00  0.00     0.090 A 
HETATM   27  C19 UNK     1       5.060   4.538  13.346  1.00  0.00     0.049 C 
HETATM   28  C20 UNK     1       5.441   2.103  10.380  1.00  0.00     0.288 A 
HETATM   29  O4  UNK     1       5.085   0.965  10.097  1.00  0.00    -0.260 OA
ENDBRANCH  16  18
ENDBRANCH   2  16
TORSDOF 4
ENDMDL
MODEL 8
REMARK VINA RESULT:      -8.4     16.533     18.022
REMARK  4 active torsions:
REMARK  status: ('A' for Active; 'I' for Inactive)
REMARK       I    between atoms: C7_15  and  N1_6 
REMARK    1  A    between atoms: C10_18  and  N2_7 
REMARK    2  A    between atoms: C10_18  and  N3_8 
REMARK    3  A    between atoms: C11_19  and  N3_8 
REMARK    4  A    between atoms: C1_9  and  C7_15 
ROOT
HETATM    1  S1  UNK     1      27.175  -9.895  39.690  1.00  0.00    -0.041 SA
HETATM    2  C10 UNK     1      27.020  -8.381  38.984  1.00  0.00     0.174 C 
ENDROOT
BRANCH   2   3
HETATM    3  N2  UNK     1      28.052  -7.851  38.283  1.00  0.00    -0.355 N 
HETATM    4  C5  UNK     1      28.201  -8.076  36.850  1.00  0.00     0.145 C 
HETATM    5  C2  UNK     1      28.474  -6.763  36.123  1.00  0.00     0.145 C 
HETATM    6  N1  UNK     1      29.573  -6.033  36.763  1.00  0.00    -0.347 N 
HETATM    7  C3  UNK     1      29.391  -5.791  38.201  1.00  0.00     0.145 C 
HETATM    8  C7  UNK     1      30.648  -5.584  35.997  1.00  0.00     0.248 C 
HETATM    9  C6  UNK     1      29.119  -7.100  38.936  1.00  0.00     0.145 C 
HETATM   10  O2  UNK     1      30.777  -5.801  34.790  1.00  0.00    -0.270 OA
BRANCH   8  11
HETATM   11  C1  UNK     1      31.696  -4.792  36.715  1.00  0.00     0.213 C 
HETATM   12  O1  UNK     1      32.677  -5.732  37.161  1.00  0.00    -0.376 OA
HETATM   13  C9  UNK     1      33.915  -5.454  36.493  1.00  0.00     0.168 C 
HETATM   14  C8  UNK     1      33.573  -4.597  35.295  1.00  0.00     0.029 C 
HETATM   15  C4  UNK     1      32.397  -3.799  35.806  1.00  0.00     0.043 C 
ENDBRANCH   8  11
ENDBRANCH   2   3
BRANCH   2  16
HETATM   16  N3  UNK     1      25.829  -7.706  39.062  1.00  0.00    -0.333 N 
HETATM   17  H16 UNK     1      25.889  -6.779  39.477  1.00  0.00     0.168 HD
BRANCH  16  18
HETATM   18  C11 UNK     1      24.525  -8.065  38.643  1.00  0.00     0.036 A 
HETATM   19  C12 UNK     1      24.357  -8.726  37.442  1.00  0.00     0.067 A 
HETATM   20  C15 UNK     1      23.062  -9.071  37.049  1.00  0.00     0.092 A 
HETATM   21  C14 UNK     1      21.942  -8.773  37.826  1.00  0.00     0.004 A 
HETATM   22  O3  UNK     1      22.936  -9.744  35.817  1.00  0.00    -0.275 OA
HETATM   23  C16 UNK     1      22.152  -8.103  39.038  1.00  0.00     0.017 A 
HETATM   24  C17 UNK     1      20.618  -9.175  37.334  1.00  0.00    -0.043 A 
HETATM   25  C13 UNK     1      23.444  -7.749  39.447  1.00  0.00     0.030 A 
HETATM   26  C18 UNK     1      20.528  -9.813  36.159  1.00  0.00     0.090 A 
HETATM   27  C19 UNK     1      19.393  -8.868  38.147  1.00  0.00     0.049 C 
HETATM   28  C20 UNK     1      21.700 -10.135  35.328  1.00  0.00     0.288 A 
HETATM   29  O4  UNK     1      21.579 -10.721  34.258  1.00  0.00    -0.260 OA
ENDBRANCH  16  18
ENDBRANCH   2  16
TORSDOF 4
ENDMDL
MODEL 9
REMARK VINA RESULT:      -8.4     17.230     19.844
REMARK  4 active torsions:
REMARK  status: ('A' for Active; 'I' for Inactive)
REMARK       I    between atoms: C7_15  and  N1_6 
REMARK    1  A    between atoms: C10_18  and  N2_7 
REMARK    2  A    between atoms: C10_18  and  N3_8 
REMARK    3  A    between atoms: C11_19  and  N3_8 
REMARK    4  A    between atoms: C1_9  and  C7_15 
ROOT
HETATM    1  S1  UNK     1      36.567  -7.409  34.804  1.00  0.00    -0.041 SA
HETATM    2  C10 UNK     1      34.936  -7.364  35.192  1.00  0.00     0.174 C 
ENDROOT
BRANCH   2   3
HETATM    3  N2  UNK     1      34.004  -7.429  34.210  1.00  0.00    -0.355 N 
HETATM    4  C5  UNK     1      33.550  -8.704  33.667  1.00  0.00     0.145 C 
HETATM    5  C2  UNK     1      32.027  -8.751  33.602  1.00  0.00     0.145 C 
HETATM    6  N1  UNK     1      31.498  -7.558  32.932  1.00  0.00    -0.347 N 
HETATM    7  C3  UNK     1      31.944  -6.283  33.513  1.00  0.00     0.145 C 
HETATM    8  C7  UNK     1      30.602  -7.695  31.874  1.00  0.00     0.248 C 
HETATM    9  C6  UNK     1      33.468  -6.228  33.580  1.00  0.00     0.145 C 
HETATM   10  O2  UNK     1      30.244  -8.778  31.405  1.00  0.00    -0.270 OA
BRANCH   8  11
HETATM   11  C1  UNK     1      30.060  -6.429  31.287  1.00  0.00     0.213 C 
HETATM   12  O1  UNK     1      29.508  -6.777  30.015  1.00  0.00    -0.376 OA
HETATM   13  C9  UNK     1      28.093  -6.545  30.051  1.00  0.00     0.168 C 
HETATM   14  C8  UNK     1      27.710  -6.459  31.511  1.00  0.00     0.029 C 
HETATM   15  C4  UNK     1      28.942  -5.834  32.122  1.00  0.00     0.043 C 
ENDBRANCH   8  11
ENDBRANCH   2   3
BRANCH   2  16
HETATM   16  N3  UNK     1      34.544  -7.326  36.505  1.00  0.00    -0.333 N 
HETATM   17  H16 UNK     1      35.232  -7.678  37.168  1.00  0.00     0.168 HD
BRANCH  16  18
HETATM   18  C11 UNK     1      33.351  -6.860  37.108  1.00  0.00     0.036 A 
HETATM   19  C12 UNK     1      32.310  -7.742  37.319  1.00  0.00     0.067 A 
HETATM   20  C15 UNK     1      31.142  -7.261  37.916  1.00  0.00     0.092 A 
HETATM   21  C14 UNK     1      30.996  -5.929  38.304  1.00  0.00     0.004 A 
HETATM   22  O3  UNK     1      30.105  -8.194  38.113  1.00  0.00    -0.275 OA
HETATM   23  C16 UNK     1      32.075  -5.063  38.074  1.00  0.00     0.017 A 
HETATM   24  C17 UNK     1      29.733  -5.510  38.925  1.00  0.00    -0.043 A 
HETATM   25  C13 UNK     1      33.252  -5.530  37.476  1.00  0.00     0.030 A 
HETATM   26  C18 UNK     1      28.764  -6.419  39.100  1.00  0.00     0.090 A 
HETATM   27  C19 UNK     1      29.546  -4.083  39.353  1.00  0.00     0.049 C 
HETATM   28  C20 UNK     1      28.902  -7.829  38.697  1.00  0.00     0.288 A 
HETATM   29  O4  UNK     1      27.992  -8.632  38.873  1.00  0.00    -0.260 OA
ENDBRANCH  16  18
ENDBRANCH   2  16
TORSDOF 4
ENDMDL
MODEL 10
REMARK VINA RESULT:      -8.4     14.193     17.556
REMARK  4 active torsions:
REMARK  status: ('A' for Active; 'I' for Inactive)
REMARK       I    between atoms: C7_15  and  N1_6 
REMARK    1  A    between atoms: C10_18  and  N2_7 
REMARK    2  A    between atoms: C10_18  and  N3_8 
REMARK    3  A    between atoms: C11_19  and  N3_8 
REMARK    4  A    between atoms: C1_9  and  C7_15 
ROOT
HETATM    1  S1  UNK     1      27.316  -9.958  39.714  1.00  0.00    -0.041 SA
HETATM    2  C10 UNK     1      26.900  -8.412  39.216  1.00  0.00     0.174 C 
ENDROOT
BRANCH   2   3
HETATM    3  N2  UNK     1      25.791  -8.218  38.462  1.00  0.00    -0.355 N 
HETATM    4  C5  UNK     1      25.619  -8.870  37.169  1.00  0.00     0.145 C 
HETATM    5  C2  UNK     1      24.238  -9.509  37.067  1.00  0.00     0.145 C 
HETATM    6  N1  UNK     1      23.191  -8.548  37.429  1.00  0.00    -0.347 N 
HETATM    7  C3  UNK     1      23.367  -7.923  38.748  1.00  0.00     0.145 C 
HETATM    8  C7  UNK     1      22.114  -8.335  36.571  1.00  0.00     0.248 C 
HETATM    9  C6  UNK     1      24.747  -7.280  38.859  1.00  0.00     0.145 C 
HETATM   10  O2  UNK     1      21.991  -8.873  35.468  1.00  0.00    -0.270 OA
BRANCH   8  11
HETATM   11  C1  UNK     1      21.058  -7.386  37.044  1.00  0.00     0.213 C 
HETATM   12  O1  UNK     1      20.758  -6.530  35.938  1.00  0.00    -0.376 OA
HETATM   13  C9  UNK     1      19.398  -6.753  35.543  1.00  0.00     0.168 C 
HETATM   14  C8  UNK     1      18.988  -8.078  36.145  1.00  0.00     0.029 C 
HETATM   15  C4  UNK     1      19.774  -8.093  37.434  1.00  0.00     0.043 C 
ENDBRANCH   8  11
ENDBRANCH   2   3
BRANCH   2  16
HETATM   16  N3  UNK     1      27.646  -7.336  39.622  1.00  0.00    -0.333 N 
HETATM   17  H16 UNK     1      27.412  -6.976  40.545  1.00  0.00     0.168 HD
BRANCH  16  18
HETATM   18  C11 UNK     1      28.708  -6.645  38.989  1.00  0.00     0.036 A 
HETATM   19  C12 UNK     1      29.888  -7.312  38.728  1.00  0.00     0.067 A 
HETATM   20  C15 UNK     1      30.922  -6.611  38.102  1.00  0.00     0.092 A 
HETATM   21  C14 UNK     1      30.800  -5.271  37.735  1.00  0.00     0.004 A 
HETATM   22  O3  UNK     1      32.109  -7.329  37.854  1.00  0.00    -0.275 OA
HETATM   23  C16 UNK     1      29.587  -4.628  38.016  1.00  0.00     0.017 A 
HETATM   24  C17 UNK     1      31.939  -4.614  37.080  1.00  0.00    -0.043 A 
HETATM   25  C13 UNK     1      28.541  -5.316  38.643  1.00  0.00     0.030 A 
HETATM   26  C18 UNK     1      33.055  -5.321  36.857  1.00  0.00     0.090 A 
HETATM   27  C19 UNK     1      31.838  -3.173  36.673  1.00  0.00     0.049 C 
HETATM   28  C20 UNK     1      33.200  -6.736  37.238  1.00  0.00     0.288 A 
HETATM   29  O4  UNK     1      34.238  -7.351  37.018  1.00  0.00    -0.260 OA
ENDBRANCH  16  18
ENDBRANCH   2  16
TORSDOF 4
ENDMDL
