MODEL 1
REMARK VINA RESULT:      -9.1      0.000      0.000
REMARK  4 active torsions:
REMARK  status: ('A' for Active; 'I' for Inactive)
REMARK    1  A    between atoms: C7_13  and  O2_2 
REMARK    2  A    between atoms: C11_17  and  O3_3 
REMARK    3  A    between atoms: C3_9  and  N1_6 
REMARK       I    between atoms: C6_12  and  N1_6 
REMARK    4  A    between atoms: C2_8  and  C6_12 
ROOT
HETATM    1  O4  UNK     1      17.596   3.357  32.846  1.00  0.00    -0.267 OA
HETATM    2  N1  UNK     1      18.639   4.852  31.356  1.00  0.00    -0.320 N 
HETATM    3  C6  UNK     1      18.239   3.611  31.829  1.00  0.00     0.262 C 
HETATM    4  H2  UNK     1      19.148   4.895  30.476  1.00  0.00     0.169 HD
ENDROOT
BRANCH   3   5
HETATM    5  C2  UNK     1      18.673   2.517  30.951  1.00  0.00     0.108 A 
HETATM    6  C10 UNK     1      18.648   2.636  29.477  1.00  0.00     0.304 A 
HETATM    7  O1  UNK     1      19.085   1.530  28.753  1.00  0.00    -0.274 OA
HETATM    8  O5  UNK     1      18.261   3.655  28.916  1.00  0.00    -0.259 OA
HETATM    9  C4  UNK     1      19.530   0.355  29.387  1.00  0.00     0.089 A 
HETATM   10  C1  UNK     1      19.546   0.264  30.775  1.00  0.00    -0.001 A 
HETATM   11  C12 UNK     1      19.949  -0.699  28.578  1.00  0.00     0.038 A 
HETATM   12  C5  UNK     1      19.095   1.402  31.560  1.00  0.00     0.037 A 
HETATM   13  C9  UNK     1      19.995  -0.919  31.368  1.00  0.00     0.014 A 
HETATM   14  C15 UNK     1      20.419  -1.985  30.569  1.00  0.00     0.001 A 
HETATM   15  C16 UNK     1      20.396  -1.874  29.176  1.00  0.00     0.003 A 
ENDBRANCH   3   5
BRANCH   2  16
HETATM   16  C3  UNK     1      18.397   6.119  31.941  1.00  0.00     0.071 A 
HETATM   17  C7  UNK     1      19.296   6.644  32.854  1.00  0.00     0.095 A 
HETATM   18  C13 UNK     1      19.044   7.893  33.420  1.00  0.00     0.042 A 
HETATM   19  C14 UNK     1      17.896   8.600  33.066  1.00  0.00     0.039 A 
HETATM   20  C11 UNK     1      17.000   8.059  32.145  1.00  0.00     0.070 A 
HETATM   21  C8  UNK     1      17.251   6.810  31.579  1.00  0.00     0.069 A 
BRANCH  17  22
HETATM   22  O2  UNK     1      20.424   5.968  33.213  1.00  0.00    -0.354 OA
HETATM   23  C17 UNK     1      21.631   6.318  32.539  1.00  0.00     0.210 C 
ENDBRANCH  17  22
BRANCH  20  24
HETATM   24  O3  UNK     1      15.879   8.750  31.800  1.00  0.00    -0.356 OA
HETATM   25  C18 UNK     1      15.204   9.455  32.841  1.00  0.00     0.210 C 
ENDBRANCH  20  24
ENDBRANCH   2  16
TORSDOF 4
ENDMDL
MODEL 2
REMARK VINA RESULT:      -8.8      8.177     12.391
REMARK  4 active torsions:
REMARK  status: ('A' for Active; 'I' for Inactive)
REMARK    1  A    between atoms: C7_13  and  O2_2 
REMARK    2  A    between atoms: C11_17  and  O3_3 
REMARK    3  A    between atoms: C3_9  and  N1_6 
REMARK       I    between atoms: C6_12  and  N1_6 
REMARK    4  A    between atoms: C2_8  and  C6_12 
ROOT
HETATM    1  O4  UNK     1      21.302  -4.459  36.862  1.00  0.00    -0.267 OA
HETATM    2  N1  UNK     1      19.058  -5.159  36.729  1.00  0.00    -0.320 N 
HETATM    3  C6  UNK     1      20.108  -4.257  36.646  1.00  0.00     0.262 C 
HETATM    4  H2  UNK     1      18.122  -4.838  36.492  1.00  0.00     0.169 HD
ENDROOT
BRANCH   3   5
HETATM    5  C2  UNK     1      19.658  -2.918  36.245  1.00  0.00     0.108 A 
HETATM    6  C10 UNK     1      19.960  -2.356  34.909  1.00  0.00     0.304 A 
HETATM    7  O1  UNK     1      19.479  -1.076  34.647  1.00  0.00    -0.274 OA
HETATM    8  O5  UNK     1      20.602  -2.982  34.073  1.00  0.00    -0.259 OA
HETATM    9  C4  UNK     1      18.742  -0.349  35.601  1.00  0.00     0.089 A 
HETATM   10  C1  UNK     1      18.469  -0.896  36.850  1.00  0.00    -0.001 A 
HETATM   11  C12 UNK     1      18.302   0.925  35.246  1.00  0.00     0.038 A 
HETATM   12  C5  UNK     1      18.958  -2.232  37.155  1.00  0.00     0.037 A 
HETATM   13  C9  UNK     1      17.734  -0.144  37.770  1.00  0.00     0.014 A 
HETATM   14  C15 UNK     1      17.286   1.135  37.428  1.00  0.00     0.001 A 
HETATM   15  C16 UNK     1      17.569   1.668  36.168  1.00  0.00     0.003 A 
ENDBRANCH   3   5
BRANCH   2  16
HETATM   16  C3  UNK     1      19.121  -6.529  37.084  1.00  0.00     0.071 A 
HETATM   17  C7  UNK     1      18.554  -7.486  36.257  1.00  0.00     0.095 A 
HETATM   18  C13 UNK     1      18.625  -8.830  36.620  1.00  0.00     0.042 A 
HETATM   19  C14 UNK     1      19.262  -9.200  37.804  1.00  0.00     0.039 A 
HETATM   20  C11 UNK     1      19.828  -8.226  38.625  1.00  0.00     0.070 A 
HETATM   21  C8  UNK     1      19.758  -6.881  38.263  1.00  0.00     0.069 A 
BRANCH  17  22
HETATM   22  O2  UNK     1      17.927  -7.144  35.096  1.00  0.00    -0.354 OA
HETATM   23  C17 UNK     1      16.533  -7.434  35.004  1.00  0.00     0.210 C 
ENDBRANCH  17  22
BRANCH  20  24
HETATM   24  O3  UNK     1      20.450  -8.588  39.781  1.00  0.00    -0.356 OA
HETATM   25  C18 UNK     1      21.874  -8.515  39.804  1.00  0.00     0.210 C 
ENDBRANCH  20  24
ENDBRANCH   2  16
TORSDOF 4
ENDMDL
MODEL 3
REMARK VINA RESULT:      -8.8      1.259      2.089
REMARK  4 active torsions:
REMARK  status: ('A' for Active; 'I' for Inactive)
REMARK    1  A    between atoms: C7_13  and  O2_2 
REMARK    2  A    between atoms: C11_17  and  O3_3 
REMARK    3  A    between atoms: C3_9  and  N1_6 
REMARK       I    between atoms: C6_12  and  N1_6 
REMARK    4  A    between atoms: C2_8  and  C6_12 
ROOT
HETATM    1  O4  UNK     1      18.563   4.495  30.166  1.00  0.00    -0.267 OA
HETATM    2  N1  UNK     1      18.047   4.528  32.463  1.00  0.00    -0.320 N 
HETATM    3  C6  UNK     1      18.437   3.953  31.263  1.00  0.00     0.262 C 
HETATM    4  H2  UNK     1      18.015   3.943  33.295  1.00  0.00     0.169 HD
ENDROOT
BRANCH   3   5
HETATM    5  C2  UNK     1      18.717   2.518  31.401  1.00  0.00     0.108 A 
HETATM    6  C10 UNK     1      18.379   1.767  32.631  1.00  0.00     0.304 A 
HETATM    7  O1  UNK     1      18.695   0.411  32.642  1.00  0.00    -0.274 OA
HETATM    8  O5  UNK     1      17.848   2.307  33.595  1.00  0.00    -0.259 OA
HETATM    9  C4  UNK     1      19.305  -0.219  31.540  1.00  0.00     0.089 A 
HETATM   10  C1  UNK     1      19.615   0.505  30.394  1.00  0.00    -0.001 A 
HETATM   11  C12 UNK     1      19.581  -1.581  31.645  1.00  0.00     0.038 A 
HETATM   12  C5  UNK     1      19.298   1.925  30.352  1.00  0.00     0.037 A 
HETATM   13  C9  UNK     1      20.220  -0.155  29.322  1.00  0.00     0.014 A 
HETATM   14  C15 UNK     1      20.503  -1.521  29.412  1.00  0.00     0.001 A 
HETATM   15  C16 UNK     1      20.184  -2.232  30.572  1.00  0.00     0.003 A 
ENDBRANCH   3   5
BRANCH   2  16
HETATM   16  C3  UNK     1      17.701   5.881  32.701  1.00  0.00     0.071 A 
HETATM   17  C7  UNK     1      18.605   6.728  33.322  1.00  0.00     0.095 A 
HETATM   18  C13 UNK     1      18.250   8.057  33.548  1.00  0.00     0.042 A 
HETATM   19  C14 UNK     1      16.997   8.522  33.151  1.00  0.00     0.039 A 
HETATM   20  C11 UNK     1      16.099   7.658  32.526  1.00  0.00     0.070 A 
HETATM   21  C8  UNK     1      16.452   6.328  32.299  1.00  0.00     0.069 A 
BRANCH  17  22
HETATM   22  O2  UNK     1      19.834   6.292  33.719  1.00  0.00    -0.354 OA
HETATM   23  C17 UNK     1      20.922   6.525  32.827  1.00  0.00     0.210 C 
ENDBRANCH  17  22
BRANCH  20  24
HETATM   24  O3  UNK     1      14.876   8.112  32.138  1.00  0.00    -0.356 OA
HETATM   25  C18 UNK     1      13.767   7.232  32.320  1.00  0.00     0.210 C 
ENDBRANCH  20  24
ENDBRANCH   2  16
TORSDOF 4
ENDMDL
MODEL 4
REMARK VINA RESULT:      -8.5     13.944     18.112
REMARK  4 active torsions:
REMARK  status: ('A' for Active; 'I' for Inactive)
REMARK    1  A    between atoms: C7_13  and  O2_2 
REMARK    2  A    between atoms: C11_17  and  O3_3 
REMARK    3  A    between atoms: C3_9  and  N1_6 
REMARK       I    between atoms: C6_12  and  N1_6 
REMARK    4  A    between atoms: C2_8  and  C6_12 
ROOT
HETATM    1  O4  UNK     1      20.269  -3.359  16.042  1.00  0.00    -0.267 OA
HETATM    2  N1  UNK     1      17.963  -3.230  15.584  1.00  0.00    -0.320 N 
HETATM    3  C6  UNK     1      19.217  -2.736  15.915  1.00  0.00     0.262 C 
HETATM    4  H2  UNK     1      17.191  -2.573  15.493  1.00  0.00     0.169 HD
ENDROOT
BRANCH   3   5
HETATM    5  C2  UNK     1      19.203  -1.282  16.122  1.00  0.00     0.108 A 
HETATM    6  C10 UNK     1      19.251  -0.328  14.992  1.00  0.00     0.304 A 
HETATM    7  O1  UNK     1      19.232   1.026  15.317  1.00  0.00    -0.274 OA
HETATM    8  O5  UNK     1      19.306  -0.705  13.827  1.00  0.00    -0.259 OA
HETATM    9  C4  UNK     1      19.170   1.470  16.652  1.00  0.00     0.089 A 
HETATM   10  C1  UNK     1      19.125   0.555  17.699  1.00  0.00    -0.001 A 
HETATM   11  C12 UNK     1      19.154   2.845  16.877  1.00  0.00     0.038 A 
HETATM   12  C5  UNK     1      19.143  -0.867  17.393  1.00  0.00     0.037 A 
HETATM   13  C9  UNK     1      19.064   1.034  19.010  1.00  0.00     0.014 A 
HETATM   14  C15 UNK     1      19.047   2.411  19.252  1.00  0.00     0.001 A 
HETATM   15  C16 UNK     1      19.092   3.314  18.186  1.00  0.00     0.003 A 
ENDBRANCH   3   5
BRANCH   2  16
HETATM   16  C3  UNK     1      17.607  -4.574  15.316  1.00  0.00     0.071 A 
HETATM   17  C7  UNK     1      17.861  -5.123  14.069  1.00  0.00     0.095 A 
HETATM   18  C13 UNK     1      17.506  -6.448  13.821  1.00  0.00     0.042 A 
HETATM   19  C14 UNK     1      16.900  -7.207  14.822  1.00  0.00     0.039 A 
HETATM   20  C11 UNK     1      16.651  -6.641  16.072  1.00  0.00     0.070 A 
HETATM   21  C8  UNK     1      17.007  -5.316  16.321  1.00  0.00     0.069 A 
BRANCH  17  22
HETATM   22  O2  UNK     1      18.452  -4.397  13.078  1.00  0.00    -0.354 OA
HETATM   23  C17 UNK     1      19.803  -4.719  12.756  1.00  0.00     0.210 C 
ENDBRANCH  17  22
BRANCH  20  24
HETATM   24  O3  UNK     1      16.060  -7.382  17.048  1.00  0.00    -0.356 OA
HETATM   25  C18 UNK     1      15.866  -6.754  18.314  1.00  0.00     0.210 C 
ENDBRANCH  20  24
ENDBRANCH   2  16
TORSDOF 4
ENDMDL
MODEL 5
REMARK VINA RESULT:      -8.5      8.580     12.447
REMARK  4 active torsions:
REMARK  status: ('A' for Active; 'I' for Inactive)
REMARK    1  A    between atoms: C7_13  and  O2_2 
REMARK    2  A    between atoms: C11_17  and  O3_3 
REMARK    3  A    between atoms: C3_9  and  N1_6 
REMARK       I    between atoms: C6_12  and  N1_6 
REMARK    4  A    between atoms: C2_8  and  C6_12 
ROOT
HETATM    1  O4  UNK     1      20.136  -5.293  35.356  1.00  0.00    -0.267 OA
HETATM    2  N1  UNK     1      20.249  -4.846  37.665  1.00  0.00    -0.320 N 
HETATM    3  C6  UNK     1      20.053  -4.542  36.326  1.00  0.00     0.262 C 
HETATM    4  H2  UNK     1      20.117  -4.111  38.355  1.00  0.00     0.169 HD
ENDROOT
BRANCH   3   5
HETATM    5  C2  UNK     1      19.707  -3.129  36.125  1.00  0.00     0.108 A 
HETATM    6  C10 UNK     1      20.150  -2.375  34.931  1.00  0.00     0.304 A 
HETATM    7  O1  UNK     1      19.759  -1.041  34.853  1.00  0.00    -0.274 OA
HETATM    8  O5  UNK     1      20.828  -2.894  34.051  1.00  0.00    -0.259 OA
HETATM    9  C4  UNK     1      18.981  -0.435  35.858  1.00  0.00     0.089 A 
HETATM   10  C1  UNK     1      18.575  -1.162  36.973  1.00  0.00    -0.001 A 
HETATM   11  C12 UNK     1      18.637   0.905  35.692  1.00  0.00     0.038 A 
HETATM   12  C5  UNK     1      18.968  -2.559  37.083  1.00  0.00     0.037 A 
HETATM   13  C9  UNK     1      17.804  -0.526  37.948  1.00  0.00     0.014 A 
HETATM   14  C15 UNK     1      17.451   0.818  37.795  1.00  0.00     0.001 A 
HETATM   15  C16 UNK     1      17.868   1.532  36.668  1.00  0.00     0.003 A 
ENDBRANCH   3   5
BRANCH   2  16
HETATM   16  C3  UNK     1      20.591  -6.102  38.225  1.00  0.00     0.071 A 
HETATM   17  C7  UNK     1      21.879  -6.331  38.679  1.00  0.00     0.095 A 
HETATM   18  C13 UNK     1      22.200  -7.571  39.229  1.00  0.00     0.042 A 
HETATM   19  C14 UNK     1      21.227  -8.567  39.316  1.00  0.00     0.039 A 
HETATM   20  C11 UNK     1      19.935  -8.322  38.855  1.00  0.00     0.070 A 
HETATM   21  C8  UNK     1      19.613  -7.082  38.305  1.00  0.00     0.069 A 
BRANCH  17  22
HETATM   22  O2  UNK     1      22.843  -5.370  38.602  1.00  0.00    -0.354 OA
HETATM   23  C17 UNK     1      24.139  -5.712  39.091  1.00  0.00     0.210 C 
ENDBRANCH  17  22
BRANCH  20  24
HETATM   24  O3  UNK     1      18.986  -9.295  38.940  1.00  0.00    -0.356 OA
HETATM   25  C18 UNK     1      19.343 -10.594  38.471  1.00  0.00     0.210 C 
ENDBRANCH  20  24
ENDBRANCH   2  16
TORSDOF 4
ENDMDL
MODEL 6
REMARK VINA RESULT:      -8.3      8.346     10.711
REMARK  4 active torsions:
REMARK  status: ('A' for Active; 'I' for Inactive)
REMARK    1  A    between atoms: C7_13  and  O2_2 
REMARK    2  A    between atoms: C11_17  and  O3_3 
REMARK    3  A    between atoms: C3_9  and  N1_6 
REMARK       I    between atoms: C6_12  and  N1_6 
REMARK    4  A    between atoms: C2_8  and  C6_12 
ROOT
HETATM    1  O4  UNK     1      21.355  -4.327  37.413  1.00  0.00    -0.267 OA
HETATM    2  N1  UNK     1      19.330  -4.223  36.216  1.00  0.00    -0.320 N 
HETATM    3  C6  UNK     1      20.393  -4.848  36.851  1.00  0.00     0.262 C 
HETATM    4  H2  UNK     1      18.594  -4.801  35.818  1.00  0.00     0.169 HD
ENDROOT
BRANCH   3   5
HETATM    5  C2  UNK     1      20.282  -6.311  36.806  1.00  0.00     0.108 A 
HETATM    6  C10 UNK     1      20.423  -7.071  35.543  1.00  0.00     0.304 A 
HETATM    7  O1  UNK     1      20.298  -8.455  35.629  1.00  0.00    -0.274 OA
HETATM    8  O5  UNK     1      20.640  -6.514  34.473  1.00  0.00    -0.259 OA
HETATM    9  C4  UNK     1      20.048  -9.104  36.853  1.00  0.00     0.089 A 
HETATM   10  C1  UNK     1      19.918  -8.371  38.028  1.00  0.00    -0.001 A 
HETATM   11  C12 UNK     1      19.939 -10.493  36.839  1.00  0.00     0.038 A 
HETATM   12  C5  UNK     1      20.045  -6.923  37.972  1.00  0.00     0.037 A 
HETATM   13  C9  UNK     1      19.671  -9.052  39.223  1.00  0.00     0.014 A 
HETATM   14  C15 UNK     1      19.559 -10.445  39.224  1.00  0.00     0.001 A 
HETATM   15  C16 UNK     1      19.693 -11.164  38.034  1.00  0.00     0.003 A 
ENDBRANCH   3   5
BRANCH   2  16
HETATM   16  C3  UNK     1      19.110  -2.831  36.067  1.00  0.00     0.071 A 
HETATM   17  C7  UNK     1      19.740  -2.134  35.050  1.00  0.00     0.095 A 
HETATM   18  C13 UNK     1      19.511  -0.765  34.916  1.00  0.00     0.042 A 
HETATM   19  C14 UNK     1      18.656  -0.111  35.802  1.00  0.00     0.039 A 
HETATM   20  C11 UNK     1      18.028  -0.827  36.821  1.00  0.00     0.070 A 
HETATM   21  C8  UNK     1      18.256  -2.195  36.955  1.00  0.00     0.069 A 
BRANCH  17  22
HETATM   22  O2  UNK     1      20.580  -2.755  34.174  1.00  0.00    -0.354 OA
HETATM   23  C17 UNK     1      20.517  -2.340  32.811  1.00  0.00     0.210 C 
ENDBRANCH  17  22
BRANCH  20  24
HETATM   24  O3  UNK     1      17.193  -0.188  37.686  1.00  0.00    -0.356 OA
HETATM   25  C18 UNK     1      17.539   1.145  38.060  1.00  0.00     0.210 C 
ENDBRANCH  20  24
ENDBRANCH   2  16
TORSDOF 4
ENDMDL
MODEL 7
REMARK VINA RESULT:      -8.3      4.252      7.975
REMARK  4 active torsions:
REMARK  status: ('A' for Active; 'I' for Inactive)
REMARK    1  A    between atoms: C7_13  and  O2_2 
REMARK    2  A    between atoms: C11_17  and  O3_3 
REMARK    3  A    between atoms: C3_9  and  N1_6 
REMARK       I    between atoms: C6_12  and  N1_6 
REMARK    4  A    between atoms: C2_8  and  C6_12 
ROOT
HETATM    1  O4  UNK     1      16.631   0.680  34.055  1.00  0.00    -0.267 OA
HETATM    2  N1  UNK     1      18.932   0.403  34.470  1.00  0.00    -0.320 N 
HETATM    3  C6  UNK     1      17.815   0.944  33.851  1.00  0.00     0.262 C 
HETATM    4  H2  UNK     1      19.851   0.749  34.204  1.00  0.00     0.169 HD
ENDROOT
BRANCH   3   5
HETATM    5  C2  UNK     1      18.173   1.948  32.841  1.00  0.00     0.108 A 
HETATM    6  C10 UNK     1      18.700   1.570  31.511  1.00  0.00     0.304 A 
HETATM    7  O1  UNK     1      19.003   2.613  30.640  1.00  0.00    -0.274 OA
HETATM    8  O5  UNK     1      18.862   0.399  31.187  1.00  0.00    -0.259 OA
HETATM    9  C4  UNK     1      18.821   3.962  31.002  1.00  0.00     0.089 A 
HETATM   10  C1  UNK     1      18.325   4.295  32.258  1.00  0.00    -0.001 A 
HETATM   11  C12 UNK     1      19.152   4.935  30.062  1.00  0.00     0.038 A 
HETATM   12  C5  UNK     1      17.998   3.228  33.191  1.00  0.00     0.037 A 
HETATM   13  C9  UNK     1      18.157   5.644  32.581  1.00  0.00     0.014 A 
HETATM   14  C15 UNK     1      18.485   6.632  31.648  1.00  0.00     0.001 A 
HETATM   15  C16 UNK     1      18.982   6.278  30.391  1.00  0.00     0.003 A 
ENDBRANCH   3   5
BRANCH   2  16
HETATM   16  C3  UNK     1      18.964  -0.584  35.486  1.00  0.00     0.071 A 
HETATM   17  C7  UNK     1      18.348  -0.346  36.704  1.00  0.00     0.095 A 
HETATM   18  C13 UNK     1      18.388  -1.328  37.693  1.00  0.00     0.042 A 
HETATM   19  C14 UNK     1      19.043  -2.535  37.451  1.00  0.00     0.039 A 
HETATM   20  C11 UNK     1      19.658  -2.760  36.220  1.00  0.00     0.070 A 
HETATM   21  C8  UNK     1      19.619  -1.779  35.231  1.00  0.00     0.069 A 
BRANCH  17  22
HETATM   22  O2  UNK     1      17.704   0.828  36.959  1.00  0.00    -0.354 OA
HETATM   23  C17 UNK     1      17.632   1.243  38.321  1.00  0.00     0.210 C 
ENDBRANCH  17  22
BRANCH  20  24
HETATM   24  O3  UNK     1      20.297  -3.939  35.985  1.00  0.00    -0.356 OA
HETATM   25  C18 UNK     1      19.661  -5.128  36.451  1.00  0.00     0.210 C 
ENDBRANCH  20  24
ENDBRANCH   2  16
TORSDOF 4
ENDMDL
MODEL 8
REMARK VINA RESULT:      -8.1     14.729     17.111
REMARK  4 active torsions:
REMARK  status: ('A' for Active; 'I' for Inactive)
REMARK    1  A    between atoms: C7_13  and  O2_2 
REMARK    2  A    between atoms: C11_17  and  O3_3 
REMARK    3  A    between atoms: C3_9  and  N1_6 
REMARK       I    between atoms: C6_12  and  N1_6 
REMARK    4  A    between atoms: C2_8  and  C6_12 
ROOT
HETATM    1  O4  UNK     1      25.999  -9.119  39.441  1.00  0.00    -0.267 OA
HETATM    2  N1  UNK     1      25.638  -8.523  37.192  1.00  0.00    -0.320 N 
HETATM    3  C6  UNK     1      26.231  -8.439  38.443  1.00  0.00     0.262 C 
HETATM    4  H2  UNK     1      25.963  -7.899  36.457  1.00  0.00     0.169 HD
ENDROOT
BRANCH   3   5
HETATM    5  C2  UNK     1      27.252  -7.385  38.503  1.00  0.00     0.108 A 
HETATM    6  C10 UNK     1      26.899  -5.959  38.681  1.00  0.00     0.304 A 
HETATM    7  O1  UNK     1      27.956  -5.054  38.722  1.00  0.00    -0.274 OA
HETATM    8  O5  UNK     1      25.735  -5.588  38.789  1.00  0.00    -0.259 OA
HETATM    9  C4  UNK     1      29.296  -5.469  38.599  1.00  0.00     0.089 A 
HETATM   10  C1  UNK     1      29.606  -6.815  38.431  1.00  0.00    -0.001 A 
HETATM   11  C12 UNK     1      30.285  -4.489  38.652  1.00  0.00     0.038 A 
HETATM   12  C5  UNK     1      28.523  -7.786  38.385  1.00  0.00     0.037 A 
HETATM   13  C9  UNK     1      30.947  -7.188  38.313  1.00  0.00     0.014 A 
HETATM   14  C15 UNK     1      31.950  -6.216  38.365  1.00  0.00     0.001 A 
HETATM   15  C16 UNK     1      31.619  -4.870  38.534  1.00  0.00     0.003 A 
ENDBRANCH   3   5
BRANCH   2  16
HETATM   16  C3  UNK     1      24.622  -9.418  36.776  1.00  0.00     0.071 A 
HETATM   17  C7  UNK     1      23.290  -9.063  36.906  1.00  0.00     0.095 A 
HETATM   18  C13 UNK     1      22.302  -9.955  36.491  1.00  0.00     0.042 A 
HETATM   19  C14 UNK     1      22.659 -11.190  35.951  1.00  0.00     0.039 A 
HETATM   20  C11 UNK     1      24.005 -11.533  35.826  1.00  0.00     0.070 A 
HETATM   21  C8  UNK     1      24.993 -10.642  36.241  1.00  0.00     0.069 A 
BRANCH  17  22
HETATM   22  O2  UNK     1      22.921  -7.861  37.432  1.00  0.00    -0.354 OA
HETATM   23  C17 UNK     1      22.185  -7.887  38.653  1.00  0.00     0.210 C 
ENDBRANCH  17  22
BRANCH  20  24
HETATM   24  O3  UNK     1      24.353 -12.739  35.299  1.00  0.00    -0.356 OA
HETATM   25  C18 UNK     1      24.718 -13.768  36.216  1.00  0.00     0.210 C 
ENDBRANCH  20  24
ENDBRANCH   2  16
TORSDOF 4
ENDMDL
MODEL 9
REMARK VINA RESULT:      -8.0      6.942      9.373
REMARK  4 active torsions:
REMARK  status: ('A' for Active; 'I' for Inactive)
REMARK    1  A    between atoms: C7_13  and  O2_2 
REMARK    2  A    between atoms: C11_17  and  O3_3 
REMARK    3  A    between atoms: C3_9  and  N1_6 
REMARK       I    between atoms: C6_12  and  N1_6 
REMARK    4  A    between atoms: C2_8  and  C6_12 
ROOT
HETATM    1  O4  UNK     1      20.581  -3.389  34.348  1.00  0.00    -0.267 OA
HETATM    2  N1  UNK     1      19.000  -2.373  35.765  1.00  0.00    -0.320 N 
HETATM    3  C6  UNK     1      19.870  -3.370  35.351  1.00  0.00     0.262 C 
HETATM    4  H2  UNK     1      18.498  -2.499  36.641  1.00  0.00     0.169 HD
ENDROOT
BRANCH   3   5
HETATM    5  C2  UNK     1      19.889  -4.509  36.278  1.00  0.00     0.108 A 
HETATM    6  C10 UNK     1      20.404  -4.388  37.660  1.00  0.00     0.304 A 
HETATM    7  O1  UNK     1      20.369  -5.539  38.443  1.00  0.00    -0.274 OA
HETATM    8  O5  UNK     1      20.839  -3.329  38.099  1.00  0.00    -0.259 OA
HETATM    9  C4  UNK     1      19.871  -6.760  37.948  1.00  0.00     0.089 A 
HETATM   10  C1  UNK     1      19.392  -6.851  36.645  1.00  0.00    -0.001 A 
HETATM   11  C12 UNK     1      19.876  -7.857  38.807  1.00  0.00     0.038 A 
HETATM   12  C5  UNK     1      19.414  -5.666  35.802  1.00  0.00     0.037 A 
HETATM   13  C9  UNK     1      18.906  -8.080  36.191  1.00  0.00     0.014 A 
HETATM   14  C15 UNK     1      18.904  -9.189  37.041  1.00  0.00     0.001 A 
HETATM   15  C16 UNK     1      19.389  -9.077  38.347  1.00  0.00     0.003 A 
ENDBRANCH   3   5
BRANCH   2  16
HETATM   16  C3  UNK     1      18.730  -1.139  35.123  1.00  0.00     0.071 A 
HETATM   17  C7  UNK     1      18.365  -0.033  35.872  1.00  0.00     0.095 A 
HETATM   18  C13 UNK     1      18.103   1.174  35.224  1.00  0.00     0.042 A 
HETATM   19  C14 UNK     1      18.210   1.258  33.836  1.00  0.00     0.039 A 
HETATM   20  C11 UNK     1      18.579   0.136  33.096  1.00  0.00     0.070 A 
HETATM   21  C8  UNK     1      18.841  -1.071  33.743  1.00  0.00     0.069 A 
BRANCH  17  22
HETATM   22  O2  UNK     1      18.254  -0.095  37.229  1.00  0.00    -0.354 OA
HETATM   23  C17 UNK     1      17.554   0.968  37.871  1.00  0.00     0.210 C 
ENDBRANCH  17  22
BRANCH  20  24
HETATM   24  O3  UNK     1      18.682   0.219  31.741  1.00  0.00    -0.356 OA
HETATM   25  C18 UNK     1      19.790  -0.442  31.132  1.00  0.00     0.210 C 
ENDBRANCH  20  24
ENDBRANCH   2  16
TORSDOF 4
ENDMDL
MODEL 10
REMARK VINA RESULT:      -8.0      1.864      7.836
REMARK  4 active torsions:
REMARK  status: ('A' for Active; 'I' for Inactive)
REMARK    1  A    between atoms: C7_13  and  O2_2 
REMARK    2  A    between atoms: C11_17  and  O3_3 
REMARK    3  A    between atoms: C3_9  and  N1_6 
REMARK       I    between atoms: C6_12  and  N1_6 
REMARK    4  A    between atoms: C2_8  and  C6_12 
ROOT
HETATM    1  O4  UNK     1      17.808   1.732  32.688  1.00  0.00    -0.267 OA
HETATM    2  N1  UNK     1      19.320   2.045  30.911  1.00  0.00    -0.320 N 
HETATM    3  C6  UNK     1      18.453   2.442  31.918  1.00  0.00     0.262 C 
HETATM    4  H2  UNK     1      19.802   2.762  30.373  1.00  0.00     0.169 HD
ENDROOT
BRANCH   3   5
HETATM    5  C2  UNK     1      18.349   3.903  32.015  1.00  0.00     0.108 A 
HETATM    6  C10 UNK     1      18.654   4.790  30.871  1.00  0.00     0.304 A 
HETATM    7  O1  UNK     1      18.518   6.159  31.087  1.00  0.00    -0.274 OA
HETATM    8  O5  UNK     1      19.009   4.347  29.784  1.00  0.00    -0.259 OA
HETATM    9  C4  UNK     1      18.111   6.678  32.331  1.00  0.00     0.089 A 
HETATM   10  C1  UNK     1      17.829   5.827  33.394  1.00  0.00    -0.001 A 
HETATM   11  C12 UNK     1      18.003   8.062  32.450  1.00  0.00     0.038 A 
HETATM   12  C5  UNK     1      17.962   4.391  33.200  1.00  0.00     0.037 A 
HETATM   13  C9  UNK     1      17.428   6.380  34.612  1.00  0.00     0.014 A 
HETATM   14  C15 UNK     1      17.315   7.766  34.748  1.00  0.00     0.001 A 
HETATM   15  C16 UNK     1      17.601   8.605  33.668  1.00  0.00     0.003 A 
ENDBRANCH   3   5
BRANCH   2  16
HETATM   16  C3  UNK     1      19.661   0.723  30.535  1.00  0.00     0.071 A 
HETATM   17  C7  UNK     1      19.511   0.315  29.220  1.00  0.00     0.095 A 
HETATM   18  C13 UNK     1      19.852  -0.990  28.866  1.00  0.00     0.042 A 
HETATM   19  C14 UNK     1      20.340  -1.870  29.832  1.00  0.00     0.039 A 
HETATM   20  C11 UNK     1      20.486  -1.444  31.152  1.00  0.00     0.070 A 
HETATM   21  C8  UNK     1      20.145  -0.140  31.506  1.00  0.00     0.069 A 
BRANCH  17  22
HETATM   22  O2  UNK     1      19.035   1.160  28.261  1.00  0.00    -0.354 OA
HETATM   23  C17 UNK     1      17.648   1.487  28.317  1.00  0.00     0.210 C 
ENDBRANCH  17  22
BRANCH  20  24
HETATM   24  O3  UNK     1      20.962  -2.304  32.094  1.00  0.00    -0.356 OA
HETATM   25  C18 UNK     1      20.297  -2.318  33.356  1.00  0.00     0.210 C 
ENDBRANCH  20  24
ENDBRANCH   2  16
TORSDOF 4
ENDMDL
