MODEL 1
REMARK VINA RESULT:      -8.3      0.000      0.000
REMARK  5 active torsions:
REMARK  status: ('A' for Active; 'I' for Inactive)
REMARK    1  A    between atoms: C11_15  and  O2_3 
REMARK    2  A    between atoms: C14_18  and  O2_3 
REMARK    3  A    between atoms: C1_5  and  C3_7 
REMARK    4  A    between atoms: C3_7  and  C6_10 
REMARK    5  A    between atoms: C14_18  and  C15_19 
ROOT
HETATM    1  O1  UNK     1      15.981   6.318  32.718  1.00  0.00    -0.274 OA
HETATM    2  O3  UNK     1      14.314   7.465  33.749  1.00  0.00    -0.259 OA
HETATM    3  C1  UNK     1      16.514   8.347  34.001  1.00  0.00     0.024 A 
HETATM    4  C2  UNK     1      17.831   8.202  33.742  1.00  0.00    -0.037 A 
HETATM    5  C4  UNK     1      18.285   7.080  32.894  1.00  0.00     0.005 A 
HETATM    6  C5  UNK     1      17.343   6.175  32.412  1.00  0.00     0.092 A 
HETATM    7  C7  UNK     1      15.511   7.365  33.493  1.00  0.00     0.295 A 
HETATM    8  C8  UNK     1      19.623   6.867  32.525  1.00  0.00     0.017 A 
HETATM    9  C9  UNK     1      18.896   9.121  34.286  1.00  0.00     0.050 C 
HETATM   10  C10 UNK     1      17.688   5.088  31.605  1.00  0.00     0.075 A 
HETATM   11  C11 UNK     1      19.019   4.893  31.258  1.00  0.00     0.071 A 
HETATM   12  C12 UNK     1      19.987   5.784  31.716  1.00  0.00     0.038 A 
ENDROOT
BRANCH  11  13
HETATM   13  O2  UNK     1      19.375   3.843  30.472  1.00  0.00    -0.347 OA
BRANCH  13  14
HETATM   14  C14 UNK     1      18.357   2.895  30.153  1.00  0.00     0.214 C 
BRANCH  14  15
HETATM   15  C15 UNK     1      18.959   1.521  30.121  1.00  0.00    -0.034 A 
HETATM   16  C16 UNK     1      19.206   0.905  28.899  1.00  0.00     0.011 A 
HETATM   17  C18 UNK     1      19.766  -0.373  28.870  1.00  0.00     0.024 A 
HETATM   18  C20 UNK     1      20.075  -1.026  30.063  1.00  0.00     0.034 A 
HETATM   19  C19 UNK     1      19.825  -0.401  31.285  1.00  0.00     0.024 A 
HETATM   20 Cl1  UNK     1      20.766  -2.601  30.026  1.00  0.00    -0.084 Cl
HETATM   21  C17 UNK     1      19.265   0.876  31.314  1.00  0.00     0.011 A 
ENDBRANCH  14  15
ENDBRANCH  13  14
ENDBRANCH  11  13
BRANCH   3  22
HETATM   22  C3  UNK     1      15.910   9.477  34.796  1.00  0.00     0.045 C 
BRANCH  22  23
HETATM   23  C6  UNK     1      15.512  10.636  33.894  1.00  0.00     0.000 C 
HETATM   24  C13 UNK     1      14.082  11.073  34.173  1.00  0.00     0.005 C 
ENDBRANCH  22  23
ENDBRANCH   3  22
TORSDOF 5
ENDMDL
MODEL 2
REMARK VINA RESULT:      -8.1      3.744      8.039
REMARK  5 active torsions:
REMARK  status: ('A' for Active; 'I' for Inactive)
REMARK    1  A    between atoms: C11_15  and  O2_3 
REMARK    2  A    between atoms: C14_18  and  O2_3 
REMARK    3  A    between atoms: C1_5  and  C3_7 
REMARK    4  A    between atoms: C3_7  and  C6_10 
REMARK    5  A    between atoms: C14_18  and  C15_19 
ROOT
HETATM    1  O1  UNK     1      17.760   2.226  33.870  1.00  0.00    -0.274 OA
HETATM    2  O3  UNK     1      17.297   1.234  35.859  1.00  0.00    -0.259 OA
HETATM    3  C1  UNK     1      18.259  -0.160  34.183  1.00  0.00     0.024 A 
HETATM    4  C2  UNK     1      18.706  -0.265  32.913  1.00  0.00    -0.037 A 
HETATM    5  C4  UNK     1      18.729   0.934  32.051  1.00  0.00     0.005 A 
HETATM    6  C5  UNK     1      18.254   2.140  32.560  1.00  0.00     0.092 A 
HETATM    7  C7  UNK     1      17.738   1.131  34.718  1.00  0.00     0.295 A 
HETATM    8  C8  UNK     1      19.217   0.945  30.734  1.00  0.00     0.017 A 
HETATM    9  C9  UNK     1      19.177  -1.558  32.296  1.00  0.00     0.050 C 
HETATM   10  C10 UNK     1      18.241   3.320  31.812  1.00  0.00     0.075 A 
HETATM   11  C11 UNK     1      18.723   3.305  30.509  1.00  0.00     0.071 A 
HETATM   12  C12 UNK     1      19.213   2.118  29.970  1.00  0.00     0.038 A 
ENDROOT
BRANCH  11  13
HETATM   13  O2  UNK     1      18.721   4.443  29.765  1.00  0.00    -0.347 OA
BRANCH  13  14
HETATM   14  C14 UNK     1      19.670   5.450  30.113  1.00  0.00     0.214 C 
BRANCH  14  15
HETATM   15  C15 UNK     1      19.087   6.323  31.186  1.00  0.00    -0.034 A 
HETATM   16  C16 UNK     1      19.818   6.574  32.342  1.00  0.00     0.011 A 
HETATM   17  C18 UNK     1      19.276   7.386  33.339  1.00  0.00     0.024 A 
HETATM   18  C20 UNK     1      18.008   7.942  33.173  1.00  0.00     0.034 A 
HETATM   19  C19 UNK     1      17.282   7.687  32.010  1.00  0.00     0.024 A 
HETATM   20 Cl1  UNK     1      17.341   8.945  34.403  1.00  0.00    -0.084 Cl
HETATM   21  C17 UNK     1      17.823   6.874  31.014  1.00  0.00     0.011 A 
ENDBRANCH  14  15
ENDBRANCH  13  14
ENDBRANCH  11  13
BRANCH   3  22
HETATM   22  C3  UNK     1      18.239  -1.286  35.186  1.00  0.00     0.045 C 
BRANCH  22  23
HETATM   23  C6  UNK     1      19.583  -1.427  35.886  1.00  0.00     0.000 C 
HETATM   24  C13 UNK     1      20.124  -2.840  35.738  1.00  0.00     0.005 C 
ENDBRANCH  22  23
ENDBRANCH   3  22
TORSDOF 5
ENDMDL
MODEL 3
REMARK VINA RESULT:      -7.9      7.389      9.917
REMARK  5 active torsions:
REMARK  status: ('A' for Active; 'I' for Inactive)
REMARK    1  A    between atoms: C11_15  and  O2_3 
REMARK    2  A    between atoms: C14_18  and  O2_3 
REMARK    3  A    between atoms: C1_5  and  C3_7 
REMARK    4  A    between atoms: C3_7  and  C6_10 
REMARK    5  A    between atoms: C14_18  and  C15_19 
ROOT
HETATM    1  O1  UNK     1      19.398  -1.312  33.695  1.00  0.00    -0.274 OA
HETATM    2  O3  UNK     1      18.708   0.332  32.289  1.00  0.00    -0.259 OA
HETATM    3  C1  UNK     1      18.144   0.604  34.588  1.00  0.00     0.024 A 
HETATM    4  C2  UNK     1      18.177   0.085  35.834  1.00  0.00    -0.037 A 
HETATM    5  C4  UNK     1      18.886  -1.190  36.070  1.00  0.00     0.005 A 
HETATM    6  C5  UNK     1      19.471  -1.846  34.990  1.00  0.00     0.092 A 
HETATM    7  C7  UNK     1      18.761  -0.111  33.432  1.00  0.00     0.295 A 
HETATM    8  C8  UNK     1      19.021  -1.791  37.331  1.00  0.00     0.017 A 
HETATM    9  C9  UNK     1      17.511   0.726  37.025  1.00  0.00     0.050 C 
HETATM   10  C10 UNK     1      20.159  -3.054  35.126  1.00  0.00     0.075 A 
HETATM   11  C11 UNK     1      20.275  -3.634  36.384  1.00  0.00     0.071 A 
HETATM   12  C12 UNK     1      19.707  -3.001  37.487  1.00  0.00     0.038 A 
ENDROOT
BRANCH  11  13
HETATM   13  O2  UNK     1      20.941  -4.808  36.538  1.00  0.00    -0.347 OA
BRANCH  13  14
HETATM   14  C14 UNK     1      21.207  -5.235  37.873  1.00  0.00     0.214 C 
BRANCH  14  15
HETATM   15  C15 UNK     1      20.755  -6.656  38.034  1.00  0.00    -0.034 A 
HETATM   16  C16 UNK     1      20.919  -7.554  36.985  1.00  0.00     0.011 A 
HETATM   17  C18 UNK     1      20.500  -8.876  37.135  1.00  0.00     0.024 A 
HETATM   18  C20 UNK     1      19.919  -9.292  38.333  1.00  0.00     0.034 A 
HETATM   19  C19 UNK     1      19.758  -8.386  39.381  1.00  0.00     0.024 A 
HETATM   20 Cl1  UNK     1      19.403 -10.923  38.517  1.00  0.00    -0.084 Cl
HETATM   21  C17 UNK     1      20.177  -7.064  39.231  1.00  0.00     0.011 A 
ENDBRANCH  14  15
ENDBRANCH  13  14
ENDBRANCH  11  13
BRANCH   3  22
HETATM   22  C3  UNK     1      17.512   1.923  34.219  1.00  0.00     0.045 C 
BRANCH  22  23
HETATM   23  C6  UNK     1      18.474   3.080  34.448  1.00  0.00     0.000 C 
HETATM   24  C13 UNK     1      18.235   4.190  33.437  1.00  0.00     0.005 C 
ENDBRANCH  22  23
ENDBRANCH   3  22
TORSDOF 5
ENDMDL
MODEL 4
REMARK VINA RESULT:      -7.8     14.633     17.075
REMARK  5 active torsions:
REMARK  status: ('A' for Active; 'I' for Inactive)
REMARK    1  A    between atoms: C11_15  and  O2_3 
REMARK    2  A    between atoms: C14_18  and  O2_3 
REMARK    3  A    between atoms: C1_5  and  C3_7 
REMARK    4  A    between atoms: C3_7  and  C6_10 
REMARK    5  A    between atoms: C14_18  and  C15_19 
ROOT
HETATM    1  O1  UNK     1      28.025  -5.325  39.227  1.00  0.00    -0.274 OA
HETATM    2  O3  UNK     1      29.640  -3.833  39.792  1.00  0.00    -0.259 OA
HETATM    3  C1  UNK     1      30.312  -5.631  38.379  1.00  0.00     0.024 A 
HETATM    4  C2  UNK     1      29.958  -6.770  37.746  1.00  0.00    -0.037 A 
HETATM    5  C4  UNK     1      28.554  -7.226  37.805  1.00  0.00     0.005 A 
HETATM    6  C5  UNK     1      27.635  -6.488  38.545  1.00  0.00     0.092 A 
HETATM    7  C7  UNK     1      29.325  -4.851  39.183  1.00  0.00     0.295 A 
HETATM    8  C8  UNK     1      28.071  -8.368  37.144  1.00  0.00     0.017 A 
HETATM    9  C9  UNK     1      30.926  -7.636  36.979  1.00  0.00     0.050 C 
HETATM   10  C10 UNK     1      26.290  -6.849  38.652  1.00  0.00     0.075 A 
HETATM   11  C11 UNK     1      25.836  -7.987  37.995  1.00  0.00     0.071 A 
HETATM   12  C12 UNK     1      26.727  -8.745  37.240  1.00  0.00     0.038 A 
ENDROOT
BRANCH  11  13
HETATM   13  O2  UNK     1      24.532  -8.355  38.086  1.00  0.00    -0.347 OA
BRANCH  13  14
HETATM   14  C14 UNK     1      23.760  -7.767  39.133  1.00  0.00     0.214 C 
BRANCH  14  15
HETATM   15  C15 UNK     1      22.359  -7.545  38.645  1.00  0.00    -0.034 A 
HETATM   16  C16 UNK     1      21.395  -7.054  39.518  1.00  0.00     0.011 A 
HETATM   17  C18 UNK     1      20.092  -6.847  39.064  1.00  0.00     0.024 A 
HETATM   18  C20 UNK     1      19.762  -7.133  37.739  1.00  0.00     0.034 A 
HETATM   19  C19 UNK     1      20.734  -7.624  36.869  1.00  0.00     0.024 A 
HETATM   20 Cl1  UNK     1      18.155  -6.876  37.180  1.00  0.00    -0.084 Cl
HETATM   21  C17 UNK     1      22.036  -7.832  37.323  1.00  0.00     0.011 A 
ENDBRANCH  14  15
ENDBRANCH  13  14
ENDBRANCH  11  13
BRANCH   3  22
HETATM   22  C3  UNK     1      31.690  -5.020  38.349  1.00  0.00     0.045 C 
BRANCH  22  23
HETATM   23  C6  UNK     1      31.874  -4.130  37.129  1.00  0.00     0.000 C 
HETATM   24  C13 UNK     1      33.008  -4.639  36.254  1.00  0.00     0.005 C 
ENDBRANCH  22  23
ENDBRANCH   3  22
TORSDOF 5
ENDMDL
MODEL 5
REMARK VINA RESULT:      -7.8      3.746      8.714
REMARK  5 active torsions:
REMARK  status: ('A' for Active; 'I' for Inactive)
REMARK    1  A    between atoms: C11_15  and  O2_3 
REMARK    2  A    between atoms: C14_18  and  O2_3 
REMARK    3  A    between atoms: C1_5  and  C3_7 
REMARK    4  A    between atoms: C3_7  and  C6_10 
REMARK    5  A    between atoms: C14_18  and  C15_19 
ROOT
HETATM    1  O1  UNK     1      18.104   3.082  33.589  1.00  0.00    -0.274 OA
HETATM    2  O3  UNK     1      18.108   0.826  33.330  1.00  0.00    -0.259 OA
HETATM    3  C1  UNK     1      18.509   2.115  31.366  1.00  0.00     0.024 A 
HETATM    4  C2  UNK     1      18.603   3.344  30.815  1.00  0.00    -0.037 A 
HETATM    5  C4  UNK     1      18.481   4.538  31.677  1.00  0.00     0.005 A 
HETATM    6  C5  UNK     1      18.234   4.365  33.036  1.00  0.00     0.092 A 
HETATM    7  C7  UNK     1      18.230   1.937  32.821  1.00  0.00     0.295 A 
HETATM    8  C8  UNK     1      18.611   5.857  31.214  1.00  0.00     0.017 A 
HETATM    9  C9  UNK     1      18.813   3.586  29.341  1.00  0.00     0.050 C 
HETATM   10  C10 UNK     1      18.105   5.439  33.921  1.00  0.00     0.075 A 
HETATM   11  C11 UNK     1      18.231   6.736  33.439  1.00  0.00     0.071 A 
HETATM   12  C12 UNK     1      18.485   6.945  32.086  1.00  0.00     0.038 A 
ENDROOT
BRANCH  11  13
HETATM   13  O2  UNK     1      18.110   7.794  34.282  1.00  0.00    -0.347 OA
BRANCH  13  14
HETATM   14  C14 UNK     1      16.968   7.818  35.138  1.00  0.00     0.214 C 
BRANCH  14  15
HETATM   15  C15 UNK     1      15.917   8.699  34.530  1.00  0.00    -0.034 A 
HETATM   16  C16 UNK     1      14.851   8.128  33.843  1.00  0.00     0.011 A 
HETATM   17  C18 UNK     1      13.873   8.947  33.278  1.00  0.00     0.024 A 
HETATM   18  C20 UNK     1      13.968  10.333  33.403  1.00  0.00     0.034 A 
HETATM   19  C19 UNK     1      15.040  10.899  34.094  1.00  0.00     0.024 A 
HETATM   20 Cl1  UNK     1      12.762  11.343  32.707  1.00  0.00    -0.084 Cl
HETATM   21  C17 UNK     1      16.017  10.080  34.658  1.00  0.00     0.011 A 
ENDBRANCH  14  15
ENDBRANCH  13  14
ENDBRANCH  11  13
BRANCH   3  22
HETATM   22  C3  UNK     1      18.677   0.818  30.616  1.00  0.00     0.045 C 
BRANCH  22  23
HETATM   23  C6  UNK     1      20.125   0.351  30.634  1.00  0.00     0.000 C 
HETATM   24  C13 UNK     1      20.524  -0.228  29.286  1.00  0.00     0.005 C 
ENDBRANCH  22  23
ENDBRANCH   3  22
TORSDOF 5
ENDMDL
MODEL 6
REMARK VINA RESULT:      -7.7      3.610      8.853
REMARK  5 active torsions:
REMARK  status: ('A' for Active; 'I' for Inactive)
REMARK    1  A    between atoms: C11_15  and  O2_3 
REMARK    2  A    between atoms: C14_18  and  O2_3 
REMARK    3  A    between atoms: C1_5  and  C3_7 
REMARK    4  A    between atoms: C3_7  and  C6_10 
REMARK    5  A    between atoms: C14_18  and  C15_19 
ROOT
HETATM    1  O1  UNK     1      18.113   2.093  33.201  1.00  0.00    -0.274 OA
HETATM    2  O3  UNK     1      18.102   0.003  34.089  1.00  0.00    -0.259 OA
HETATM    3  C1  UNK     1      18.831   0.185  31.828  1.00  0.00     0.024 A 
HETATM    4  C2  UNK     1      19.038   0.989  30.763  1.00  0.00    -0.037 A 
HETATM    5  C4  UNK     1      18.815   2.443  30.898  1.00  0.00     0.005 A 
HETATM    6  C5  UNK     1      18.358   2.945  32.114  1.00  0.00     0.092 A 
HETATM    7  C7  UNK     1      18.327   0.727  33.124  1.00  0.00     0.295 A 
HETATM    8  C8  UNK     1      19.046   3.372  29.871  1.00  0.00     0.017 A 
HETATM    9  C9  UNK     1      19.478   0.489  29.410  1.00  0.00     0.050 C 
HETATM   10  C10 UNK     1      18.121   4.306  32.326  1.00  0.00     0.075 A 
HETATM   11  C11 UNK     1      18.351   5.205  31.292  1.00  0.00     0.071 A 
HETATM   12  C12 UNK     1      18.815   4.739  30.065  1.00  0.00     0.038 A 
ENDROOT
BRANCH  11  13
HETATM   13  O2  UNK     1      18.128   6.533  31.477  1.00  0.00    -0.347 OA
BRANCH  13  14
HETATM   14  C14 UNK     1      18.651   7.121  32.668  1.00  0.00     0.214 C 
BRANCH  14  15
HETATM   15  C15 UNK     1      17.576   7.933  33.328  1.00  0.00    -0.034 A 
HETATM   16  C16 UNK     1      17.825   9.257  33.671  1.00  0.00     0.011 A 
HETATM   17  C18 UNK     1      16.825  10.012  34.283  1.00  0.00     0.024 A 
HETATM   18  C20 UNK     1      15.582   9.438  34.550  1.00  0.00     0.034 A 
HETATM   19  C19 UNK     1      15.339   8.109  34.202  1.00  0.00     0.024 A 
HETATM   20 Cl1  UNK     1      14.349  10.371  35.305  1.00  0.00    -0.084 Cl
HETATM   21  C17 UNK     1      16.339   7.355  33.590  1.00  0.00     0.011 A 
ENDBRANCH  14  15
ENDBRANCH  13  14
ENDBRANCH  11  13
BRANCH   3  22
HETATM   22  C3  UNK     1      19.079  -1.303  31.847  1.00  0.00     0.045 C 
BRANCH  22  23
HETATM   23  C6  UNK     1      20.563  -1.617  31.727  1.00  0.00     0.000 C 
HETATM   24  C13 UNK     1      20.800  -2.740  30.730  1.00  0.00     0.005 C 
ENDBRANCH  22  23
ENDBRANCH   3  22
TORSDOF 5
ENDMDL
MODEL 7
REMARK VINA RESULT:      -7.7     22.183     24.338
REMARK  5 active torsions:
REMARK  status: ('A' for Active; 'I' for Inactive)
REMARK    1  A    between atoms: C11_15  and  O2_3 
REMARK    2  A    between atoms: C14_18  and  O2_3 
REMARK    3  A    between atoms: C1_5  and  C3_7 
REMARK    4  A    between atoms: C3_7  and  C6_10 
REMARK    5  A    between atoms: C14_18  and  C15_19 
ROOT
HETATM    1  O1  UNK     1      13.875   5.056   8.867  1.00  0.00    -0.274 OA
HETATM    2  O3  UNK     1      16.000   4.711   9.586  1.00  0.00    -0.259 OA
HETATM    3  C1  UNK     1      15.048   6.837  10.090  1.00  0.00     0.024 A 
HETATM    4  C2  UNK     1      13.988   7.664   9.964  1.00  0.00    -0.037 A 
HETATM    5  C4  UNK     1      12.767   7.181   9.287  1.00  0.00     0.005 A 
HETATM    6  C5  UNK     1      12.753   5.892   8.760  1.00  0.00     0.092 A 
HETATM    7  C7  UNK     1      15.032   5.462   9.510  1.00  0.00     0.295 A 
HETATM    8  C8  UNK     1      11.595   7.941   9.146  1.00  0.00     0.017 A 
HETATM    9  C9  UNK     1      13.973   9.086  10.467  1.00  0.00     0.050 C 
HETATM   10  C10 UNK     1      11.640   5.358   8.105  1.00  0.00     0.075 A 
HETATM   11  C11 UNK     1      10.494   6.131   7.972  1.00  0.00     0.071 A 
HETATM   12  C12 UNK     1      10.470   7.422   8.493  1.00  0.00     0.038 A 
ENDROOT
BRANCH  11  13
HETATM   13  O2  UNK     1       9.400   5.631   7.339  1.00  0.00    -0.347 OA
BRANCH  13  14
HETATM   14  C14 UNK     1       8.155   6.288   7.573  1.00  0.00     0.214 C 
BRANCH  14  15
HETATM   15  C15 UNK     1       7.615   5.856   8.905  1.00  0.00    -0.034 A 
HETATM   16  C16 UNK     1       7.273   6.814   9.853  1.00  0.00     0.011 A 
HETATM   17  C18 UNK     1       6.771   6.413  11.091  1.00  0.00     0.024 A 
HETATM   18  C20 UNK     1       6.614   5.057  11.374  1.00  0.00     0.034 A 
HETATM   19  C19 UNK     1       6.958   4.101  10.418  1.00  0.00     0.024 A 
HETATM   20 Cl1  UNK     1       5.993   4.563  12.901  1.00  0.00    -0.084 Cl
HETATM   21  C17 UNK     1       7.461   4.502   9.180  1.00  0.00     0.011 A 
ENDBRANCH  14  15
ENDBRANCH  13  14
ENDBRANCH  11  13
BRANCH   3  22
HETATM   22  C3  UNK     1      16.328   7.178  10.810  1.00  0.00     0.045 C 
BRANCH  22  23
HETATM   23  C6  UNK     1      17.366   7.746   9.853  1.00  0.00     0.000 C 
HETATM   24  C13 UNK     1      17.334   9.266   9.860  1.00  0.00     0.005 C 
ENDBRANCH  22  23
ENDBRANCH   3  22
TORSDOF 5
ENDMDL
MODEL 8
REMARK VINA RESULT:      -7.7     22.457     24.567
REMARK  5 active torsions:
REMARK  status: ('A' for Active; 'I' for Inactive)
REMARK    1  A    between atoms: C11_15  and  O2_3 
REMARK    2  A    between atoms: C14_18  and  O2_3 
REMARK    3  A    between atoms: C1_5  and  C3_7 
REMARK    4  A    between atoms: C3_7  and  C6_10 
REMARK    5  A    between atoms: C14_18  and  C15_19 
ROOT
HETATM    1  O1  UNK     1      12.878   8.752   9.658  1.00  0.00    -0.274 OA
HETATM    2  O3  UNK     1      14.335   9.725  11.102  1.00  0.00    -0.259 OA
HETATM    3  C1  UNK     1      14.870   7.514  10.395  1.00  0.00     0.024 A 
HETATM    4  C2  UNK     1      14.503   6.432   9.675  1.00  0.00    -0.037 A 
HETATM    5  C4  UNK     1      13.274   6.489   8.856  1.00  0.00     0.005 A 
HETATM    6  C5  UNK     1      12.503   7.648   8.877  1.00  0.00     0.092 A 
HETATM    7  C7  UNK     1      14.031   8.748  10.425  1.00  0.00     0.295 A 
HETATM    8  C8  UNK     1      12.829   5.441   8.034  1.00  0.00     0.017 A 
HETATM    9  C9  UNK     1      15.272   5.135   9.662  1.00  0.00     0.050 C 
HETATM   10  C10 UNK     1      11.328   7.785   8.133  1.00  0.00     0.075 A 
HETATM   11  C11 UNK     1      10.904   6.732   7.332  1.00  0.00     0.071 A 
HETATM   12  C12 UNK     1      11.655   5.560   7.281  1.00  0.00     0.038 A 
ENDROOT
BRANCH  11  13
HETATM   13  O2  UNK     1       9.765   6.845   6.599  1.00  0.00    -0.347 OA
BRANCH  13  14
HETATM   14  C14 UNK     1       8.738   5.883   6.840  1.00  0.00     0.214 C 
BRANCH  14  15
HETATM   15  C15 UNK     1       8.118   6.153   8.180  1.00  0.00    -0.034 A 
HETATM   16  C16 UNK     1       8.058   5.138   9.128  1.00  0.00     0.011 A 
HETATM   17  C18 UNK     1       7.482   5.388  10.374  1.00  0.00     0.024 A 
HETATM   18  C20 UNK     1       6.971   6.653  10.663  1.00  0.00     0.034 A 
HETATM   19  C19 UNK     1       7.036   7.667   9.708  1.00  0.00     0.024 A 
HETATM   20 Cl1  UNK     1       6.262   6.962  12.201  1.00  0.00    -0.084 Cl
HETATM   21  C17 UNK     1       7.611   7.416   8.462  1.00  0.00     0.011 A 
ENDBRANCH  14  15
ENDBRANCH  13  14
ENDBRANCH  11  13
BRANCH   3  22
HETATM   22  C3  UNK     1      16.127   7.613  11.222  1.00  0.00     0.045 C 
BRANCH  22  23
HETATM   23  C6  UNK     1      17.359   7.752  10.340  1.00  0.00     0.000 C 
HETATM   24  C13 UNK     1      17.424   9.137   9.714  1.00  0.00     0.005 C 
ENDBRANCH  22  23
ENDBRANCH   3  22
TORSDOF 5
ENDMDL
MODEL 9
REMARK VINA RESULT:      -7.6     17.029     19.705
REMARK  5 active torsions:
REMARK  status: ('A' for Active; 'I' for Inactive)
REMARK    1  A    between atoms: C11_15  and  O2_3 
REMARK    2  A    between atoms: C14_18  and  O2_3 
REMARK    3  A    between atoms: C1_5  and  C3_7 
REMARK    4  A    between atoms: C3_7  and  C6_10 
REMARK    5  A    between atoms: C14_18  and  C15_19 
ROOT
HETATM    1  O1  UNK     1      30.737  -4.857  38.474  1.00  0.00    -0.274 OA
HETATM    2  O3  UNK     1      28.693  -4.354  39.324  1.00  0.00    -0.259 OA
HETATM    3  C1  UNK     1      29.126  -6.661  38.912  1.00  0.00     0.024 A 
HETATM    4  C2  UNK     1      29.987  -7.587  38.440  1.00  0.00    -0.037 A 
HETATM    5  C4  UNK     1      31.327  -7.165  37.982  1.00  0.00     0.005 A 
HETATM    6  C5  UNK     1      31.655  -5.813  38.014  1.00  0.00     0.092 A 
HETATM    7  C7  UNK     1      29.478  -5.211  38.930  1.00  0.00     0.295 A 
HETATM    8  C8  UNK     1      32.313  -8.051  37.519  1.00  0.00     0.017 A 
HETATM    9  C9  UNK     1      29.660  -9.056  38.332  1.00  0.00     0.050 C 
HETATM   10  C10 UNK     1      32.899  -5.330  37.599  1.00  0.00     0.075 A 
HETATM   11  C11 UNK     1      33.858  -6.225  37.139  1.00  0.00     0.071 A 
HETATM   12  C12 UNK     1      33.565  -7.586  37.101  1.00  0.00     0.038 A 
ENDROOT
BRANCH  11  13
HETATM   13  O2  UNK     1      35.074  -5.776  36.732  1.00  0.00    -0.347 OA
BRANCH  13  14
HETATM   14  C14 UNK     1      35.162  -5.241  35.412  1.00  0.00     0.214 C 
BRANCH  14  15
HETATM   15  C15 UNK     1      35.627  -6.317  34.476  1.00  0.00    -0.034 A 
HETATM   16  C16 UNK     1      34.969  -6.510  33.267  1.00  0.00     0.011 A 
HETATM   17  C18 UNK     1      35.402  -7.510  32.396  1.00  0.00     0.024 A 
HETATM   18  C20 UNK     1      36.489  -8.312  32.741  1.00  0.00     0.034 A 
HETATM   19  C19 UNK     1      37.145  -8.112  33.956  1.00  0.00     0.024 A 
HETATM   20 Cl1  UNK     1      37.023  -9.545  31.666  1.00  0.00    -0.084 Cl
HETATM   21  C17 UNK     1      36.712  -7.113  34.826  1.00  0.00     0.011 A 
ENDBRANCH  14  15
ENDBRANCH  13  14
ENDBRANCH  11  13
BRANCH   3  22
HETATM   22  C3  UNK     1      27.756  -6.960  39.467  1.00  0.00     0.045 C 
BRANCH  22  23
HETATM   23  C6  UNK     1      26.722  -7.076  38.357  1.00  0.00     0.000 C 
HETATM   24  C13 UNK     1      25.823  -8.282  38.579  1.00  0.00     0.005 C 
ENDBRANCH  22  23
ENDBRANCH   3  22
TORSDOF 5
ENDMDL
MODEL 10
REMARK VINA RESULT:      -7.6     15.509     17.431
REMARK  5 active torsions:
REMARK  status: ('A' for Active; 'I' for Inactive)
REMARK    1  A    between atoms: C11_15  and  O2_3 
REMARK    2  A    between atoms: C14_18  and  O2_3 
REMARK    3  A    between atoms: C1_5  and  C3_7 
REMARK    4  A    between atoms: C3_7  and  C6_10 
REMARK    5  A    between atoms: C14_18  and  C15_19 
ROOT
HETATM    1  O1  UNK     1      23.462  -7.704  38.158  1.00  0.00    -0.274 OA
HETATM    2  O3  UNK     1      21.225  -7.361  37.974  1.00  0.00    -0.259 OA
HETATM    3  C1  UNK     1      22.102  -9.246  36.809  1.00  0.00     0.024 A 
HETATM    4  C2  UNK     1      23.196  -9.961  36.468  1.00  0.00    -0.037 A 
HETATM    5  C4  UNK     1      24.514  -9.576  37.014  1.00  0.00     0.005 A 
HETATM    6  C5  UNK     1      24.601  -8.459  37.839  1.00  0.00     0.092 A 
HETATM    7  C7  UNK     1      22.205  -8.041  37.684  1.00  0.00     0.295 A 
HETATM    8  C8  UNK     1      25.703 -10.279  36.761  1.00  0.00     0.017 A 
HETATM    9  C9  UNK     1      23.163 -11.144  35.532  1.00  0.00     0.050 C 
HETATM   10  C10 UNK     1      25.808  -8.027  38.397  1.00  0.00     0.075 A 
HETATM   11  C11 UNK     1      26.973  -8.735  38.128  1.00  0.00     0.071 A 
HETATM   12  C12 UNK     1      26.921  -9.861  37.311  1.00  0.00     0.038 A 
ENDROOT
BRANCH  11  13
HETATM   13  O2  UNK     1      28.157  -8.332  38.661  1.00  0.00    -0.347 OA
BRANCH  13  14
HETATM   14  C14 UNK     1      28.177  -7.065  39.318  1.00  0.00     0.214 C 
BRANCH  14  15
HETATM   15  C15 UNK     1      29.181  -6.179  38.641  1.00  0.00    -0.034 A 
HETATM   16  C16 UNK     1      28.999  -4.800  38.651  1.00  0.00     0.011 A 
HETATM   17  C18 UNK     1      29.933  -3.975  38.023  1.00  0.00     0.024 A 
HETATM   18  C20 UNK     1      31.042  -4.535  37.389  1.00  0.00     0.034 A 
HETATM   19  C19 UNK     1      31.218  -5.918  37.384  1.00  0.00     0.024 A 
HETATM   20 Cl1  UNK     1      32.194  -3.517  36.615  1.00  0.00    -0.084 Cl
HETATM   21  C17 UNK     1      30.285  -6.743  38.012  1.00  0.00     0.011 A 
ENDBRANCH  14  15
ENDBRANCH  13  14
ENDBRANCH  11  13
BRANCH   3  22
HETATM   22  C3  UNK     1      20.694  -9.564  36.376  1.00  0.00     0.045 C 
BRANCH  22  23
HETATM   23  C6  UNK     1      20.146 -10.773  37.121  1.00  0.00     0.000 C 
HETATM   24  C13 UNK     1      19.361 -10.342  38.350  1.00  0.00     0.005 C 
ENDBRANCH  22  23
ENDBRANCH   3  22
TORSDOF 5
ENDMDL
