MODEL 1
REMARK VINA RESULT:      -8.4      0.000      0.000
REMARK  3 active torsions:
REMARK  status: ('A' for Active; 'I' for Inactive)
REMARK    1  A    between atoms: C5_8  and  N1_2 
REMARK    2  A    between atoms: C12_15  and  C9_12 
REMARK    3  A    between atoms: C13_16  and  C14_17 
ROOT
HETATM    1  N2  UNK     1      20.577  -2.483  34.096  1.00  0.00    -0.191 NA
HETATM    2  C12 UNK     1      19.021  -3.082  37.132  1.00  0.00     0.035 C 
HETATM    3  C13 UNK     1      19.209  -2.064  36.255  1.00  0.00     0.055 C 
HETATM    4  C17 UNK     1      19.964  -2.297  35.063  1.00  0.00     0.100 C 
ENDROOT
BRANCH   3   5
HETATM    5  C14 UNK     1      18.656  -0.713  36.476  1.00  0.00    -0.014 A 
HETATM    6  C16 UNK     1      18.055  -0.419  37.687  1.00  0.00     0.013 A 
HETATM    7  C19 UNK     1      17.534   0.858  37.896  1.00  0.00     0.003 A 
HETATM    8  C20 UNK     1      17.622   1.821  36.891  1.00  0.00     0.024 A 
HETATM    9  C18 UNK     1      18.230   1.506  35.676  1.00  0.00     0.034 A 
HETATM   10  C15 UNK     1      18.751   0.230  35.467  1.00  0.00     0.036 A 
HETATM   11 Cl1  UNK     1      18.335   2.694  34.435  1.00  0.00    -0.084 Cl
ENDBRANCH   3   5
BRANCH   2  12
HETATM   12  C9  UNK     1      19.513  -4.445  37.007  1.00  0.00    -0.034 A 
HETATM   13  C10 UNK     1      20.775  -4.779  37.497  1.00  0.00     0.014 A 
HETATM   14  C7  UNK     1      21.247  -6.085  37.377  1.00  0.00     0.031 A 
HETATM   15  C5  UNK     1      20.477  -7.113  36.762  1.00  0.00     0.036 A 
HETATM   16  C6  UNK     1      19.195  -6.726  36.276  1.00  0.00    -0.035 A 
HETATM   17  C11 UNK     1      18.328  -7.749  35.617  1.00  0.00     0.050 C 
HETATM   18  C8  UNK     1      18.723  -5.418  36.396  1.00  0.00     0.020 A 
BRANCH  15  19
HETATM   19  N1  UNK     1      20.959  -8.400  36.651  1.00  0.00    -0.380 N 
HETATM   20  C1  UNK     1      21.617  -8.930  35.460  1.00  0.00     0.123 C 
HETATM   21  C3  UNK     1      22.222 -10.250  35.934  1.00  0.00     0.021 C 
HETATM   22  C4  UNK     1      21.254 -10.705  37.013  1.00  0.00     0.021 C 
HETATM   23  C2  UNK     1      20.876  -9.401  37.712  1.00  0.00     0.123 C 
ENDBRANCH  15  19
ENDBRANCH   2  12
TORSDOF 3
ENDMDL
MODEL 2
REMARK VINA RESULT:      -8.2      9.017     13.919
REMARK  3 active torsions:
REMARK  status: ('A' for Active; 'I' for Inactive)
REMARK    1  A    between atoms: C5_8  and  N1_2 
REMARK    2  A    between atoms: C12_15  and  C9_12 
REMARK    3  A    between atoms: C13_16  and  C14_17 
ROOT
HETATM    1  N2  UNK     1      20.217   6.077  29.676  1.00  0.00    -0.191 NA
HETATM    2  C12 UNK     1      17.822   4.808  31.834  1.00  0.00     0.035 C 
HETATM    3  C13 UNK     1      18.637   4.383  30.835  1.00  0.00     0.055 C 
HETATM    4  C17 UNK     1      19.509   5.319  30.196  1.00  0.00     0.100 C 
ENDROOT
BRANCH   3   5
HETATM    5  C14 UNK     1      18.668   2.980  30.378  1.00  0.00    -0.014 A 
HETATM    6  C16 UNK     1      18.312   2.686  29.073  1.00  0.00     0.013 A 
HETATM    7  C19 UNK     1      18.343   1.360  28.640  1.00  0.00     0.003 A 
HETATM    8  C20 UNK     1      18.729   0.349  29.520  1.00  0.00     0.024 A 
HETATM    9  C18 UNK     1      19.084   0.663  30.831  1.00  0.00     0.034 A 
HETATM   10  C15 UNK     1      19.053   1.988  31.263  1.00  0.00     0.036 A 
HETATM   11 Cl1  UNK     1      19.557  -0.587  31.916  1.00  0.00    -0.084 Cl
ENDBRANCH   3   5
BRANCH   2  12
HETATM   12  C9  UNK     1      17.720   6.159  32.363  1.00  0.00    -0.034 A 
HETATM   13  C10 UNK     1      16.760   7.035  31.858  1.00  0.00     0.014 A 
HETATM   14  C7  UNK     1      16.662   8.330  32.365  1.00  0.00     0.031 A 
HETATM   15  C5  UNK     1      17.520   8.804  33.397  1.00  0.00     0.036 A 
HETATM   16  C6  UNK     1      18.486   7.875  33.882  1.00  0.00    -0.035 A 
HETATM   17  C11 UNK     1      19.423   8.299  34.966  1.00  0.00     0.050 C 
HETATM   18  C8  UNK     1      18.584   6.579  33.374  1.00  0.00     0.020 A 
BRANCH  15  19
HETATM   19  N1  UNK     1      17.410  10.088  33.887  1.00  0.00    -0.380 N 
HETATM   20  C1  UNK     1      16.184  10.649  34.448  1.00  0.00     0.123 C 
HETATM   21  C3  UNK     1      16.646  11.945  35.111  1.00  0.00     0.021 C 
HETATM   22  C4  UNK     1      17.818  12.376  34.246  1.00  0.00     0.021 C 
HETATM   23  C2  UNK     1      18.505  11.055  33.909  1.00  0.00     0.123 C 
ENDBRANCH  15  19
ENDBRANCH   2  12
TORSDOF 3
ENDMDL
MODEL 3
REMARK VINA RESULT:      -8.2      0.397      1.684
REMARK  3 active torsions:
REMARK  status: ('A' for Active; 'I' for Inactive)
REMARK    1  A    between atoms: C5_8  and  N1_2 
REMARK    2  A    between atoms: C12_15  and  C9_12 
REMARK    3  A    between atoms: C13_16  and  C14_17 
ROOT
HETATM    1  N2  UNK     1      20.943  -2.495  34.337  1.00  0.00    -0.191 NA
HETATM    2  C12 UNK     1      18.928  -3.198  37.065  1.00  0.00     0.035 C 
HETATM    3  C13 UNK     1      19.238  -2.153  36.257  1.00  0.00     0.055 C 
HETATM    4  C17 UNK     1      20.180  -2.343  35.198  1.00  0.00     0.100 C 
ENDROOT
BRANCH   3   5
HETATM    5  C14 UNK     1      18.636  -0.816  36.421  1.00  0.00    -0.014 A 
HETATM    6  C16 UNK     1      17.995  -0.504  37.608  1.00  0.00     0.013 A 
HETATM    7  C19 UNK     1      17.427   0.760  37.764  1.00  0.00     0.003 A 
HETATM    8  C20 UNK     1      17.509   1.694  36.731  1.00  0.00     0.024 A 
HETATM    9  C18 UNK     1      18.158   1.362  35.541  1.00  0.00     0.034 A 
HETATM   10  C15 UNK     1      18.726   0.099  35.386  1.00  0.00     0.036 A 
HETATM   11 Cl1  UNK     1      18.255   2.515  34.266  1.00  0.00    -0.084 Cl
ENDBRANCH   3   5
BRANCH   2  12
HETATM   12  C9  UNK     1      19.456  -4.551  36.986  1.00  0.00    -0.034 A 
HETATM   13  C10 UNK     1      18.822  -5.501  36.186  1.00  0.00     0.014 A 
HETATM   14  C7  UNK     1      19.327  -6.799  36.110  1.00  0.00     0.031 A 
HETATM   15  C5  UNK     1      20.488  -7.200  36.831  1.00  0.00     0.036 A 
HETATM   16  C6  UNK     1      21.102  -6.197  37.634  1.00  0.00    -0.035 A 
HETATM   17  C11 UNK     1      22.324  -6.543  38.421  1.00  0.00     0.050 C 
HETATM   18  C8  UNK     1      20.595  -4.899  37.711  1.00  0.00     0.020 A 
BRANCH  15  19
HETATM   19  N1  UNK     1      20.974  -8.487  36.744  1.00  0.00    -0.380 N 
HETATM   20  C1  UNK     1      20.679  -9.543  37.709  1.00  0.00     0.123 C 
HETATM   21  C3  UNK     1      21.178 -10.813  37.024  1.00  0.00     0.021 C 
HETATM   22  C4  UNK     1      22.341 -10.317  36.182  1.00  0.00     0.021 C 
HETATM   23  C2  UNK     1      21.849  -8.963  35.675  1.00  0.00     0.123 C 
ENDBRANCH  15  19
ENDBRANCH   2  12
TORSDOF 3
ENDMDL
MODEL 4
REMARK VINA RESULT:      -8.0      8.601     11.539
REMARK  3 active torsions:
REMARK  status: ('A' for Active; 'I' for Inactive)
REMARK    1  A    between atoms: C5_8  and  N1_2 
REMARK    2  A    between atoms: C12_15  and  C9_12 
REMARK    3  A    between atoms: C13_16  and  C14_17 
ROOT
HETATM    1  N2  UNK     1      14.820   6.922  31.552  1.00  0.00    -0.191 NA
HETATM    2  C12 UNK     1      18.120   7.186  32.571  1.00  0.00     0.035 C 
HETATM    3  C13 UNK     1      16.963   7.892  32.637  1.00  0.00     0.055 C 
HETATM    4  C17 UNK     1      15.781   7.356  32.038  1.00  0.00     0.100 C 
ENDROOT
BRANCH   3   5
HETATM    5  C14 UNK     1      16.868   9.201  33.313  1.00  0.00    -0.014 A 
HETATM    6  C16 UNK     1      18.029   9.876  33.644  1.00  0.00     0.013 A 
HETATM    7  C19 UNK     1      17.940  11.114  34.282  1.00  0.00     0.003 A 
HETATM    8  C20 UNK     1      16.689  11.657  34.577  1.00  0.00     0.024 A 
HETATM    9  C18 UNK     1      15.529  10.962  34.237  1.00  0.00     0.034 A 
HETATM   10  C15 UNK     1      15.619   9.725  33.599  1.00  0.00     0.036 A 
HETATM   11 Cl1  UNK     1      13.987  11.633  34.605  1.00  0.00    -0.084 Cl
ENDBRANCH   3   5
BRANCH   2  12
HETATM   12  C9  UNK     1      18.319   5.892  31.939  1.00  0.00    -0.034 A 
HETATM   13  C10 UNK     1      18.744   5.821  30.613  1.00  0.00     0.014 A 
HETATM   14  C7  UNK     1      18.934   4.579  30.007  1.00  0.00     0.031 A 
HETATM   15  C5  UNK     1      18.708   3.357  30.702  1.00  0.00     0.036 A 
HETATM   16  C6  UNK     1      18.275   3.478  32.054  1.00  0.00    -0.035 A 
HETATM   17  C11 UNK     1      18.015   2.240  32.849  1.00  0.00     0.050 C 
HETATM   18  C8  UNK     1      18.083   4.721  32.660  1.00  0.00     0.020 A 
BRANCH  15  19
HETATM   19  N1  UNK     1      18.901   2.138  30.088  1.00  0.00    -0.380 N 
HETATM   20  C1  UNK     1      19.945   1.187  30.462  1.00  0.00     0.123 C 
HETATM   21  C3  UNK     1      19.556  -0.091  29.723  1.00  0.00     0.021 C 
HETATM   22  C4  UNK     1      18.870   0.430  28.472  1.00  0.00     0.021 C 
HETATM   23  C2  UNK     1      18.087   1.638  28.983  1.00  0.00     0.123 C 
ENDBRANCH  15  19
ENDBRANCH   2  12
TORSDOF 3
ENDMDL
MODEL 5
REMARK VINA RESULT:      -8.0      7.757     10.440
REMARK  3 active torsions:
REMARK  status: ('A' for Active; 'I' for Inactive)
REMARK    1  A    between atoms: C5_8  and  N1_2 
REMARK    2  A    between atoms: C12_15  and  C9_12 
REMARK    3  A    between atoms: C13_16  and  C14_17 
ROOT
HETATM    1  N2  UNK     1      20.915   6.609  33.034  1.00  0.00    -0.191 NA
HETATM    2  C12 UNK     1      17.589   5.988  32.293  1.00  0.00     0.035 C 
HETATM    3  C13 UNK     1      18.354   6.954  32.862  1.00  0.00     0.055 C 
HETATM    4  C17 UNK     1      19.768   6.762  32.956  1.00  0.00     0.100 C 
ENDROOT
BRANCH   3   5
HETATM    5  C14 UNK     1      17.785   8.211  33.389  1.00  0.00    -0.014 A 
HETATM    6  C16 UNK     1      18.630   9.272  33.663  1.00  0.00     0.013 A 
HETATM    7  C19 UNK     1      18.093  10.460  34.159  1.00  0.00     0.003 A 
HETATM    8  C20 UNK     1      16.719  10.568  34.372  1.00  0.00     0.024 A 
HETATM    9  C18 UNK     1      15.882   9.488  34.090  1.00  0.00     0.034 A 
HETATM   10  C15 UNK     1      16.419   8.301  33.594  1.00  0.00     0.036 A 
HETATM   11 Cl1  UNK     1      14.187   9.623  34.357  1.00  0.00    -0.084 Cl
ENDBRANCH   3   5
BRANCH   2  12
HETATM   12  C9  UNK     1      18.047   4.724  31.739  1.00  0.00    -0.034 A 
HETATM   13  C10 UNK     1      18.518   4.666  30.428  1.00  0.00     0.014 A 
HETATM   14  C7  UNK     1      18.956   3.454  29.897  1.00  0.00     0.031 A 
HETATM   15  C5  UNK     1      18.942   2.249  30.655  1.00  0.00     0.036 A 
HETATM   16  C6  UNK     1      18.453   2.355  31.988  1.00  0.00    -0.035 A 
HETATM   17  C11 UNK     1      18.407   1.133  32.847  1.00  0.00     0.050 C 
HETATM   18  C8  UNK     1      18.014   3.568  32.520  1.00  0.00     0.020 A 
BRANCH  15  19
HETATM   19  N1  UNK     1      19.380   1.058  30.114  1.00  0.00    -0.380 N 
HETATM   20  C1  UNK     1      18.910   0.512  28.844  1.00  0.00     0.123 C 
HETATM   21  C3  UNK     1      19.890  -0.621  28.549  1.00  0.00     0.021 C 
HETATM   22  C4  UNK     1      20.284  -1.105  29.934  1.00  0.00     0.021 C 
HETATM   23  C2  UNK     1      20.372   0.188  30.741  1.00  0.00     0.123 C 
ENDBRANCH  15  19
ENDBRANCH   2  12
TORSDOF 3
ENDMDL
MODEL 6
REMARK VINA RESULT:      -7.7      8.602     13.805
REMARK  3 active torsions:
REMARK  status: ('A' for Active; 'I' for Inactive)
REMARK    1  A    between atoms: C5_8  and  N1_2 
REMARK    2  A    between atoms: C12_15  and  C9_12 
REMARK    3  A    between atoms: C13_16  and  C14_17 
ROOT
HETATM    1  N2  UNK     1      19.513   6.091  29.658  1.00  0.00    -0.191 NA
HETATM    2  C12 UNK     1      17.884   4.690  32.374  1.00  0.00     0.035 C 
HETATM    3  C13 UNK     1      18.542   4.298  31.255  1.00  0.00     0.055 C 
HETATM    4  C17 UNK     1      19.078   5.289  30.374  1.00  0.00     0.100 C 
ENDROOT
BRANCH   3   5
HETATM    5  C14 UNK     1      18.738   2.877  30.905  1.00  0.00    -0.014 A 
HETATM    6  C16 UNK     1      18.926   2.527  29.579  1.00  0.00     0.013 A 
HETATM    7  C19 UNK     1      19.112   1.185  29.249  1.00  0.00     0.003 A 
HETATM    8  C20 UNK     1      19.108   0.213  30.250  1.00  0.00     0.024 A 
HETATM    9  C18 UNK     1      18.917   0.584  31.581  1.00  0.00     0.034 A 
HETATM   10  C15 UNK     1      18.731   1.926  31.911  1.00  0.00     0.036 A 
HETATM   11 Cl1  UNK     1      18.909  -0.617  32.814  1.00  0.00    -0.084 Cl
ENDBRANCH   3   5
BRANCH   2  12
HETATM   12  C9  UNK     1      17.643   6.056  32.813  1.00  0.00    -0.034 A 
HETATM   13  C10 UNK     1      18.461   6.630  33.786  1.00  0.00     0.014 A 
HETATM   14  C7  UNK     1      18.230   7.939  34.207  1.00  0.00     0.031 A 
HETATM   15  C5  UNK     1      17.172   8.728  33.674  1.00  0.00     0.036 A 
HETATM   16  C6  UNK     1      16.363   8.101  32.684  1.00  0.00    -0.035 A 
HETATM   17  C11 UNK     1      15.231   8.866  32.077  1.00  0.00     0.050 C 
HETATM   18  C8  UNK     1      16.593   6.790  32.262  1.00  0.00     0.020 A 
BRANCH  15  19
HETATM   19  N1  UNK     1      16.958  10.022  34.101  1.00  0.00    -0.380 N 
HETATM   20  C1  UNK     1      17.926  11.105  33.954  1.00  0.00     0.123 C 
HETATM   21  C3  UNK     1      17.123  12.360  34.288  1.00  0.00     0.021 C 
HETATM   22  C4  UNK     1      16.102  11.858  35.295  1.00  0.00     0.021 C 
HETATM   23  C2  UNK     1      15.735  10.477  34.757  1.00  0.00     0.123 C 
ENDBRANCH  15  19
ENDBRANCH   2  12
TORSDOF 3
ENDMDL
MODEL 7
REMARK VINA RESULT:      -7.6      6.649      9.306
REMARK  3 active torsions:
REMARK  status: ('A' for Active; 'I' for Inactive)
REMARK    1  A    between atoms: C5_8  and  N1_2 
REMARK    2  A    between atoms: C12_15  and  C9_12 
REMARK    3  A    between atoms: C13_16  and  C14_17 
ROOT
HETATM    1  N2  UNK     1      24.281  -5.406  39.110  1.00  0.00    -0.191 NA
HETATM    2  C12 UNK     1      24.442  -8.788  38.381  1.00  0.00     0.035 C 
HETATM    3  C13 UNK     1      23.513  -7.839  38.660  1.00  0.00     0.055 C 
HETATM    4  C17 UNK     1      23.938  -6.496  38.908  1.00  0.00     0.100 C 
ENDROOT
BRANCH   3   5
HETATM    5  C14 UNK     1      22.067  -8.132  38.711  1.00  0.00    -0.014 A 
HETATM    6  C16 UNK     1      21.233  -7.291  39.425  1.00  0.00     0.013 A 
HETATM    7  C19 UNK     1      19.866  -7.567  39.473  1.00  0.00     0.003 A 
HETATM    8  C20 UNK     1      19.356  -8.680  38.805  1.00  0.00     0.024 A 
HETATM    9  C18 UNK     1      20.212  -9.518  38.091  1.00  0.00     0.034 A 
HETATM   10  C15 UNK     1      21.578  -9.241  38.043  1.00  0.00     0.036 A 
HETATM   11 Cl1  UNK     1      19.581 -10.893  37.271  1.00  0.00    -0.084 Cl
ENDBRANCH   3   5
BRANCH   2  12
HETATM   12  C9  UNK     1      25.882  -8.605  38.298  1.00  0.00    -0.034 A 
HETATM   13  C10 UNK     1      26.657  -8.638  39.457  1.00  0.00     0.014 A 
HETATM   14  C7  UNK     1      28.038  -8.462  39.377  1.00  0.00     0.031 A 
HETATM   15  C5  UNK     1      28.701  -8.244  38.136  1.00  0.00     0.036 A 
HETATM   16  C6  UNK     1      27.870  -8.217  36.980  1.00  0.00    -0.035 A 
HETATM   17  C11 UNK     1      28.493  -7.993  35.640  1.00  0.00     0.050 C 
HETATM   18  C8  UNK     1      26.488  -8.393  37.059  1.00  0.00     0.020 A 
BRANCH  15  19
HETATM   19  N1  UNK     1      30.068  -8.072  38.076  1.00  0.00    -0.380 N 
HETATM   20  C1  UNK     1      30.737  -6.778  38.176  1.00  0.00     0.123 C 
HETATM   21  C3  UNK     1      32.209  -7.141  38.361  1.00  0.00     0.021 C 
HETATM   22  C4  UNK     1      32.340  -8.447  37.596  1.00  0.00     0.021 C 
HETATM   23  C2  UNK     1      31.026  -9.162  37.903  1.00  0.00     0.123 C 
ENDBRANCH  15  19
ENDBRANCH   2  12
TORSDOF 3
ENDMDL
MODEL 8
REMARK VINA RESULT:      -7.5      6.600      9.918
REMARK  3 active torsions:
REMARK  status: ('A' for Active; 'I' for Inactive)
REMARK    1  A    between atoms: C5_8  and  N1_2 
REMARK    2  A    between atoms: C12_15  and  C9_12 
REMARK    3  A    between atoms: C13_16  and  C14_17 
ROOT
HETATM    1  N2  UNK     1      26.669  -5.249  38.638  1.00  0.00    -0.191 NA
HETATM    2  C12 UNK     1      26.898  -8.638  37.963  1.00  0.00     0.035 C 
HETATM    3  C13 UNK     1      27.712  -7.581  38.209  1.00  0.00     0.055 C 
HETATM    4  C17 UNK     1      27.135  -6.294  38.446  1.00  0.00     0.100 C 
ENDROOT
BRANCH   3   5
HETATM    5  C14 UNK     1      29.183  -7.703  38.252  1.00  0.00    -0.014 A 
HETATM    6  C16 UNK     1      29.759  -8.958  38.168  1.00  0.00     0.013 A 
HETATM    7  C19 UNK     1      31.149  -9.073  38.206  1.00  0.00     0.003 A 
HETATM    8  C20 UNK     1      31.940  -7.930  38.327  1.00  0.00     0.024 A 
HETATM    9  C18 UNK     1      31.342  -6.673  38.411  1.00  0.00     0.034 A 
HETATM   10  C15 UNK     1      29.953  -6.559  38.373  1.00  0.00     0.036 A 
HETATM   11 Cl1  UNK     1      32.320  -5.265  38.564  1.00  0.00    -0.084 Cl
ENDBRANCH   3   5
BRANCH   2  12
HETATM   12  C9  UNK     1      25.445  -8.628  37.906  1.00  0.00    -0.034 A 
HETATM   13  C10 UNK     1      24.783  -9.252  36.849  1.00  0.00     0.014 A 
HETATM   14  C7  UNK     1      23.390  -9.242  36.795  1.00  0.00     0.031 A 
HETATM   15  C5  UNK     1      22.600  -8.608  37.796  1.00  0.00     0.036 A 
HETATM   16  C6  UNK     1      23.318  -7.984  38.856  1.00  0.00    -0.035 A 
HETATM   17  C11 UNK     1      22.559  -7.296  39.944  1.00  0.00     0.050 C 
HETATM   18  C8  UNK     1      24.713  -7.993  38.910  1.00  0.00     0.020 A 
BRANCH  15  19
HETATM   19  N1  UNK     1      21.223  -8.608  37.727  1.00  0.00    -0.380 N 
HETATM   20  C1  UNK     1      20.435  -7.573  37.063  1.00  0.00     0.123 C 
HETATM   21  C3  UNK     1      19.031  -8.171  36.996  1.00  0.00     0.021 C 
HETATM   22  C4  UNK     1      18.969  -9.046  38.236  1.00  0.00     0.021 C 
HETATM   23  C2  UNK     1      20.373  -9.643  38.310  1.00  0.00     0.123 C 
ENDBRANCH  15  19
ENDBRANCH   2  12
TORSDOF 3
ENDMDL
MODEL 9
REMARK VINA RESULT:      -7.4      3.344      8.526
REMARK  3 active torsions:
REMARK  status: ('A' for Active; 'I' for Inactive)
REMARK    1  A    between atoms: C5_8  and  N1_2 
REMARK    2  A    between atoms: C12_15  and  C9_12 
REMARK    3  A    between atoms: C13_16  and  C14_17 
ROOT
HETATM    1  N2  UNK     1      16.884  -6.230  36.437  1.00  0.00    -0.191 NA
HETATM    2  C12 UNK     1      20.262  -5.481  36.599  1.00  0.00     0.035 C 
HETATM    3  C13 UNK     1      19.435  -6.547  36.751  1.00  0.00     0.055 C 
HETATM    4  C17 UNK     1      18.027  -6.371  36.578  1.00  0.00     0.100 C 
ENDROOT
BRANCH   3   5
HETATM    5  C14 UNK     1      19.932  -7.896  37.086  1.00  0.00    -0.014 A 
HETATM    6  C16 UNK     1      19.801  -8.362  38.382  1.00  0.00     0.013 A 
HETATM    7  C19 UNK     1      20.269  -9.638  38.698  1.00  0.00     0.003 A 
HETATM    8  C20 UNK     1      20.861 -10.427  37.712  1.00  0.00     0.024 A 
HETATM    9  C18 UNK     1      20.985  -9.941  36.411  1.00  0.00     0.034 A 
HETATM   10  C15 UNK     1      20.517  -8.666  36.095  1.00  0.00     0.036 A 
HETATM   11 Cl1  UNK     1      21.719 -10.916  35.196  1.00  0.00    -0.084 Cl
ENDBRANCH   3   5
BRANCH   2  12
HETATM   12  C9  UNK     1      19.878  -4.119  36.264  1.00  0.00    -0.034 A 
HETATM   13  C10 UNK     1      20.269  -3.563  35.046  1.00  0.00     0.014 A 
HETATM   14  C7  UNK     1      19.901  -2.257  34.726  1.00  0.00     0.031 A 
HETATM   15  C5  UNK     1      19.129  -1.451  35.610  1.00  0.00     0.036 A 
HETATM   16  C6  UNK     1      18.753  -2.060  36.841  1.00  0.00    -0.035 A 
HETATM   17  C11 UNK     1      17.941  -1.277  37.822  1.00  0.00     0.050 C 
HETATM   18  C8  UNK     1      19.121  -3.367  37.163  1.00  0.00     0.020 A 
BRANCH  15  19
HETATM   19  N1  UNK     1      18.774  -0.161  35.277  1.00  0.00    -0.380 N 
HETATM   20  C1  UNK     1      18.072   0.206  34.050  1.00  0.00     0.123 C 
HETATM   21  C3  UNK     1      17.650   1.654  34.290  1.00  0.00     0.021 C 
HETATM   22  C4  UNK     1      18.752   2.189  35.189  1.00  0.00     0.021 C 
HETATM   23  C2  UNK     1      19.054   1.007  36.108  1.00  0.00     0.123 C 
ENDBRANCH  15  19
ENDBRANCH   2  12
TORSDOF 3
ENDMDL
MODEL 10
REMARK VINA RESULT:      -7.3      6.516     10.248
REMARK  3 active torsions:
REMARK  status: ('A' for Active; 'I' for Inactive)
REMARK    1  A    between atoms: C5_8  and  N1_2 
REMARK    2  A    between atoms: C12_15  and  C9_12 
REMARK    3  A    between atoms: C13_16  and  C14_17 
ROOT
HETATM    1  N2  UNK     1      26.955 -10.578  40.174  1.00  0.00    -0.191 NA
HETATM    2  C12 UNK     1      26.830  -8.110  37.748  1.00  0.00     0.035 C 
HETATM    3  C13 UNK     1      27.747  -8.765  38.503  1.00  0.00     0.055 C 
HETATM    4  C17 UNK     1      27.308  -9.766  39.425  1.00  0.00     0.100 C 
ENDROOT
BRANCH   3   5
HETATM    5  C14 UNK     1      29.195  -8.491  38.409  1.00  0.00    -0.014 A 
HETATM    6  C16 UNK     1      30.076  -9.551  38.283  1.00  0.00     0.013 A 
HETATM    7  C19 UNK     1      31.444  -9.293  38.193  1.00  0.00     0.003 A 
HETATM    8  C20 UNK     1      31.909  -7.978  38.230  1.00  0.00     0.024 A 
HETATM    9  C18 UNK     1      31.007  -6.922  38.358  1.00  0.00     0.034 A 
HETATM   10  C15 UNK     1      29.640  -7.181  38.448  1.00  0.00     0.036 A 
HETATM   11 Cl1  UNK     1      31.583  -5.301  38.406  1.00  0.00    -0.084 Cl
ENDBRANCH   3   5
BRANCH   2  12
HETATM   12  C9  UNK     1      25.389  -8.307  37.757  1.00  0.00    -0.034 A 
HETATM   13  C10 UNK     1      24.793  -9.143  36.813  1.00  0.00     0.014 A 
HETATM   14  C7  UNK     1      23.412  -9.331  36.822  1.00  0.00     0.031 A 
HETATM   15  C5  UNK     1      22.568  -8.692  37.774  1.00  0.00     0.036 A 
HETATM   16  C6  UNK     1      23.220  -7.847  38.718  1.00  0.00    -0.035 A 
HETATM   17  C11 UNK     1      22.401  -7.140  39.749  1.00  0.00     0.050 C 
HETATM   18  C8  UNK     1      24.603  -7.658  38.709  1.00  0.00     0.020 A 
BRANCH  15  19
HETATM   19  N1  UNK     1      21.204  -8.889  37.768  1.00  0.00    -0.380 N 
HETATM   20  C1  UNK     1      20.523  -9.938  38.524  1.00  0.00     0.123 C 
HETATM   21  C3  UNK     1      19.048  -9.554  38.434  1.00  0.00     0.021 C 
HETATM   22  C4  UNK     1      18.954  -8.862  37.085  1.00  0.00     0.021 C 
HETATM   23  C2  UNK     1      20.260  -8.075  37.006  1.00  0.00     0.123 C 
ENDBRANCH  15  19
ENDBRANCH   2  12
TORSDOF 3
ENDMDL
