MODEL 1
REMARK VINA RESULT:      -8.9      0.000      0.000
REMARK  4 active torsions:
REMARK  status: ('A' for Active; 'I' for Inactive)
REMARK    1  A    between atoms: C17_22  and  O4_4 
REMARK       I    between atoms: C5_10  and  N1_5 
REMARK    2  A    between atoms: C5_10  and  C6_11 
REMARK    3  A    between atoms: C6_11  and  C7_12 
REMARK    4  A    between atoms: C7_12  and  C8_13 
ROOT
HETATM    1  O2  UNK     1      17.820   7.367  31.059  1.00  0.00    -0.274 OA
HETATM    2  O3  UNK     1      18.728   6.136  29.382  1.00  0.00    -0.259 OA
HETATM    3  C8  UNK     1      18.511   5.048  31.491  1.00  0.00     0.025 A 
HETATM    4  C9  UNK     1      18.148   5.149  32.788  1.00  0.00    -0.037 A 
HETATM    5  C10 UNK     1      17.549   6.407  33.278  1.00  0.00     0.005 A 
HETATM    6  C11 UNK     1      18.369   6.201  30.554  1.00  0.00     0.295 A 
HETATM    7  C12 UNK     1      17.406   7.474  32.395  1.00  0.00     0.092 A 
HETATM    8  C13 UNK     1      18.332   4.043  33.796  1.00  0.00     0.050 C 
HETATM    9  C14 UNK     1      17.097   6.601  34.593  1.00  0.00     0.017 A 
HETATM   10  C15 UNK     1      16.850   8.698  32.777  1.00  0.00     0.075 A 
HETATM   11  C16 UNK     1      16.536   7.820  34.993  1.00  0.00     0.038 A 
HETATM   12  C17 UNK     1      16.413   8.869  34.086  1.00  0.00     0.070 A 
ENDROOT
BRANCH   3  13
HETATM   13  C7  UNK     1      19.074   3.807  30.849  1.00  0.00     0.055 C 
BRANCH  13  14
HETATM   14  C6  UNK     1      17.993   2.788  30.535  1.00  0.00     0.108 C 
BRANCH  14  15
HETATM   15  C5  UNK     1      18.365   1.949  29.339  1.00  0.00     0.220 C 
HETATM   16  O1  UNK     1      17.970   2.258  28.214  1.00  0.00    -0.273 OA
HETATM   17  N1  UNK     1      19.152   0.844  29.608  1.00  0.00    -0.352 N 
HETATM   18  C3  UNK     1      19.590  -0.069  28.564  1.00  0.00     0.126 C 
HETATM   19  C4  UNK     1      19.653   0.427  30.913  1.00  0.00     0.126 C 
HETATM   20  C1  UNK     1      20.667  -0.915  29.226  1.00  0.00     0.021 C 
HETATM   21  C2  UNK     1      20.209  -0.971  30.678  1.00  0.00     0.021 C 
ENDBRANCH  14  15
ENDBRANCH  13  14
ENDBRANCH   3  13
BRANCH  12  22
HETATM   22  O4  UNK     1      15.868  10.051  34.477  1.00  0.00    -0.356 OA
HETATM   23  C18 UNK     1      14.504  10.033  34.895  1.00  0.00     0.210 C 
ENDBRANCH  12  22
TORSDOF 4
ENDMDL
MODEL 2
REMARK VINA RESULT:      -8.4      1.439      2.117
REMARK  4 active torsions:
REMARK  status: ('A' for Active; 'I' for Inactive)
REMARK    1  A    between atoms: C17_22  and  O4_4 
REMARK       I    between atoms: C5_10  and  N1_5 
REMARK    2  A    between atoms: C5_10  and  C6_11 
REMARK    3  A    between atoms: C6_11  and  C7_12 
REMARK    4  A    between atoms: C7_12  and  C8_13 
ROOT
HETATM    1  O2  UNK     1      17.562   5.158  34.155  1.00  0.00    -0.274 OA
HETATM    2  O3  UNK     1      18.341   3.087  33.652  1.00  0.00    -0.259 OA
HETATM    3  C8  UNK     1      18.329   4.671  31.872  1.00  0.00     0.025 A 
HETATM    4  C9  UNK     1      18.012   5.918  31.465  1.00  0.00    -0.037 A 
HETATM    5  C10 UNK     1      17.467   6.883  32.442  1.00  0.00     0.005 A 
HETATM    6  C11 UNK     1      18.091   4.229  33.277  1.00  0.00     0.295 A 
HETATM    7  C12 UNK     1      17.260   6.469  33.754  1.00  0.00     0.092 A 
HETATM    8  C13 UNK     1      18.164   6.399  30.044  1.00  0.00     0.050 C 
HETATM    9  C14 UNK     1      17.147   8.215  32.134  1.00  0.00     0.017 A 
HETATM   10  C15 UNK     1      16.748   7.317  34.739  1.00  0.00     0.075 A 
HETATM   11  C16 UNK     1      16.634   9.080  33.109  1.00  0.00     0.038 A 
HETATM   12  C17 UNK     1      16.434   8.631  34.411  1.00  0.00     0.070 A 
ENDROOT
BRANCH   3  13
HETATM   13  C7  UNK     1      18.949   3.611  30.997  1.00  0.00     0.055 C 
BRANCH  13  14
HETATM   14  C6  UNK     1      17.930   2.580  30.546  1.00  0.00     0.108 C 
BRANCH  14  15
HETATM   15  C5  UNK     1      18.426   1.813  29.346  1.00  0.00     0.220 C 
HETATM   16  O1  UNK     1      18.130   2.177  28.208  1.00  0.00    -0.273 OA
HETATM   17  N1  UNK     1      19.206   0.705  29.627  1.00  0.00    -0.352 N 
HETATM   18  C3  UNK     1      19.755  -0.143  28.581  1.00  0.00     0.126 C 
HETATM   19  C4  UNK     1      19.594   0.224  30.949  1.00  0.00     0.126 C 
HETATM   20  C1  UNK     1      20.783  -1.009  29.294  1.00  0.00     0.021 C 
HETATM   21  C2  UNK     1      20.195  -1.150  30.692  1.00  0.00     0.021 C 
ENDBRANCH  14  15
ENDBRANCH  13  14
ENDBRANCH   3  13
BRANCH  12  22
HETATM   22  O4  UNK     1      15.936   9.473  35.356  1.00  0.00    -0.356 OA
HETATM   23  C18 UNK     1      15.726  10.831  34.972  1.00  0.00     0.210 C 
ENDBRANCH  12  22
TORSDOF 4
ENDMDL
MODEL 3
REMARK VINA RESULT:      -8.3      2.917      8.619
REMARK  4 active torsions:
REMARK  status: ('A' for Active; 'I' for Inactive)
REMARK    1  A    between atoms: C17_22  and  O4_4 
REMARK       I    between atoms: C5_10  and  N1_5 
REMARK    2  A    between atoms: C5_10  and  C6_11 
REMARK    3  A    between atoms: C6_11  and  C7_12 
REMARK    4  A    between atoms: C7_12  and  C8_13 
ROOT
HETATM    1  O2  UNK     1      18.959   0.658  32.781  1.00  0.00    -0.274 OA
HETATM    2  O3  UNK     1      18.075   2.342  34.019  1.00  0.00    -0.259 OA
HETATM    3  C8  UNK     1      18.303   2.757  31.684  1.00  0.00     0.025 A 
HETATM    4  C9  UNK     1      18.729   2.301  30.486  1.00  0.00    -0.037 A 
HETATM    5  C10 UNK     1      19.276   0.933  30.384  1.00  0.00     0.005 A 
HETATM    6  C11 UNK     1      18.424   1.927  32.918  1.00  0.00     0.295 A 
HETATM    7  C12 UNK     1      19.373   0.158  31.536  1.00  0.00     0.092 A 
HETATM    8  C13 UNK     1      18.697   3.120  29.220  1.00  0.00     0.050 C 
HETATM    9  C14 UNK     1      19.704   0.347  29.182  1.00  0.00     0.017 A 
HETATM   10  C15 UNK     1      19.879  -1.144  31.527  1.00  0.00     0.075 A 
HETATM   11  C16 UNK     1      20.212  -0.958  29.154  1.00  0.00     0.038 A 
HETATM   12  C17 UNK     1      20.301  -1.703  30.326  1.00  0.00     0.070 A 
ENDROOT
BRANCH   3  13
HETATM   13  C7  UNK     1      17.670   4.105  31.916  1.00  0.00     0.055 C 
BRANCH  13  14
HETATM   14  C6  UNK     1      18.693   5.226  31.896  1.00  0.00     0.108 C 
BRANCH  14  15
HETATM   15  C5  UNK     1      18.778   5.910  33.237  1.00  0.00     0.220 C 
HETATM   16  O1  UNK     1      19.451   5.421  34.145  1.00  0.00    -0.273 OA
HETATM   17  N1  UNK     1      18.057   7.085  33.353  1.00  0.00    -0.352 N 
HETATM   18  C3  UNK     1      18.030   7.860  34.584  1.00  0.00     0.126 C 
HETATM   19  C4  UNK     1      17.245   7.716  32.318  1.00  0.00     0.126 C 
HETATM   20  C1  UNK     1      17.415   9.192  34.181  1.00  0.00     0.021 C 
HETATM   21  C2  UNK     1      16.469   8.800  33.053  1.00  0.00     0.021 C 
ENDBRANCH  14  15
ENDBRANCH  13  14
ENDBRANCH   3  13
BRANCH  12  22
HETATM   22  O4  UNK     1      20.794  -2.969  30.296  1.00  0.00    -0.356 OA
HETATM   23  C18 UNK     1      21.147  -3.560  31.547  1.00  0.00     0.210 C 
ENDBRANCH  12  22
TORSDOF 4
ENDMDL
MODEL 4
REMARK VINA RESULT:      -7.9      9.454     14.495
REMARK  4 active torsions:
REMARK  status: ('A' for Active; 'I' for Inactive)
REMARK    1  A    between atoms: C17_22  and  O4_4 
REMARK       I    between atoms: C5_10  and  N1_5 
REMARK    2  A    between atoms: C5_10  and  C6_11 
REMARK    3  A    between atoms: C6_11  and  C7_12 
REMARK    4  A    between atoms: C7_12  and  C8_13 
ROOT
HETATM    1  O2  UNK     1      21.072  -7.620  34.437  1.00  0.00    -0.274 OA
HETATM    2  O3  UNK     1      20.298  -5.533  33.989  1.00  0.00    -0.259 OA
HETATM    3  C8  UNK     1      19.755  -6.422  36.132  1.00  0.00     0.025 A 
HETATM    4  C9  UNK     1      19.825  -7.474  36.975  1.00  0.00    -0.037 A 
HETATM    5  C10 UNK     1      20.585  -8.675  36.575  1.00  0.00     0.005 A 
HETATM    6  C11 UNK     1      20.384  -6.468  34.780  1.00  0.00     0.295 A 
HETATM    7  C12 UNK     1      21.182  -8.707  35.318  1.00  0.00     0.092 A 
HETATM    8  C13 UNK     1      19.150  -7.511  38.324  1.00  0.00     0.050 C 
HETATM    9  C14 UNK     1      20.757  -9.803  37.393  1.00  0.00     0.017 A 
HETATM   10  C15 UNK     1      21.917  -9.803  34.861  1.00  0.00     0.075 A 
HETATM   11  C16 UNK     1      21.493 -10.911  36.952  1.00  0.00     0.038 A 
HETATM   12  C17 UNK     1      22.072 -10.912  35.686  1.00  0.00     0.070 A 
ENDROOT
BRANCH   3  13
HETATM   13  C7  UNK     1      19.068  -5.116  36.439  1.00  0.00     0.055 C 
BRANCH  13  14
HETATM   14  C6  UNK     1      20.005  -4.122  37.101  1.00  0.00     0.108 C 
BRANCH  14  15
HETATM   15  C5  UNK     1      20.146  -2.871  36.272  1.00  0.00     0.220 C 
HETATM   16  O1  UNK     1      21.064  -2.762  35.458  1.00  0.00    -0.273 OA
HETATM   17  N1  UNK     1      19.195  -1.892  36.503  1.00  0.00    -0.352 N 
HETATM   18  C3  UNK     1      19.197  -0.625  35.789  1.00  0.00     0.126 C 
HETATM   19  C4  UNK     1      18.086  -1.960  37.449  1.00  0.00     0.126 C 
HETATM   20  C1  UNK     1      17.840  -0.013  36.098  1.00  0.00     0.021 C 
HETATM   21  C2  UNK     1      17.541  -0.540  37.496  1.00  0.00     0.021 C 
ENDBRANCH  14  15
ENDBRANCH  13  14
ENDBRANCH   3  13
BRANCH  12  22
HETATM   22  O4  UNK     1      22.785 -11.988  35.261  1.00  0.00    -0.356 OA
HETATM   23  C18 UNK     1      24.108 -12.136  35.774  1.00  0.00     0.210 C 
ENDBRANCH  12  22
TORSDOF 4
ENDMDL
MODEL 5
REMARK VINA RESULT:      -7.8     22.269     24.240
REMARK  4 active torsions:
REMARK  status: ('A' for Active; 'I' for Inactive)
REMARK    1  A    between atoms: C17_22  and  O4_4 
REMARK       I    between atoms: C5_10  and  N1_5 
REMARK    2  A    between atoms: C5_10  and  C6_11 
REMARK    3  A    between atoms: C6_11  and  C7_12 
REMARK    4  A    between atoms: C7_12  and  C8_13 
ROOT
HETATM    1  O2  UNK     1      17.872   9.221   9.470  1.00  0.00    -0.274 OA
HETATM    2  O3  UNK     1      17.622   7.265  10.595  1.00  0.00    -0.259 OA
HETATM    3  C8  UNK     1      15.621   8.292   9.809  1.00  0.00     0.025 A 
HETATM    4  C9  UNK     1      15.058   9.347   9.182  1.00  0.00    -0.037 A 
HETATM    5  C10 UNK     1      15.923  10.404   8.620  1.00  0.00     0.005 A 
HETATM    6  C11 UNK     1      17.099   8.200   9.995  1.00  0.00     0.295 A 
HETATM    7  C12 UNK     1      17.301  10.305   8.785  1.00  0.00     0.092 A 
HETATM    8  C13 UNK     1      13.569   9.529   9.026  1.00  0.00     0.050 C 
HETATM    9  C14 UNK     1      15.442  11.517   7.912  1.00  0.00     0.017 A 
HETATM   10  C15 UNK     1      18.190  11.261   8.286  1.00  0.00     0.075 A 
HETATM   11  C16 UNK     1      16.318  12.485   7.404  1.00  0.00     0.038 A 
HETATM   12  C17 UNK     1      17.691  12.357   7.592  1.00  0.00     0.070 A 
ENDROOT
BRANCH   3  13
HETATM   13  C7  UNK     1      14.862   7.118  10.370  1.00  0.00     0.055 C 
BRANCH  13  14
HETATM   14  C6  UNK     1      14.365   6.187   9.279  1.00  0.00     0.108 C 
BRANCH  14  15
HETATM   15  C5  UNK     1      12.891   5.908   9.429  1.00  0.00     0.220 C 
HETATM   16  O1  UNK     1      12.434   5.538  10.512  1.00  0.00    -0.273 OA
HETATM   17  N1  UNK     1      12.130   6.091   8.289  1.00  0.00    -0.352 N 
HETATM   18  C3  UNK     1      10.695   5.857   8.268  1.00  0.00     0.126 C 
HETATM   19  C4  UNK     1      12.609   6.528   6.981  1.00  0.00     0.126 C 
HETATM   20  C1  UNK     1      10.227   6.477   6.960  1.00  0.00     0.021 C 
HETATM   21  C2  UNK     1      11.432   6.289   6.047  1.00  0.00     0.021 C 
ENDBRANCH  14  15
ENDBRANCH  13  14
ENDBRANCH   3  13
BRANCH  12  22
HETATM   22  O4  UNK     1      18.540  13.298   7.097  1.00  0.00    -0.356 OA
HETATM   23  C18 UNK     1      18.802  13.265   5.695  1.00  0.00     0.210 C 
ENDBRANCH  12  22
TORSDOF 4
ENDMDL
MODEL 6
REMARK VINA RESULT:      -7.8     22.383     23.602
REMARK  4 active torsions:
REMARK  status: ('A' for Active; 'I' for Inactive)
REMARK    1  A    between atoms: C17_22  and  O4_4 
REMARK       I    between atoms: C5_10  and  N1_5 
REMARK    2  A    between atoms: C5_10  and  C6_11 
REMARK    3  A    between atoms: C6_11  and  C7_12 
REMARK    4  A    between atoms: C7_12  and  C8_13 
ROOT
HETATM    1  O2  UNK     1      16.993   7.151   9.656  1.00  0.00    -0.274 OA
HETATM    2  O3  UNK     1      16.366   4.977   9.470  1.00  0.00    -0.259 OA
HETATM    3  C8  UNK     1      14.632   6.536   9.958  1.00  0.00     0.025 A 
HETATM    4  C9  UNK     1      14.299   7.818  10.220  1.00  0.00    -0.037 A 
HETATM    5  C10 UNK     1      15.343   8.863  10.172  1.00  0.00     0.005 A 
HETATM    6  C11 UNK     1      16.043   6.143   9.674  1.00  0.00     0.295 A 
HETATM    7  C12 UNK     1      16.654   8.492   9.892  1.00  0.00     0.092 A 
HETATM    8  C13 UNK     1      12.905   8.263  10.583  1.00  0.00     0.050 C 
HETATM    9  C14 UNK     1      15.095  10.229  10.383  1.00  0.00     0.017 A 
HETATM   10  C15 UNK     1      17.700   9.416   9.827  1.00  0.00     0.075 A 
HETATM   11  C16 UNK     1      16.131  11.169  10.321  1.00  0.00     0.038 A 
HETATM   12  C17 UNK     1      17.433  10.764  10.044  1.00  0.00     0.070 A 
ENDROOT
BRANCH   3  13
HETATM   13  C7  UNK     1      13.659   5.386   9.913  1.00  0.00     0.055 C 
BRANCH  13  14
HETATM   14  C6  UNK     1      12.882   5.349   8.609  1.00  0.00     0.108 C 
BRANCH  14  15
HETATM   15  C5  UNK     1      11.397   5.410   8.858  1.00  0.00     0.220 C 
HETATM   16  O1  UNK     1      10.939   5.137   9.968  1.00  0.00    -0.273 OA
HETATM   17  N1  UNK     1      10.625   5.779   7.771  1.00  0.00    -0.352 N 
HETATM   18  C3  UNK     1       9.175   5.878   7.846  1.00  0.00     0.126 C 
HETATM   19  C4  UNK     1      11.105   6.117   6.435  1.00  0.00     0.126 C 
HETATM   20  C1  UNK     1       8.778   6.609   6.573  1.00  0.00     0.021 C 
HETATM   21  C2  UNK     1       9.846   6.167   5.581  1.00  0.00     0.021 C 
ENDBRANCH  14  15
ENDBRANCH  13  14
ENDBRANCH   3  13
BRANCH  12  22
HETATM   22  O4  UNK     1      18.437  11.678   9.985  1.00  0.00    -0.356 OA
HETATM   23  C18 UNK     1      19.040  11.901   8.710  1.00  0.00     0.210 C 
ENDBRANCH  12  22
TORSDOF 4
ENDMDL
MODEL 7
REMARK VINA RESULT:      -7.7      5.277      9.071
REMARK  4 active torsions:
REMARK  status: ('A' for Active; 'I' for Inactive)
REMARK    1  A    between atoms: C17_22  and  O4_4 
REMARK       I    between atoms: C5_10  and  N1_5 
REMARK    2  A    between atoms: C5_10  and  C6_11 
REMARK    3  A    between atoms: C6_11  and  C7_12 
REMARK    4  A    between atoms: C7_12  and  C8_13 
ROOT
HETATM    1  O2  UNK     1      19.426  -1.668  33.812  1.00  0.00    -0.274 OA
HETATM    2  O3  UNK     1      18.644  -0.145  32.321  1.00  0.00    -0.259 OA
HETATM    3  C8  UNK     1      18.065   0.220  34.604  1.00  0.00     0.025 A 
HETATM    4  C9  UNK     1      18.127  -0.229  35.876  1.00  0.00    -0.037 A 
HETATM    5  C10 UNK     1      18.906  -1.448  36.178  1.00  0.00     0.005 A 
HETATM    6  C11 UNK     1      18.722  -0.521  33.487  1.00  0.00     0.295 A 
HETATM    7  C12 UNK     1      19.527  -2.126  35.134  1.00  0.00     0.092 A 
HETATM    8  C13 UNK     1      17.426   0.437  37.033  1.00  0.00     0.050 C 
HETATM    9  C14 UNK     1      19.071  -1.972  37.470  1.00  0.00     0.017 A 
HETATM   10  C15 UNK     1      20.281  -3.285  35.333  1.00  0.00     0.075 A 
HETATM   11  C16 UNK     1      19.825  -3.133  37.688  1.00  0.00     0.038 A 
HETATM   12  C17 UNK     1      20.429  -3.790  36.620  1.00  0.00     0.070 A 
ENDROOT
BRANCH   3  13
HETATM   13  C7  UNK     1      17.361   1.479  34.168  1.00  0.00     0.055 C 
BRANCH  13  14
HETATM   14  C6  UNK     1      18.314   2.656  34.062  1.00  0.00     0.108 C 
BRANCH  14  15
HETATM   15  C5  UNK     1      18.102   3.414  32.777  1.00  0.00     0.220 C 
HETATM   16  O1  UNK     1      17.603   2.856  31.798  1.00  0.00    -0.273 OA
HETATM   17  N1  UNK     1      18.507   4.737  32.791  1.00  0.00    -0.352 N 
HETATM   18  C3  UNK     1      18.376   5.601  31.628  1.00  0.00     0.126 C 
HETATM   19  C4  UNK     1      19.101   5.455  33.914  1.00  0.00     0.126 C 
HETATM   20  C1  UNK     1      18.623   7.002  32.167  1.00  0.00     0.021 C 
HETATM   21  C2  UNK     1      19.601   6.759  33.309  1.00  0.00     0.021 C 
ENDBRANCH  14  15
ENDBRANCH  13  14
ENDBRANCH   3  13
BRANCH  12  22
HETATM   22  O4  UNK     1      21.159  -4.916  36.835  1.00  0.00    -0.356 OA
HETATM   23  C18 UNK     1      21.049  -5.529  38.119  1.00  0.00     0.210 C 
ENDBRANCH  12  22
TORSDOF 4
ENDMDL
MODEL 8
REMARK VINA RESULT:      -7.7      3.098      3.876
REMARK  4 active torsions:
REMARK  status: ('A' for Active; 'I' for Inactive)
REMARK    1  A    between atoms: C17_22  and  O4_4 
REMARK       I    between atoms: C5_10  and  N1_5 
REMARK    2  A    between atoms: C5_10  and  C6_11 
REMARK    3  A    between atoms: C6_11  and  C7_12 
REMARK    4  A    between atoms: C7_12  and  C8_13 
ROOT
HETATM    1  O2  UNK     1      16.728   8.096  33.050  1.00  0.00    -0.274 OA
HETATM    2  O3  UNK     1      15.847   6.145  32.296  1.00  0.00    -0.259 OA
HETATM    3  C8  UNK     1      18.167   6.115  32.839  1.00  0.00     0.025 A 
HETATM    4  C9  UNK     1      19.245   6.815  33.252  1.00  0.00    -0.037 A 
HETATM    5  C10 UNK     1      19.087   8.234  33.628  1.00  0.00     0.005 A 
HETATM    6  C11 UNK     1      16.828   6.759  32.704  1.00  0.00     0.295 A 
HETATM    7  C12 UNK     1      17.833   8.826  33.513  1.00  0.00     0.092 A 
HETATM    8  C13 UNK     1      20.635   6.236  33.340  1.00  0.00     0.050 C 
HETATM    9  C14 UNK     1      20.132   9.039  34.112  1.00  0.00     0.017 A 
HETATM   10  C15 UNK     1      17.598  10.162  33.848  1.00  0.00     0.075 A 
HETATM   11  C16 UNK     1      19.914  10.379  34.453  1.00  0.00     0.038 A 
HETATM   12  C17 UNK     1      18.648  10.942  34.321  1.00  0.00     0.070 A 
ENDROOT
BRANCH   3  13
HETATM   13  C7  UNK     1      18.175   4.650  32.485  1.00  0.00     0.055 C 
BRANCH  13  14
HETATM   14  C6  UNK     1      18.229   3.767  33.719  1.00  0.00     0.108 C 
BRANCH  14  15
HETATM   15  C5  UNK     1      18.124   2.309  33.351  1.00  0.00     0.220 C 
HETATM   16  O1  UNK     1      17.948   1.972  32.179  1.00  0.00    -0.273 OA
HETATM   17  N1  UNK     1      18.233   1.418  34.404  1.00  0.00    -0.352 N 
HETATM   18  C3  UNK     1      18.147  -0.022  34.216  1.00  0.00     0.126 C 
HETATM   19  C4  UNK     1      18.444   1.751  35.810  1.00  0.00     0.126 C 
HETATM   20  C1  UNK     1      18.635  -0.607  35.532  1.00  0.00     0.021 C 
HETATM   21  C2  UNK     1      18.207   0.443  36.550  1.00  0.00     0.021 C 
ENDBRANCH  14  15
ENDBRANCH  13  14
ENDBRANCH   3  13
BRANCH  12  22
HETATM   22  O4  UNK     1      18.439  12.243  34.653  1.00  0.00    -0.356 OA
HETATM   23  C18 UNK     1      17.094  12.640  34.916  1.00  0.00     0.210 C 
ENDBRANCH  12  22
TORSDOF 4
ENDMDL
MODEL 9
REMARK VINA RESULT:      -7.6     15.480     17.304
REMARK  4 active torsions:
REMARK  status: ('A' for Active; 'I' for Inactive)
REMARK    1  A    between atoms: C17_22  and  O4_4 
REMARK       I    between atoms: C5_10  and  N1_5 
REMARK    2  A    between atoms: C5_10  and  C6_11 
REMARK    3  A    between atoms: C6_11  and  C7_12 
REMARK    4  A    between atoms: C7_12  and  C8_13 
ROOT
HETATM    1  O2  UNK     1      28.018  -5.216  38.373  1.00  0.00    -0.274 OA
HETATM    2  O3  UNK     1      25.775  -5.400  38.672  1.00  0.00    -0.259 OA
HETATM    3  C8  UNK     1      27.021  -7.429  38.761  1.00  0.00     0.025 A 
HETATM    4  C9  UNK     1      28.226  -8.027  38.646  1.00  0.00    -0.037 A 
HETATM    5  C10 UNK     1      29.427  -7.199  38.416  1.00  0.00     0.005 A 
HETATM    6  C11 UNK     1      26.869  -5.953  38.606  1.00  0.00     0.295 A 
HETATM    7  C12 UNK     1      29.281  -5.821  38.286  1.00  0.00     0.092 A 
HETATM    8  C13 UNK     1      28.431  -9.519  38.722  1.00  0.00     0.050 C 
HETATM    9  C14 UNK     1      30.730  -7.714  38.326  1.00  0.00     0.017 A 
HETATM   10  C15 UNK     1      30.364  -4.966  38.067  1.00  0.00     0.075 A 
HETATM   11  C16 UNK     1      31.828  -6.872  38.108  1.00  0.00     0.038 A 
HETATM   12  C17 UNK     1      31.645  -5.499  37.977  1.00  0.00     0.070 A 
ENDROOT
BRANCH   3  13
HETATM   13  C7  UNK     1      25.729  -8.147  39.057  1.00  0.00     0.055 C 
BRANCH  13  14
HETATM   14  C6  UNK     1      25.148  -8.805  37.819  1.00  0.00     0.108 C 
BRANCH  14  15
HETATM   15  C5  UNK     1      23.713  -8.392  37.605  1.00  0.00     0.220 C 
HETATM   16  O1  UNK     1      23.264  -7.388  38.158  1.00  0.00    -0.273 OA
HETATM   17  N1  UNK     1      22.975  -9.212  36.770  1.00  0.00    -0.352 N 
HETATM   18  C3  UNK     1      21.576  -8.954  36.468  1.00  0.00     0.126 C 
HETATM   19  C4  UNK     1      23.447 -10.411  36.084  1.00  0.00     0.126 C 
HETATM   20  C1  UNK     1      21.265  -9.872  35.295  1.00  0.00     0.021 C 
HETATM   21  C2  UNK     1      22.182 -11.063  35.544  1.00  0.00     0.021 C 
ENDBRANCH  14  15
ENDBRANCH  13  14
ENDBRANCH   3  13
BRANCH  12  22
HETATM   22  O4  UNK     1      32.713  -4.684  37.765  1.00  0.00    -0.356 OA
HETATM   23  C18 UNK     1      32.989  -4.312  36.416  1.00  0.00     0.210 C 
ENDBRANCH  12  22
TORSDOF 4
ENDMDL
MODEL 10
REMARK VINA RESULT:      -7.6     21.948     24.042
REMARK  4 active torsions:
REMARK  status: ('A' for Active; 'I' for Inactive)
REMARK    1  A    between atoms: C17_22  and  O4_4 
REMARK       I    between atoms: C5_10  and  N1_5 
REMARK    2  A    between atoms: C5_10  and  C6_11 
REMARK    3  A    between atoms: C6_11  and  C7_12 
REMARK    4  A    between atoms: C7_12  and  C8_13 
ROOT
HETATM    1  O2  UNK     1       9.306   5.032   8.532  1.00  0.00    -0.274 OA
HETATM    2  O3  UNK     1      11.321   5.385   7.548  1.00  0.00    -0.259 OA
HETATM    3  C8  UNK     1      10.342   7.258   8.648  1.00  0.00     0.025 A 
HETATM    4  C9  UNK     1       9.283   7.749   9.327  1.00  0.00    -0.037 A 
HETATM    5  C10 UNK     1       8.166   6.849   9.679  1.00  0.00     0.005 A 
HETATM    6  C11 UNK     1      10.382   5.836   8.197  1.00  0.00     0.295 A 
HETATM    7  C12 UNK     1       8.216   5.521   9.268  1.00  0.00     0.092 A 
HETATM    8  C13 UNK     1       9.155   9.192   9.747  1.00  0.00     0.050 C 
HETATM    9  C14 UNK     1       7.042   7.247  10.421  1.00  0.00     0.017 A 
HETATM   10  C15 UNK     1       7.202   4.605   9.558  1.00  0.00     0.075 A 
HETATM   11  C16 UNK     1       6.017   6.342  10.722  1.00  0.00     0.038 A 
HETATM   12  C17 UNK     1       6.096   5.021  10.290  1.00  0.00     0.070 A 
ENDROOT
BRANCH   3  13
HETATM   13  C7  UNK     1      11.571   8.048   8.281  1.00  0.00     0.055 C 
BRANCH  13  14
HETATM   14  C6  UNK     1      12.319   8.540   9.508  1.00  0.00     0.108 C 
BRANCH  14  15
HETATM   15  C5  UNK     1      13.246   7.478  10.042  1.00  0.00     0.220 C 
HETATM   16  O1  UNK     1      12.795   6.417  10.477  1.00  0.00    -0.273 OA
HETATM   17  N1  UNK     1      14.593   7.792  10.010  1.00  0.00    -0.352 N 
HETATM   18  C3  UNK     1      15.615   6.877  10.495  1.00  0.00     0.126 C 
HETATM   19  C4  UNK     1      15.189   9.026   9.508  1.00  0.00     0.126 C 
HETATM   20  C1  UNK     1      16.922   7.460   9.981  1.00  0.00     0.021 C 
HETATM   21  C2  UNK     1      16.641   8.958   9.962  1.00  0.00     0.021 C 
ENDBRANCH  14  15
ENDBRANCH  13  14
ENDBRANCH   3  13
BRANCH  12  22
HETATM   22  O4  UNK     1       5.099   4.145  10.584  1.00  0.00    -0.356 OA
HETATM   23  C18 UNK     1       5.480   2.800  10.872  1.00  0.00     0.210 C 
ENDBRANCH  12  22
TORSDOF 4
ENDMDL
