MODEL 1
REMARK VINA RESULT:     -10.5      0.000      0.000
REMARK  5 active torsions:
REMARK  status: ('A' for Active; 'I' for Inactive)
REMARK    1  A    between atoms: C5_12  and  N1_4 
REMARK    2  A    between atoms: C6_13  and  N2_5 
REMARK    3  A    between atoms: C17_24  and  N3_6 
REMARK       I    between atoms: C9_16  and  N3_6 
REMARK    4  A    between atoms: C5_12  and  C7_14 
REMARK    5  A    between atoms: C6_13  and  C9_16 
ROOT
HETATM    1  N4  UNK     1      18.787   7.951  34.535  1.00  0.00    -0.191 NA
HETATM    2  C17 UNK     1      18.211   3.537  32.646  1.00  0.00     0.036 A 
HETATM    3  C19 UNK     1      18.269   4.650  33.485  1.00  0.00     0.052 A 
HETATM    4  C20 UNK     1      18.563   3.659  31.301  1.00  0.00     0.029 A 
HETATM    5  C21 UNK     1      18.679   5.884  32.979  1.00  0.00     0.046 A 
HETATM    6  C22 UNK     1      18.972   4.892  30.796  1.00  0.00     0.004 A 
HETATM    7  C23 UNK     1      19.030   6.005  31.635  1.00  0.00     0.023 A 
HETATM    8  C24 UNK     1      18.738   7.025  33.838  1.00  0.00     0.099 C 
ENDROOT
BRANCH   2   9
HETATM    9  N3  UNK     1      17.797   2.285  33.158  1.00  0.00    -0.326 N 
HETATM   10  C9  UNK     1      18.218   1.666  34.334  1.00  0.00     0.250 C 
HETATM   11  O2  UNK     1      19.034   2.092  35.145  1.00  0.00    -0.271 OA
HETATM   12  H15 UNK     1      17.115   1.795  32.583  1.00  0.00     0.169 HD
BRANCH  10  13
HETATM   13  C6  UNK     1      17.517   0.328  34.502  1.00  0.00     0.375 C 
BRANCH  13  14
HETATM   14  N2  UNK     1      18.359  -0.565  35.296  1.00  0.00     0.100 N 
HETATM   15  C3  UNK     1      17.538  -1.437  36.146  1.00  0.00     0.303 C 
HETATM   16  C1  UNK     1      18.419  -2.376  36.976  1.00  0.00     0.303 C 
HETATM   17  N1  UNK     1      19.291  -3.177  36.110  1.00  0.00     0.096 N 
HETATM   18  C2  UNK     1      20.112  -2.307  35.260  1.00  0.00     0.303 C 
HETATM   19  C4  UNK     1      19.230  -1.368  34.428  1.00  0.00     0.303 C 
BRANCH  17  20
HETATM   20  C5  UNK     1      20.134  -4.069  36.904  1.00  0.00     0.312 C 
BRANCH  20  21
HETATM   21  C7  UNK     1      20.157  -5.456  36.359  1.00  0.00    -0.011 A 
HETATM   22  C10 UNK     1      20.245  -5.680  35.041  1.00  0.00     0.092 A 
HETATM   23  C13 UNK     1      20.271  -7.032  34.455  1.00  0.00     0.288 A 
HETATM   24  O1  UNK     1      20.199  -8.094  35.342  1.00  0.00    -0.275 OA
HETATM   25  O3  UNK     1      20.352  -7.198  33.244  1.00  0.00    -0.260 OA
HETATM   26  C11 UNK     1      20.105  -7.890  36.733  1.00  0.00     0.090 A 
HETATM   27  C8  UNK     1      20.082  -6.603  37.272  1.00  0.00     0.006 A 
HETATM   28  C14 UNK     1      20.039  -9.035  37.530  1.00  0.00     0.045 A 
HETATM   29  C12 UNK     1      19.987  -6.484  38.666  1.00  0.00     0.015 A 
HETATM   30  C16 UNK     1      19.919  -7.622  39.478  1.00  0.00     0.007 A 
HETATM   31  C15 UNK     1      19.946  -8.895  38.911  1.00  0.00    -0.059 A 
HETATM   32  C18 UNK     1      19.873 -10.103  39.782  1.00  0.00     0.048 C 
ENDBRANCH  20  21
ENDBRANCH  17  20
ENDBRANCH  13  14
ENDBRANCH  10  13
ENDBRANCH   2   9
TORSDOF 5
ENDMDL
MODEL 2
REMARK VINA RESULT:     -10.1      1.852      2.188
REMARK  5 active torsions:
REMARK  status: ('A' for Active; 'I' for Inactive)
REMARK    1  A    between atoms: C5_12  and  N1_4 
REMARK    2  A    between atoms: C6_13  and  N2_5 
REMARK    3  A    between atoms: C17_24  and  N3_6 
REMARK       I    between atoms: C9_16  and  N3_6 
REMARK    4  A    between atoms: C5_12  and  C7_14 
REMARK    5  A    between atoms: C6_13  and  C9_16 
ROOT
HETATM    1  N4  UNK     1      16.383   8.156  30.802  1.00  0.00    -0.191 NA
HETATM    2  C17 UNK     1      18.331   4.541  33.355  1.00  0.00     0.036 A 
HETATM    3  C19 UNK     1      17.534   5.336  32.533  1.00  0.00     0.052 A 
HETATM    4  C20 UNK     1      19.457   5.086  33.973  1.00  0.00     0.029 A 
HETATM    5  C21 UNK     1      17.863   6.677  32.328  1.00  0.00     0.046 A 
HETATM    6  C22 UNK     1      19.786   6.425  33.769  1.00  0.00     0.004 A 
HETATM    7  C23 UNK     1      18.988   7.221  32.946  1.00  0.00     0.023 A 
HETATM    8  C24 UNK     1      17.047   7.493  31.486  1.00  0.00     0.099 C 
ENDROOT
BRANCH   2   9
HETATM    9  N3  UNK     1      17.998   3.181  33.564  1.00  0.00    -0.326 N 
HETATM   10  C9  UNK     1      18.386   2.364  34.623  1.00  0.00     0.250 C 
HETATM   11  O2  UNK     1      19.096   2.671  35.575  1.00  0.00    -0.271 OA
HETATM   12  H15 UNK     1      17.410   2.772  32.840  1.00  0.00     0.169 HD
BRANCH  10  13
HETATM   13  C6  UNK     1      17.803   0.971  34.452  1.00  0.00     0.375 C 
BRANCH  13  14
HETATM   14  N2  UNK     1      18.739  -0.017  34.986  1.00  0.00     0.100 N 
HETATM   15  C3  UNK     1      18.234  -0.589  36.240  1.00  0.00     0.303 C 
HETATM   16  C1  UNK     1      19.212  -1.626  36.800  1.00  0.00     0.303 C 
HETATM   17  N1  UNK     1      19.467  -2.687  35.818  1.00  0.00     0.096 N 
HETATM   18  C2  UNK     1      19.972  -2.116  34.564  1.00  0.00     0.303 C 
HETATM   19  C4  UNK     1      18.992  -1.078  34.004  1.00  0.00     0.303 C 
BRANCH  17  20
HETATM   20  C5  UNK     1      20.405  -3.674  36.352  1.00  0.00     0.312 C 
BRANCH  20  21
HETATM   21  C7  UNK     1      19.716  -4.915  36.807  1.00  0.00    -0.011 A 
HETATM   22  C10 UNK     1      18.468  -5.199  36.411  1.00  0.00     0.092 A 
HETATM   23  C13 UNK     1      17.748  -6.413  36.833  1.00  0.00     0.288 A 
HETATM   24  O1  UNK     1      18.426  -7.275  37.680  1.00  0.00    -0.275 OA
HETATM   25  O3  UNK     1      16.607  -6.640  36.451  1.00  0.00    -0.260 OA
HETATM   26  C11 UNK     1      19.739  -7.003  38.114  1.00  0.00     0.090 A 
HETATM   27  C8  UNK     1      20.408  -5.849  37.704  1.00  0.00     0.006 A 
HETATM   28  C14 UNK     1      20.324  -7.943  38.965  1.00  0.00     0.045 A 
HETATM   29  C12 UNK     1      21.713  -5.651  38.180  1.00  0.00     0.015 A 
HETATM   30  C16 UNK     1      22.312  -6.583  39.035  1.00  0.00     0.007 A 
HETATM   31  C15 UNK     1      21.618  -7.727  39.426  1.00  0.00    -0.059 A 
HETATM   32  C18 UNK     1      22.263  -8.717  40.336  1.00  0.00     0.048 C 
ENDBRANCH  20  21
ENDBRANCH  17  20
ENDBRANCH  13  14
ENDBRANCH  10  13
ENDBRANCH   2   9
TORSDOF 5
ENDMDL
MODEL 3
REMARK VINA RESULT:     -10.1      5.534     12.594
REMARK  5 active torsions:
REMARK  status: ('A' for Active; 'I' for Inactive)
REMARK    1  A    between atoms: C5_12  and  N1_4 
REMARK    2  A    between atoms: C6_13  and  N2_5 
REMARK    3  A    between atoms: C17_24  and  N3_6 
REMARK       I    between atoms: C9_16  and  N3_6 
REMARK    4  A    between atoms: C5_12  and  C7_14 
REMARK    5  A    between atoms: C6_13  and  C9_16 
ROOT
HETATM    1  N4  UNK     1      19.950  -2.340  34.082  1.00  0.00    -0.191 NA
HETATM    2  C17 UNK     1      19.912   0.353  30.066  1.00  0.00     0.036 A 
HETATM    3  C19 UNK     1      19.841  -0.117  31.377  1.00  0.00     0.052 A 
HETATM    4  C20 UNK     1      20.223  -0.524  29.027  1.00  0.00     0.029 A 
HETATM    5  C21 UNK     1      20.081  -1.465  31.649  1.00  0.00     0.046 A 
HETATM    6  C22 UNK     1      20.463  -1.870  29.299  1.00  0.00     0.004 A 
HETATM    7  C23 UNK     1      20.392  -2.341  30.610  1.00  0.00     0.023 A 
HETATM    8  C24 UNK     1      20.009  -1.947  32.992  1.00  0.00     0.099 C 
ENDROOT
BRANCH   2   9
HETATM    9  N3  UNK     1      19.668   1.720  29.790  1.00  0.00    -0.326 N 
HETATM   10  C9  UNK     1      18.434   2.356  29.673  1.00  0.00     0.250 C 
HETATM   11  O2  UNK     1      17.323   1.846  29.783  1.00  0.00    -0.271 OA
HETATM   12  H15 UNK     1      20.506   2.283  29.661  1.00  0.00     0.169 HD
BRANCH  10  13
HETATM   13  C6  UNK     1      18.631   3.832  29.370  1.00  0.00     0.375 C 
BRANCH  13  14
HETATM   14  N2  UNK     1      18.400   4.612  30.584  1.00  0.00     0.100 N 
HETATM   15  C3  UNK     1      18.583   3.780  31.781  1.00  0.00     0.303 C 
HETATM   16  C1  UNK     1      18.343   4.596  33.055  1.00  0.00     0.303 C 
HETATM   17  N1  UNK     1      19.230   5.765  33.102  1.00  0.00     0.096 N 
HETATM   18  C2  UNK     1      19.048   6.596  31.906  1.00  0.00     0.303 C 
HETATM   19  C4  UNK     1      19.288   5.779  30.632  1.00  0.00     0.303 C 
BRANCH  17  20
HETATM   20  C5  UNK     1      18.996   6.545  34.316  1.00  0.00     0.312 C 
BRANCH  20  21
HETATM   21  C7  UNK     1      17.785   7.407  34.206  1.00  0.00    -0.011 A 
HETATM   22  C10 UNK     1      16.558   6.873  34.147  1.00  0.00     0.092 A 
HETATM   23  C13 UNK     1      15.333   7.684  34.039  1.00  0.00     0.288 A 
HETATM   24  O1  UNK     1      15.499   9.059  33.999  1.00  0.00    -0.275 OA
HETATM   25  O3  UNK     1      14.227   7.160  33.988  1.00  0.00    -0.260 OA
HETATM   26  C11 UNK     1      16.777   9.650  34.058  1.00  0.00     0.090 A 
HETATM   27  C8  UNK     1      17.929   8.868  34.161  1.00  0.00     0.006 A 
HETATM   28  C14 UNK     1      16.824  11.045  34.009  1.00  0.00     0.045 A 
HETATM   29  C12 UNK     1      19.163   9.532  34.215  1.00  0.00     0.015 A 
HETATM   30  C16 UNK     1      19.226  10.929  34.166  1.00  0.00     0.007 A 
HETATM   31  C15 UNK     1      18.058  11.684  34.064  1.00  0.00    -0.059 A 
HETATM   32  C18 UNK     1      18.133  13.173  34.014  1.00  0.00     0.048 C 
ENDBRANCH  20  21
ENDBRANCH  17  20
ENDBRANCH  13  14
ENDBRANCH  10  13
ENDBRANCH   2   9
TORSDOF 5
ENDMDL
MODEL 4
REMARK VINA RESULT:      -9.7      1.478      2.308
REMARK  5 active torsions:
REMARK  status: ('A' for Active; 'I' for Inactive)
REMARK    1  A    between atoms: C5_12  and  N1_4 
REMARK    2  A    between atoms: C6_13  and  N2_5 
REMARK    3  A    between atoms: C17_24  and  N3_6 
REMARK       I    between atoms: C9_16  and  N3_6 
REMARK    4  A    between atoms: C5_12  and  C7_14 
REMARK    5  A    between atoms: C6_13  and  C9_16 
ROOT
HETATM    1  N4  UNK     1      18.280   2.068  28.193  1.00  0.00    -0.191 NA
HETATM    2  C17 UNK     1      17.974   2.561  32.993  1.00  0.00     0.036 A 
HETATM    3  C19 UNK     1      17.969   2.087  31.681  1.00  0.00     0.052 A 
HETATM    4  C20 UNK     1      18.298   3.893  33.252  1.00  0.00     0.029 A 
HETATM    5  C21 UNK     1      18.289   2.946  30.628  1.00  0.00     0.046 A 
HETATM    6  C22 UNK     1      18.617   4.751  32.200  1.00  0.00     0.004 A 
HETATM    7  C23 UNK     1      18.612   4.277  30.888  1.00  0.00     0.023 A 
HETATM    8  C24 UNK     1      18.284   2.461  29.285  1.00  0.00     0.099 C 
ENDROOT
BRANCH   2   9
HETATM    9  N3  UNK     1      17.649   1.691  34.061  1.00  0.00    -0.326 N 
HETATM   10  C9  UNK     1      18.370   1.482  35.235  1.00  0.00     0.250 C 
HETATM   11  O2  UNK     1      19.428   2.012  35.561  1.00  0.00    -0.271 OA
HETATM   12  H15 UNK     1      16.788   1.164  33.933  1.00  0.00     0.169 HD
BRANCH  10  13
HETATM   13  C6  UNK     1      17.661   0.462  36.111  1.00  0.00     0.375 C 
BRANCH  13  14
HETATM   14  N2  UNK     1      18.623  -0.540  36.566  1.00  0.00     0.100 N 
HETATM   15  C3  UNK     1      17.970  -1.537  37.424  1.00  0.00     0.303 C 
HETATM   16  C1  UNK     1      18.976  -2.590  37.900  1.00  0.00     0.303 C 
HETATM   17  N1  UNK     1      19.629  -3.243  36.759  1.00  0.00     0.096 N 
HETATM   18  C2  UNK     1      20.281  -2.247  35.901  1.00  0.00     0.303 C 
HETATM   19  C4  UNK     1      19.274  -1.194  35.425  1.00  0.00     0.303 C 
BRANCH  17  20
HETATM   20  C5  UNK     1      20.592  -4.243  37.215  1.00  0.00     0.312 C 
BRANCH  20  21
HETATM   21  C7  UNK     1      20.367  -5.572  36.578  1.00  0.00    -0.011 A 
HETATM   22  C10 UNK     1      20.367  -5.710  35.245  1.00  0.00     0.092 A 
HETATM   23  C13 UNK     1      20.150  -7.001  34.571  1.00  0.00     0.288 A 
HETATM   24  O1  UNK     1      19.940  -8.101  35.387  1.00  0.00    -0.275 OA
HETATM   25  O3  UNK     1      20.156  -7.089  33.349  1.00  0.00    -0.260 OA
HETATM   26  C11 UNK     1      19.934  -7.987  36.792  1.00  0.00     0.090 A 
HETATM   27  C8  UNK     1      20.142  -6.757  37.416  1.00  0.00     0.006 A 
HETATM   28  C14 UNK     1      19.712  -9.162  37.513  1.00  0.00     0.045 A 
HETATM   29  C12 UNK     1      20.121  -6.727  38.818  1.00  0.00     0.015 A 
HETATM   30  C16 UNK     1      19.899  -7.897  39.554  1.00  0.00     0.007 A 
HETATM   31  C15 UNK     1      19.696  -9.112  38.903  1.00  0.00    -0.059 A 
HETATM   32  C18 UNK     1      19.461 -10.354  39.694  1.00  0.00     0.048 C 
ENDBRANCH  20  21
ENDBRANCH  17  20
ENDBRANCH  13  14
ENDBRANCH  10  13
ENDBRANCH   2   9
TORSDOF 5
ENDMDL
MODEL 5
REMARK VINA RESULT:      -9.6      2.536      3.686
REMARK  5 active torsions:
REMARK  status: ('A' for Active; 'I' for Inactive)
REMARK    1  A    between atoms: C5_12  and  N1_4 
REMARK    2  A    between atoms: C6_13  and  N2_5 
REMARK    3  A    between atoms: C17_24  and  N3_6 
REMARK       I    between atoms: C9_16  and  N3_6 
REMARK    4  A    between atoms: C5_12  and  C7_14 
REMARK    5  A    between atoms: C6_13  and  C9_16 
ROOT
HETATM    1  N4  UNK     1      20.293  -0.578  28.729  1.00  0.00    -0.191 NA
HETATM    2  C17 UNK     1      18.504   1.223  32.845  1.00  0.00     0.036 A 
HETATM    3  C19 UNK     1      19.073   0.419  31.858  1.00  0.00     0.052 A 
HETATM    4  C20 UNK     1      18.100   2.523  32.539  1.00  0.00     0.029 A 
HETATM    5  C21 UNK     1      19.238   0.914  30.563  1.00  0.00     0.046 A 
HETATM    6  C22 UNK     1      18.265   3.018  31.246  1.00  0.00     0.004 A 
HETATM    7  C23 UNK     1      18.834   2.213  30.258  1.00  0.00     0.023 A 
HETATM    8  C24 UNK     1      19.820   0.091  29.552  1.00  0.00     0.099 C 
ENDROOT
BRANCH   2   9
HETATM    9  N3  UNK     1      18.336   0.721  34.157  1.00  0.00    -0.326 N 
HETATM   10  C9  UNK     1      18.779   1.291  35.349  1.00  0.00     0.250 C 
HETATM   11  O2  UNK     1      19.404   2.339  35.482  1.00  0.00    -0.271 OA
HETATM   12  H15 UNK     1      17.835  -0.164  34.213  1.00  0.00     0.169 HD
BRANCH  10  13
HETATM   13  C6  UNK     1      18.383   0.418  36.528  1.00  0.00     0.375 C 
BRANCH  13  14
HETATM   14  N2  UNK     1      18.544  -0.988  36.166  1.00  0.00     0.100 N 
HETATM   15  C3  UNK     1      19.963  -1.323  35.993  1.00  0.00     0.303 C 
HETATM   16  C1  UNK     1      20.135  -2.798  35.616  1.00  0.00     0.303 C 
HETATM   17  N1  UNK     1      19.521  -3.670  36.625  1.00  0.00     0.096 N 
HETATM   18  C2  UNK     1      18.103  -3.336  36.799  1.00  0.00     0.303 C 
HETATM   19  C4  UNK     1      17.932  -1.860  37.176  1.00  0.00     0.303 C 
BRANCH  17  20
HETATM   20  C5  UNK     1      19.681  -5.077  36.261  1.00  0.00     0.312 C 
BRANCH  20  21
HETATM   21  C7  UNK     1      20.560  -5.808  37.217  1.00  0.00    -0.011 A 
HETATM   22  C10 UNK     1      21.681  -5.249  37.694  1.00  0.00     0.092 A 
HETATM   23  C13 UNK     1      22.580  -5.932  38.641  1.00  0.00     0.288 A 
HETATM   24  O1  UNK     1      22.215  -7.210  39.032  1.00  0.00    -0.275 OA
HETATM   25  O3  UNK     1      23.597  -5.389  39.056  1.00  0.00    -0.260 OA
HETATM   26  C11 UNK     1      21.043  -7.825  38.547  1.00  0.00     0.090 A 
HETATM   27  C8  UNK     1      20.201  -7.164  37.651  1.00  0.00     0.006 A 
HETATM   28  C14 UNK     1      20.777  -9.115  39.009  1.00  0.00     0.045 A 
HETATM   29  C12 UNK     1      19.055  -7.844  37.215  1.00  0.00     0.015 A 
HETATM   30  C16 UNK     1      18.774  -9.138  37.670  1.00  0.00     0.007 A 
HETATM   31  C15 UNK     1      19.633  -9.771  38.565  1.00  0.00    -0.059 A 
HETATM   32  C18 UNK     1      19.328 -11.150  39.046  1.00  0.00     0.048 C 
ENDBRANCH  20  21
ENDBRANCH  17  20
ENDBRANCH  13  14
ENDBRANCH  10  13
ENDBRANCH   2   9
TORSDOF 5
ENDMDL
MODEL 6
REMARK VINA RESULT:      -9.4      3.549      4.504
REMARK  5 active torsions:
REMARK  status: ('A' for Active; 'I' for Inactive)
REMARK    1  A    between atoms: C5_12  and  N1_4 
REMARK    2  A    between atoms: C6_13  and  N2_5 
REMARK    3  A    between atoms: C17_24  and  N3_6 
REMARK       I    between atoms: C9_16  and  N3_6 
REMARK    4  A    between atoms: C5_12  and  C7_14 
REMARK    5  A    between atoms: C6_13  and  C9_16 
ROOT
HETATM    1  N4  UNK     1      18.029   2.440  28.202  1.00  0.00    -0.191 NA
HETATM    2  C17 UNK     1      19.686  -0.628  31.552  1.00  0.00     0.036 A 
HETATM    3  C19 UNK     1      19.084   0.428  30.868  1.00  0.00     0.052 A 
HETATM    4  C20 UNK     1      20.348  -1.631  30.844  1.00  0.00     0.029 A 
HETATM    5  C21 UNK     1      19.145   0.481  29.474  1.00  0.00     0.046 A 
HETATM    6  C22 UNK     1      20.408  -1.578  29.452  1.00  0.00     0.004 A 
HETATM    7  C23 UNK     1      19.807  -0.522  28.767  1.00  0.00     0.023 A 
HETATM    8  C24 UNK     1      18.528   1.562  28.773  1.00  0.00     0.099 C 
ENDROOT
BRANCH   2   9
HETATM    9  N3  UNK     1      19.625  -0.682  32.965  1.00  0.00    -0.326 N 
HETATM   10  C9  UNK     1      18.641  -0.146  33.794  1.00  0.00     0.250 C 
HETATM   11  O2  UNK     1      17.642   0.479  33.452  1.00  0.00    -0.271 OA
HETATM   12  H15 UNK     1      20.403  -1.169  33.406  1.00  0.00     0.169 HD
BRANCH  10  13
HETATM   13  C6  UNK     1      18.968  -0.435  35.250  1.00  0.00     0.375 C 
BRANCH  13  14
HETATM   14  N2  UNK     1      18.902  -1.876  35.486  1.00  0.00     0.100 N 
HETATM   15  C3  UNK     1      20.081  -2.550  34.927  1.00  0.00     0.303 C 
HETATM   16  C1  UNK     1      20.015  -4.061  35.176  1.00  0.00     0.303 C 
HETATM   17  N1  UNK     1      19.889  -4.350  36.610  1.00  0.00     0.096 N 
HETATM   18  C2  UNK     1      18.712  -3.676  37.168  1.00  0.00     0.303 C 
HETATM   19  C4  UNK     1      18.779  -2.165  36.920  1.00  0.00     0.303 C 
BRANCH  17  20
HETATM   20  C5  UNK     1      19.822  -5.791  36.844  1.00  0.00     0.312 C 
BRANCH  20  21
HETATM   21  C7  UNK     1      21.113  -6.340  37.347  1.00  0.00    -0.011 A 
HETATM   22  C10 UNK     1      21.864  -5.655  38.220  1.00  0.00     0.092 A 
HETATM   23  C13 UNK     1      23.145  -6.157  38.745  1.00  0.00     0.288 A 
HETATM   24  O1  UNK     1      23.560  -7.398  38.291  1.00  0.00    -0.275 OA
HETATM   25  O3  UNK     1      23.805  -5.502  39.544  1.00  0.00    -0.260 OA
HETATM   26  C11 UNK     1      22.792  -8.142  37.372  1.00  0.00     0.090 A 
HETATM   27  C8  UNK     1      21.580  -7.653  36.884  1.00  0.00     0.006 A 
HETATM   28  C14 UNK     1      23.309  -9.380  36.984  1.00  0.00     0.045 A 
HETATM   29  C12 UNK     1      20.876  -8.454  35.973  1.00  0.00     0.015 A 
HETATM   30  C16 UNK     1      21.381  -9.697  35.574  1.00  0.00     0.007 A 
HETATM   31  C15 UNK     1      22.594 -10.159  36.079  1.00  0.00    -0.059 A 
HETATM   32  C18 UNK     1      23.126 -11.485  35.650  1.00  0.00     0.048 C 
ENDBRANCH  20  21
ENDBRANCH  17  20
ENDBRANCH  13  14
ENDBRANCH  10  13
ENDBRANCH   2   9
TORSDOF 5
ENDMDL
MODEL 7
REMARK VINA RESULT:      -9.2     27.786     30.452
REMARK  5 active torsions:
REMARK  status: ('A' for Active; 'I' for Inactive)
REMARK    1  A    between atoms: C5_12  and  N1_4 
REMARK    2  A    between atoms: C6_13  and  N2_5 
REMARK    3  A    between atoms: C17_24  and  N3_6 
REMARK       I    between atoms: C9_16  and  N3_6 
REMARK    4  A    between atoms: C5_12  and  C7_14 
REMARK    5  A    between atoms: C6_13  and  C9_16 
ROOT
HETATM    1  N4  UNK     1       7.024   5.922   9.375  1.00  0.00    -0.191 NA
HETATM    2  C17 UNK     1      11.498   6.201   7.562  1.00  0.00     0.036 A 
HETATM    3  C19 UNK     1      10.380   6.120   8.392  1.00  0.00     0.052 A 
HETATM    4  C20 UNK     1      11.337   6.232   6.177  1.00  0.00     0.029 A 
HETATM    5  C21 UNK     1       9.101   6.071   7.836  1.00  0.00     0.046 A 
HETATM    6  C22 UNK     1      10.059   6.183   5.622  1.00  0.00     0.004 A 
HETATM    7  C23 UNK     1       8.941   6.102   6.452  1.00  0.00     0.023 A 
HETATM    8  C24 UNK     1       7.955   5.989   8.686  1.00  0.00     0.099 C 
ENDROOT
BRANCH   2   9
HETATM    9  N3  UNK     1      12.796   6.252   8.125  1.00  0.00    -0.326 N 
HETATM   10  C9  UNK     1      13.138   6.522   9.449  1.00  0.00     0.250 C 
HETATM   11  O2  UNK     1      12.374   6.774  10.376  1.00  0.00    -0.271 OA
HETATM   12  H15 UNK     1      13.551   6.071   7.468  1.00  0.00     0.169 HD
BRANCH  10  13
HETATM   13  C6  UNK     1      14.647   6.475   9.620  1.00  0.00     0.375 C 
BRANCH  13  14
HETATM   14  N2  UNK     1      15.146   7.818   9.907  1.00  0.00     0.100 N 
HETATM   15  C3  UNK     1      16.614   7.830   9.953  1.00  0.00     0.303 C 
HETATM   16  C1  UNK     1      17.139   9.238  10.251  1.00  0.00     0.303 C 
HETATM   17  N1  UNK     1      16.648  10.201   9.258  1.00  0.00     0.096 N 
HETATM   18  C2  UNK     1      15.182  10.189   9.211  1.00  0.00     0.303 C 
HETATM   19  C4  UNK     1      14.657   8.780   8.912  1.00  0.00     0.303 C 
BRANCH  17  20
HETATM   20  C5  UNK     1      17.147  11.544   9.547  1.00  0.00     0.312 C 
BRANCH  20  21
HETATM   21  C7  UNK     1      18.267  11.935   8.644  1.00  0.00    -0.011 A 
HETATM   22  C10 UNK     1      18.054  12.184   7.345  1.00  0.00     0.092 A 
HETATM   23  C13 UNK     1      19.129  12.573   6.415  1.00  0.00     0.288 A 
HETATM   24  O1  UNK     1      20.404  12.676   6.947  1.00  0.00    -0.275 OA
HETATM   25  O3  UNK     1      18.896  12.793   5.232  1.00  0.00    -0.260 OA
HETATM   26  C11 UNK     1      20.659  12.419   8.309  1.00  0.00     0.090 A 
HETATM   27  C8  UNK     1      19.630  12.052   9.177  1.00  0.00     0.006 A 
HETATM   28  C14 UNK     1      21.982  12.553   8.733  1.00  0.00     0.045 A 
HETATM   29  C12 UNK     1      19.965  11.814  10.518  1.00  0.00     0.015 A 
HETATM   30  C16 UNK     1      21.288  11.944  10.958  1.00  0.00     0.007 A 
HETATM   31  C15 UNK     1      22.294  12.313  10.068  1.00  0.00    -0.059 A 
HETATM   32  C18 UNK     1      23.700  12.450  10.544  1.00  0.00     0.048 C 
ENDBRANCH  20  21
ENDBRANCH  17  20
ENDBRANCH  13  14
ENDBRANCH  10  13
ENDBRANCH   2   9
TORSDOF 5
ENDMDL
MODEL 8
REMARK VINA RESULT:      -9.2      1.863      2.474
REMARK  5 active torsions:
REMARK  status: ('A' for Active; 'I' for Inactive)
REMARK    1  A    between atoms: C5_12  and  N1_4 
REMARK    2  A    between atoms: C6_13  and  N2_5 
REMARK    3  A    between atoms: C17_24  and  N3_6 
REMARK       I    between atoms: C9_16  and  N3_6 
REMARK    4  A    between atoms: C5_12  and  C7_14 
REMARK    5  A    between atoms: C6_13  and  C9_16 
ROOT
HETATM    1  N4  UNK     1      17.786   7.681  33.589  1.00  0.00    -0.191 NA
HETATM    2  C17 UNK     1      18.346   2.886  33.856  1.00  0.00     0.036 A 
HETATM    3  C19 UNK     1      18.188   4.244  34.130  1.00  0.00     0.052 A 
HETATM    4  C20 UNK     1      18.396   2.443  32.534  1.00  0.00     0.029 A 
HETATM    5  C21 UNK     1      18.080   5.159  33.082  1.00  0.00     0.046 A 
HETATM    6  C22 UNK     1      18.289   3.357  31.487  1.00  0.00     0.004 A 
HETATM    7  C23 UNK     1      18.130   4.716  31.761  1.00  0.00     0.023 A 
HETATM    8  C24 UNK     1      17.917   6.551  33.362  1.00  0.00     0.099 C 
ENDROOT
BRANCH   2   9
HETATM    9  N3  UNK     1      18.456   1.957  34.918  1.00  0.00    -0.326 N 
HETATM   10  C9  UNK     1      17.586   0.914  35.229  1.00  0.00     0.250 C 
HETATM   11  O2  UNK     1      16.554   0.609  34.638  1.00  0.00    -0.271 OA
HETATM   12  H15 UNK     1      19.271   2.089  35.514  1.00  0.00     0.169 HD
BRANCH  10  13
HETATM   13  C6  UNK     1      18.084   0.162  36.451  1.00  0.00     0.375 C 
BRANCH  13  14
HETATM   14  N2  UNK     1      18.336  -1.232  36.094  1.00  0.00     0.100 N 
HETATM   15  C3  UNK     1      19.763  -1.452  35.827  1.00  0.00     0.303 C 
HETATM   16  C1  UNK     1      20.030  -2.914  35.455  1.00  0.00     0.303 C 
HETATM   17  N1  UNK     1      19.561  -3.817  36.514  1.00  0.00     0.096 N 
HETATM   18  C2  UNK     1      18.135  -3.597  36.782  1.00  0.00     0.303 C 
HETATM   19  C4  UNK     1      17.869  -2.135  37.154  1.00  0.00     0.303 C 
BRANCH  17  20
HETATM   20  C5  UNK     1      19.812  -5.211  36.155  1.00  0.00     0.312 C 
BRANCH  20  21
HETATM   21  C7  UNK     1      20.650  -5.911  37.170  1.00  0.00    -0.011 A 
HETATM   22  C10 UNK     1      21.755  -5.340  37.669  1.00  0.00     0.092 A 
HETATM   23  C13 UNK     1      22.612  -5.992  38.674  1.00  0.00     0.288 A 
HETATM   24  O1  UNK     1      22.225  -7.253  39.097  1.00  0.00    -0.275 OA
HETATM   25  O3  UNK     1      23.616  -5.439  39.107  1.00  0.00    -0.260 OA
HETATM   26  C11 UNK     1      21.069  -7.879  38.591  1.00  0.00     0.090 A 
HETATM   27  C8  UNK     1      20.266  -7.248  37.640  1.00  0.00     0.006 A 
HETATM   28  C14 UNK     1      20.776  -9.150  39.090  1.00  0.00     0.045 A 
HETATM   29  C12 UNK     1      19.132  -7.938  37.186  1.00  0.00     0.015 A 
HETATM   30  C16 UNK     1      18.826  -9.213  37.676  1.00  0.00     0.007 A 
HETATM   31  C15 UNK     1      19.647  -9.817  38.627  1.00  0.00    -0.059 A 
HETATM   32  C18 UNK     1      19.314 -11.175  39.146  1.00  0.00     0.048 C 
ENDBRANCH  20  21
ENDBRANCH  17  20
ENDBRANCH  13  14
ENDBRANCH  10  13
ENDBRANCH   2   9
TORSDOF 5
ENDMDL
MODEL 9
REMARK VINA RESULT:      -9.2      6.111      9.143
REMARK  5 active torsions:
REMARK  status: ('A' for Active; 'I' for Inactive)
REMARK    1  A    between atoms: C5_12  and  N1_4 
REMARK    2  A    between atoms: C6_13  and  N2_5 
REMARK    3  A    between atoms: C17_24  and  N3_6 
REMARK       I    between atoms: C9_16  and  N3_6 
REMARK    4  A    between atoms: C5_12  and  C7_14 
REMARK    5  A    between atoms: C6_13  and  C9_16 
ROOT
HETATM    1  N4  UNK     1      13.399  13.313  37.154  1.00  0.00    -0.191 NA
HETATM    2  C17 UNK     1      15.527  10.130  34.201  1.00  0.00     0.036 A 
HETATM    3  C19 UNK     1      15.202  10.993  35.247  1.00  0.00     0.052 A 
HETATM    4  C20 UNK     1      14.656   9.983  33.122  1.00  0.00     0.029 A 
HETATM    5  C21 UNK     1      14.004  11.710  35.214  1.00  0.00     0.046 A 
HETATM    6  C22 UNK     1      13.460  10.699  33.088  1.00  0.00     0.004 A 
HETATM    7  C23 UNK     1      13.134  11.563  34.134  1.00  0.00     0.023 A 
HETATM    8  C24 UNK     1      13.670  12.594  36.285  1.00  0.00     0.099 C 
ENDROOT
BRANCH   2   9
HETATM    9  N3  UNK     1      16.741   9.404  34.235  1.00  0.00    -0.326 N 
HETATM   10  C9  UNK     1      18.020   9.871  33.939  1.00  0.00     0.250 C 
HETATM   11  O2  UNK     1      18.332  11.005  33.588  1.00  0.00    -0.271 OA
HETATM   12  H15 UNK     1      16.644   8.427  34.504  1.00  0.00     0.169 HD
BRANCH  10  13
HETATM   13  C6  UNK     1      19.038   8.755  34.103  1.00  0.00     0.375 C 
BRANCH  13  14
HETATM   14  N2  UNK     1      18.696   7.650  33.210  1.00  0.00     0.100 N 
HETATM   15  C3  UNK     1      19.892   6.873  32.861  1.00  0.00     0.303 C 
HETATM   16  C1  UNK     1      19.536   5.712  31.927  1.00  0.00     0.303 C 
HETATM   17  N1  UNK     1      18.519   4.845  32.534  1.00  0.00     0.096 N 
HETATM   18  C2  UNK     1      17.323   5.622  32.882  1.00  0.00     0.303 C 
HETATM   19  C4  UNK     1      17.680   6.782  33.818  1.00  0.00     0.303 C 
BRANCH  17  20
HETATM   20  C5  UNK     1      18.176   3.742  31.638  1.00  0.00     0.312 C 
BRANCH  20  21
HETATM   21  C7  UNK     1      18.382   2.412  32.280  1.00  0.00    -0.011 A 
HETATM   22  C10 UNK     1      18.046   2.202  33.561  1.00  0.00     0.092 A 
HETATM   23  C13 UNK     1      18.229   0.907  34.238  1.00  0.00     0.288 A 
HETATM   24  O1  UNK     1      18.777  -0.117  33.482  1.00  0.00    -0.275 OA
HETATM   25  O3  UNK     1      17.910   0.752  35.410  1.00  0.00    -0.260 OA
HETATM   26  C11 UNK     1      19.141   0.073  32.134  1.00  0.00     0.090 A 
HETATM   27  C8  UNK     1      18.960   1.307  31.506  1.00  0.00     0.006 A 
HETATM   28  C14 UNK     1      19.684  -1.029  31.471  1.00  0.00     0.045 A 
HETATM   29  C12 UNK     1      19.347   1.415  30.163  1.00  0.00     0.015 A 
HETATM   30  C16 UNK     1      19.894   0.319  29.485  1.00  0.00     0.007 A 
HETATM   31  C15 UNK     1      20.061  -0.901  30.138  1.00  0.00    -0.059 A 
HETATM   32  C18 UNK     1      20.643  -2.065  29.410  1.00  0.00     0.048 C 
ENDBRANCH  20  21
ENDBRANCH  17  20
ENDBRANCH  13  14
ENDBRANCH  10  13
ENDBRANCH   2   9
TORSDOF 5
ENDMDL
MODEL 10
REMARK VINA RESULT:      -9.2      2.869     10.699
REMARK  5 active torsions:
REMARK  status: ('A' for Active; 'I' for Inactive)
REMARK    1  A    between atoms: C5_12  and  N1_4 
REMARK    2  A    between atoms: C6_13  and  N2_5 
REMARK    3  A    between atoms: C17_24  and  N3_6 
REMARK       I    between atoms: C9_16  and  N3_6 
REMARK    4  A    between atoms: C5_12  and  C7_14 
REMARK    5  A    between atoms: C6_13  and  C9_16 
ROOT
HETATM    1  N4  UNK     1      21.862 -10.335  34.439  1.00  0.00    -0.191 NA
HETATM    2  C17 UNK     1      19.987  -7.144  37.552  1.00  0.00     0.036 A 
HETATM    3  C19 UNK     1      20.687  -7.779  36.526  1.00  0.00     0.052 A 
HETATM    4  C20 UNK     1      19.161  -7.888  38.395  1.00  0.00     0.029 A 
HETATM    5  C21 UNK     1      20.562  -9.156  36.343  1.00  0.00     0.046 A 
HETATM    6  C22 UNK     1      19.036  -9.265  38.213  1.00  0.00     0.004 A 
HETATM    7  C23 UNK     1      19.736  -9.899  37.187  1.00  0.00     0.023 A 
HETATM    8  C24 UNK     1      21.279  -9.806  35.292  1.00  0.00     0.099 C 
ENDROOT
BRANCH   2   9
HETATM    9  N3  UNK     1      20.114  -5.747  37.738  1.00  0.00    -0.326 N 
HETATM   10  C9  UNK     1      21.290  -5.011  37.872  1.00  0.00     0.250 C 
HETATM   11  O2  UNK     1      22.439  -5.441  37.859  1.00  0.00    -0.271 OA
HETATM   12  H15 UNK     1      19.231  -5.242  37.780  1.00  0.00     0.169 HD
BRANCH  10  13
HETATM   13  C6  UNK     1      20.968  -3.537  38.053  1.00  0.00     0.375 C 
BRANCH  13  14
HETATM   14  N2  UNK     1      19.951  -3.140  37.082  1.00  0.00     0.100 N 
HETATM   15  C3  UNK     1      18.958  -2.252  37.702  1.00  0.00     0.303 C 
HETATM   16  C1  UNK     1      17.892  -1.832  36.685  1.00  0.00     0.303 C 
HETATM   17  N1  UNK     1      18.507  -1.181  35.521  1.00  0.00     0.096 N 
HETATM   18  C2  UNK     1      19.499  -2.067  34.902  1.00  0.00     0.303 C 
HETATM   19  C4  UNK     1      20.566  -2.487  35.920  1.00  0.00     0.303 C 
BRANCH  17  20
HETATM   20  C5  UNK     1      17.489  -0.785  34.550  1.00  0.00     0.312 C 
BRANCH  20  21
HETATM   21  C7  UNK     1      17.968   0.294  33.641  1.00  0.00    -0.011 A 
HETATM   22  C10 UNK     1      17.728   1.585  33.912  1.00  0.00     0.092 A 
HETATM   23  C13 UNK     1      18.183   2.685  33.044  1.00  0.00     0.288 A 
HETATM   24  O1  UNK     1      18.887   2.329  31.906  1.00  0.00    -0.275 OA
HETATM   25  O3  UNK     1      17.945   3.854  33.324  1.00  0.00    -0.260 OA
HETATM   26  C11 UNK     1      19.154   0.981  31.594  1.00  0.00     0.090 A 
HETATM   27  C8  UNK     1      18.718  -0.051  32.426  1.00  0.00     0.006 A 
HETATM   28  C14 UNK     1      19.872   0.740  30.421  1.00  0.00     0.045 A 
HETATM   29  C12 UNK     1      19.024  -1.366  32.047  1.00  0.00     0.015 A 
HETATM   30  C16 UNK     1      19.742  -1.622  30.873  1.00  0.00     0.007 A 
HETATM   31  C15 UNK     1      20.166  -0.571  30.063  1.00  0.00    -0.059 A 
HETATM   32  C18 UNK     1      20.931  -0.852  28.814  1.00  0.00     0.048 C 
ENDBRANCH  20  21
ENDBRANCH  17  20
ENDBRANCH  13  14
ENDBRANCH  10  13
ENDBRANCH   2   9
TORSDOF 5
ENDMDL
