MODEL 1
REMARK VINA RESULT:      -7.5      0.000      0.000
REMARK  6 active torsions:
REMARK  status: ('A' for Active; 'I' for Inactive)
REMARK    1  A    between atoms: C3_8  and  O1_1 
REMARK    2  A    between atoms: C9_14  and  O1_1 
REMARK    3  A    between atoms: C15_20  and  O3_3 
REMARK    4  A    between atoms: C16_21  and  O3_3 
REMARK    5  A    between atoms: C1_6  and  C6_11 
REMARK    6  A    between atoms: C15_20  and  C9_14 
ROOT
HETATM    1  O2  UNK     1      18.573   0.176  34.541  1.00  0.00    -0.275 OA
HETATM    2  O4  UNK     1      18.992  -1.679  35.811  1.00  0.00    -0.260 OA
HETATM    3  C1  UNK     1      18.602   2.131  30.855  1.00  0.00    -0.024 A 
HETATM    4  C2  UNK     1      19.075   0.124  32.150  1.00  0.00     0.005 A 
HETATM    5  C3  UNK     1      18.136   2.780  31.997  1.00  0.00     0.079 A 
HETATM    6  C4  UNK     1      19.069   0.813  30.930  1.00  0.00     0.024 A 
HETATM    7  C5  UNK     1      18.602   0.798  33.277  1.00  0.00     0.092 A 
HETATM    8  C7  UNK     1      18.133   2.112  33.217  1.00  0.00     0.075 A 
HETATM    9  C8  UNK     1      19.548  -1.257  32.305  1.00  0.00    -0.043 A 
HETATM   10  C11 UNK     1      19.511  -1.825  33.519  1.00  0.00     0.090 A 
HETATM   11  C12 UNK     1      20.063  -2.010  31.112  1.00  0.00     0.049 C 
HETATM   12  C14 UNK     1      19.014  -1.127  34.716  1.00  0.00     0.288 A 
ENDROOT
BRANCH   5  13
HETATM   13  O1  UNK     1      17.681   4.061  31.935  1.00  0.00    -0.336 OA
BRANCH  13  14
HETATM   14  C9  UNK     1      18.400   5.043  32.679  1.00  0.00     0.224 C 
HETATM   15  C13 UNK     1      19.463   5.636  31.773  1.00  0.00     0.051 C 
BRANCH  14  16
HETATM   16  C15 UNK     1      17.426   6.100  33.156  1.00  0.00     0.288 C 
HETATM   17  O5  UNK     1      16.392   6.405  32.575  1.00  0.00    -0.262 OA
BRANCH  16  18
HETATM   18  O3  UNK     1      17.865   6.632  34.335  1.00  0.00    -0.320 OA
BRANCH  18  19
HETATM   19  C16 UNK     1      18.055   8.050  34.340  1.00  0.00     0.174 C 
HETATM   20  C17 UNK     1      19.533   8.350  34.458  1.00  0.00     0.034 C 
ENDBRANCH  18  19
ENDBRANCH  16  18
ENDBRANCH  14  16
ENDBRANCH  13  14
ENDBRANCH   5  13
BRANCH   3  21
HETATM   21  C6  UNK     1      18.614   2.831  29.536  1.00  0.00     0.037 C 
HETATM   22  C10 UNK     1      17.877   2.044  28.457  1.00  0.00     0.010 C 
ENDBRANCH   3  21
TORSDOF 6
ENDMDL
MODEL 2
REMARK VINA RESULT:      -7.4      1.760      5.997
REMARK  6 active torsions:
REMARK  status: ('A' for Active; 'I' for Inactive)
REMARK    1  A    between atoms: C3_8  and  O1_1 
REMARK    2  A    between atoms: C9_14  and  O1_1 
REMARK    3  A    between atoms: C15_20  and  O3_3 
REMARK    4  A    between atoms: C16_21  and  O3_3 
REMARK    5  A    between atoms: C1_6  and  C6_11 
REMARK    6  A    between atoms: C15_20  and  C9_14 
ROOT
HETATM    1  O2  UNK     1      17.878   5.309  33.878  1.00  0.00    -0.275 OA
HETATM    2  O4  UNK     1      17.685   7.563  34.212  1.00  0.00    -0.260 OA
HETATM    3  C1  UNK     1      18.714   2.070  31.385  1.00  0.00    -0.024 A 
HETATM    4  C2  UNK     1      18.523   4.480  31.672  1.00  0.00     0.005 A 
HETATM    5  C3  UNK     1      18.357   1.865  32.716  1.00  0.00     0.079 A 
HETATM    6  C4  UNK     1      18.796   3.367  30.866  1.00  0.00     0.024 A 
HETATM    7  C5  UNK     1      18.168   4.245  33.001  1.00  0.00     0.092 A 
HETATM    8  C7  UNK     1      18.082   2.956  33.533  1.00  0.00     0.075 A 
HETATM    9  C8  UNK     1      18.589   5.868  31.197  1.00  0.00    -0.043 A 
HETATM   10  C11 UNK     1      18.308   6.862  32.053  1.00  0.00     0.090 A 
HETATM   11  C12 UNK     1      18.969   6.155  29.774  1.00  0.00     0.049 C 
HETATM   12  C14 UNK     1      17.933   6.629  33.457  1.00  0.00     0.288 A 
ENDROOT
BRANCH   5  13
HETATM   13  O1  UNK     1      18.272   0.607  33.231  1.00  0.00    -0.336 OA
BRANCH  13  14
HETATM   14  C9  UNK     1      17.750   0.480  34.552  1.00  0.00     0.224 C 
HETATM   15  C13 UNK     1      16.728  -0.642  34.550  1.00  0.00     0.051 C 
BRANCH  14  16
HETATM   16  C15 UNK     1      18.895   0.184  35.500  1.00  0.00     0.288 C 
HETATM   17  O5  UNK     1      19.524  -0.866  35.522  1.00  0.00    -0.262 OA
BRANCH  16  18
HETATM   18  O3  UNK     1      19.127   1.271  36.295  1.00  0.00    -0.320 OA
BRANCH  18  19
HETATM   19  C16 UNK     1      17.992   1.764  37.013  1.00  0.00     0.174 C 
HETATM   20  C17 UNK     1      17.617   0.766  38.087  1.00  0.00     0.034 C 
ENDBRANCH  18  19
ENDBRANCH  16  18
ENDBRANCH  14  16
ENDBRANCH  13  14
ENDBRANCH   5  13
BRANCH   3  21
HETATM   21  C6  UNK     1      19.012   0.910  30.492  1.00  0.00     0.037 C 
HETATM   22  C10 UNK     1      18.671   1.201  29.034  1.00  0.00     0.010 C 
ENDBRANCH   3  21
TORSDOF 6
ENDMDL
MODEL 3
REMARK VINA RESULT:      -7.3      1.689      2.506
REMARK  6 active torsions:
REMARK  status: ('A' for Active; 'I' for Inactive)
REMARK    1  A    between atoms: C3_8  and  O1_1 
REMARK    2  A    between atoms: C9_14  and  O1_1 
REMARK    3  A    between atoms: C15_20  and  O3_3 
REMARK    4  A    between atoms: C16_21  and  O3_3 
REMARK    5  A    between atoms: C1_6  and  C6_11 
REMARK    6  A    between atoms: C15_20  and  C9_14 
ROOT
HETATM    1  O2  UNK     1      18.296   0.872  33.295  1.00  0.00    -0.275 OA
HETATM    2  O4  UNK     1      18.577  -1.354  33.737  1.00  0.00    -0.260 OA
HETATM    3  C1  UNK     1      18.677   4.136  30.724  1.00  0.00    -0.024 A 
HETATM    4  C2  UNK     1      19.008   1.758  31.132  1.00  0.00     0.005 A 
HETATM    5  C3  UNK     1      18.119   4.294  31.991  1.00  0.00     0.079 A 
HETATM    6  C4  UNK     1      19.119   2.878  30.296  1.00  0.00     0.024 A 
HETATM    7  C5  UNK     1      18.445   1.946  32.395  1.00  0.00     0.092 A 
HETATM    8  C7  UNK     1      18.000   3.195  32.835  1.00  0.00     0.075 A 
HETATM    9  C8  UNK     1      19.448   0.410  30.752  1.00  0.00    -0.043 A 
HETATM   10  C11 UNK     1      19.296  -0.595  31.628  1.00  0.00     0.090 A 
HETATM   11  C12 UNK     1      20.057   0.174  29.400  1.00  0.00     0.049 C 
HETATM   12  C14 UNK     1      18.703  -0.412  32.963  1.00  0.00     0.288 A 
ENDROOT
BRANCH   5  13
HETATM   13  O1  UNK     1      17.688   5.513  32.417  1.00  0.00    -0.336 OA
BRANCH  13  14
HETATM   14  C9  UNK     1      18.064   5.912  33.733  1.00  0.00     0.224 C 
HETATM   15  C13 UNK     1      19.436   6.556  33.657  1.00  0.00     0.051 C 
BRANCH  14  16
HETATM   16  C15 UNK     1      17.026   6.881  34.262  1.00  0.00     0.288 C 
HETATM   17  O5  UNK     1      17.166   7.570  35.264  1.00  0.00    -0.262 OA
BRANCH  16  18
HETATM   18  O3  UNK     1      15.936   6.881  33.439  1.00  0.00    -0.320 OA
BRANCH  18  19
HETATM   19  C16 UNK     1      14.769   7.526  33.959  1.00  0.00     0.174 C 
HETATM   20  C17 UNK     1      14.557   8.831  33.222  1.00  0.00     0.034 C 
ENDBRANCH  18  19
ENDBRANCH  16  18
ENDBRANCH  14  16
ENDBRANCH  13  14
ENDBRANCH   5  13
BRANCH   3  21
HETATM   21  C6  UNK     1      18.815   5.304  29.804  1.00  0.00     0.037 C 
HETATM   22  C10 UNK     1      20.162   6.003  29.953  1.00  0.00     0.010 C 
ENDBRANCH   3  21
TORSDOF 6
ENDMDL
MODEL 4
REMARK VINA RESULT:      -7.2      2.114      3.401
REMARK  6 active torsions:
REMARK  status: ('A' for Active; 'I' for Inactive)
REMARK    1  A    between atoms: C3_8  and  O1_1 
REMARK    2  A    between atoms: C9_14  and  O1_1 
REMARK    3  A    between atoms: C15_20  and  O3_3 
REMARK    4  A    between atoms: C16_21  and  O3_3 
REMARK    5  A    between atoms: C1_6  and  C6_11 
REMARK    6  A    between atoms: C15_20  and  C9_14 
ROOT
HETATM    1  O2  UNK     1      19.398   0.883  29.306  1.00  0.00    -0.275 OA
HETATM    2  O4  UNK     1      20.208  -0.744  27.918  1.00  0.00    -0.260 OA
HETATM    3  C1  UNK     1      18.306   2.190  33.115  1.00  0.00    -0.024 A 
HETATM    4  C2  UNK     1      19.172   0.413  31.693  1.00  0.00     0.005 A 
HETATM    5  C3  UNK     1      18.186   3.037  32.014  1.00  0.00     0.079 A 
HETATM    6  C4  UNK     1      18.795   0.888  32.956  1.00  0.00     0.024 A 
HETATM    7  C5  UNK     1      19.041   1.283  30.609  1.00  0.00     0.092 A 
HETATM    8  C7  UNK     1      18.555   2.584  30.752  1.00  0.00     0.075 A 
HETATM    9  C8  UNK     1      19.692  -0.938  31.450  1.00  0.00    -0.043 A 
HETATM   10  C11 UNK     1      20.024  -1.293  30.200  1.00  0.00     0.090 A 
HETATM   11  C12 UNK     1      19.846  -1.898  32.595  1.00  0.00     0.049 C 
HETATM   12  C14 UNK     1      19.892  -0.387  29.048  1.00  0.00     0.288 A 
ENDROOT
BRANCH   5  13
HETATM   13  O1  UNK     1      17.711   4.304  32.157  1.00  0.00    -0.336 OA
BRANCH  13  14
HETATM   14  C9  UNK     1      18.671   5.359  32.184  1.00  0.00     0.224 C 
HETATM   15  C13 UNK     1      18.539   6.151  30.896  1.00  0.00     0.051 C 
BRANCH  14  16
HETATM   16  C15 UNK     1      18.403   6.226  33.398  1.00  0.00     0.288 C 
HETATM   17  O5  UNK     1      17.397   6.158  34.092  1.00  0.00    -0.262 OA
BRANCH  16  18
HETATM   18  O3  UNK     1      19.462   7.064  33.607  1.00  0.00    -0.320 OA
BRANCH  18  19
HETATM   19  C16 UNK     1      19.355   7.921  34.748  1.00  0.00     0.174 C 
HETATM   20  C17 UNK     1      20.204   9.153  34.520  1.00  0.00     0.034 C 
ENDBRANCH  18  19
ENDBRANCH  16  18
ENDBRANCH  14  16
ENDBRANCH  13  14
ENDBRANCH   5  13
BRANCH   3  21
HETATM   21  C6  UNK     1      17.914   2.657  34.478  1.00  0.00     0.037 C 
HETATM   22  C10 UNK     1      18.645   1.898  35.582  1.00  0.00     0.010 C 
ENDBRANCH   3  21
TORSDOF 6
ENDMDL
MODEL 5
REMARK VINA RESULT:      -7.1      1.855      2.533
REMARK  6 active torsions:
REMARK  status: ('A' for Active; 'I' for Inactive)
REMARK    1  A    between atoms: C3_8  and  O1_1 
REMARK    2  A    between atoms: C9_14  and  O1_1 
REMARK    3  A    between atoms: C15_20  and  O3_3 
REMARK    4  A    between atoms: C16_21  and  O3_3 
REMARK    5  A    between atoms: C1_6  and  C6_11 
REMARK    6  A    between atoms: C15_20  and  C9_14 
ROOT
HETATM    1  O2  UNK     1      18.140   2.439  35.820  1.00  0.00    -0.275 OA
HETATM    2  O4  UNK     1      18.103   1.027  37.618  1.00  0.00    -0.260 OA
HETATM    3  C1  UNK     1      18.369   3.062  31.701  1.00  0.00    -0.024 A 
HETATM    4  C2  UNK     1      18.339   1.504  33.572  1.00  0.00     0.005 A 
HETATM    5  C3  UNK     1      18.251   4.141  32.574  1.00  0.00     0.079 A 
HETATM    6  C4  UNK     1      18.413   1.753  32.194  1.00  0.00     0.024 A 
HETATM    7  C5  UNK     1      18.221   2.604  34.422  1.00  0.00     0.092 A 
HETATM    8  C7  UNK     1      18.175   3.915  33.945  1.00  0.00     0.075 A 
HETATM    9  C8  UNK     1      18.379   0.160  34.161  1.00  0.00    -0.043 A 
HETATM   10  C11 UNK     1      18.301   0.032  35.494  1.00  0.00     0.090 A 
HETATM   11  C12 UNK     1      18.505  -1.044  33.273  1.00  0.00     0.049 C 
HETATM   12  C14 UNK     1      18.175   1.182  36.404  1.00  0.00     0.288 A 
ENDROOT
BRANCH   5  13
HETATM   13  O1  UNK     1      18.208   5.419  32.105  1.00  0.00    -0.336 OA
BRANCH  13  14
HETATM   14  C9  UNK     1      18.714   6.442  32.959  1.00  0.00     0.224 C 
HETATM   15  C13 UNK     1      20.199   6.597  32.682  1.00  0.00     0.051 C 
BRANCH  14  16
HETATM   16  C15 UNK     1      17.961   7.726  32.677  1.00  0.00     0.288 C 
HETATM   17  O5  UNK     1      18.082   8.758  33.324  1.00  0.00    -0.262 OA
BRANCH  16  18
HETATM   18  O3  UNK     1      17.158   7.558  31.584  1.00  0.00    -0.320 OA
BRANCH  18  19
HETATM   19  C16 UNK     1      15.862   8.159  31.672  1.00  0.00     0.174 C 
HETATM   20  C17 UNK     1      14.862   7.111  32.110  1.00  0.00     0.034 C 
ENDBRANCH  18  19
ENDBRANCH  16  18
ENDBRANCH  14  16
ENDBRANCH  13  14
ENDBRANCH   5  13
BRANCH   3  21
HETATM   21  C6  UNK     1      18.452   3.285  30.226  1.00  0.00     0.037 C 
HETATM   22  C10 UNK     1      18.528   1.975  29.447  1.00  0.00     0.010 C 
ENDBRANCH   3  21
TORSDOF 6
ENDMDL
MODEL 6
REMARK VINA RESULT:      -7.0      3.061      8.966
REMARK  6 active torsions:
REMARK  status: ('A' for Active; 'I' for Inactive)
REMARK    1  A    between atoms: C3_8  and  O1_1 
REMARK    2  A    between atoms: C9_14  and  O1_1 
REMARK    3  A    between atoms: C15_20  and  O3_3 
REMARK    4  A    between atoms: C16_21  and  O3_3 
REMARK    5  A    between atoms: C1_6  and  C6_11 
REMARK    6  A    between atoms: C15_20  and  C9_14 
ROOT
HETATM    1  O2  UNK     1      14.598   9.222  32.909  1.00  0.00    -0.275 OA
HETATM    2  O4  UNK     1      12.789  10.620  32.870  1.00  0.00    -0.260 OA
HETATM    3  C1  UNK     1      18.608   8.503  33.811  1.00  0.00    -0.024 A 
HETATM    4  C2  UNK     1      16.722  10.043  33.796  1.00  0.00     0.005 A 
HETATM    5  C3  UNK     1      17.820   7.503  33.244  1.00  0.00     0.079 A 
HETATM    6  C4  UNK     1      18.065   9.764  34.085  1.00  0.00     0.024 A 
HETATM    7  C5  UNK     1      15.956   9.023  33.229  1.00  0.00     0.092 A 
HETATM    8  C7  UNK     1      16.485   7.761  32.950  1.00  0.00     0.075 A 
HETATM    9  C8  UNK     1      16.084  11.340  34.055  1.00  0.00    -0.043 A 
HETATM   10  C11 UNK     1      14.790  11.502  33.740  1.00  0.00     0.090 A 
HETATM   11  C12 UNK     1      16.880  12.457  34.665  1.00  0.00     0.049 C 
HETATM   12  C14 UNK     1      13.970  10.436  33.143  1.00  0.00     0.288 A 
ENDROOT
BRANCH   5  13
HETATM   13  O1  UNK     1      18.338   6.274  32.973  1.00  0.00    -0.336 OA
BRANCH  13  14
HETATM   14  C9  UNK     1      18.194   5.788  31.640  1.00  0.00     0.224 C 
HETATM   15  C13 UNK     1      19.356   6.312  30.817  1.00  0.00     0.051 C 
BRANCH  14  16
HETATM   16  C15 UNK     1      18.179   4.273  31.676  1.00  0.00     0.288 C 
HETATM   17  O5  UNK     1      17.718   3.605  32.592  1.00  0.00    -0.262 OA
BRANCH  16  18
HETATM   18  O3  UNK     1      18.729   3.780  30.526  1.00  0.00    -0.320 OA
BRANCH  18  19
HETATM   19  C16 UNK     1      18.508   2.387  30.284  1.00  0.00     0.174 C 
HETATM   20  C17 UNK     1      18.026   2.204  28.862  1.00  0.00     0.034 C 
ENDBRANCH  18  19
ENDBRANCH  16  18
ENDBRANCH  14  16
ENDBRANCH  13  14
ENDBRANCH   5  13
BRANCH   3  21
HETATM   21  C6  UNK     1      20.043   8.246  34.133  1.00  0.00     0.037 C 
HETATM   22  C10 UNK     1      20.785   9.521  34.525  1.00  0.00     0.010 C 
ENDBRANCH   3  21
TORSDOF 6
ENDMDL
MODEL 7
REMARK VINA RESULT:      -7.0      3.703      7.352
REMARK  6 active torsions:
REMARK  status: ('A' for Active; 'I' for Inactive)
REMARK    1  A    between atoms: C3_8  and  O1_1 
REMARK    2  A    between atoms: C9_14  and  O1_1 
REMARK    3  A    between atoms: C15_20  and  O3_3 
REMARK    4  A    between atoms: C16_21  and  O3_3 
REMARK    5  A    between atoms: C1_6  and  C6_11 
REMARK    6  A    between atoms: C15_20  and  C9_14 
ROOT
HETATM    1  O2  UNK     1      19.691  -0.966  30.546  1.00  0.00    -0.275 OA
HETATM    2  O4  UNK     1      20.340  -0.696  28.370  1.00  0.00    -0.260 OA
HETATM    3  C1  UNK     1      18.121   0.595  34.083  1.00  0.00    -0.024 A 
HETATM    4  C2  UNK     1      18.797   0.951  31.771  1.00  0.00     0.005 A 
HETATM    5  C3  UNK     1      18.490  -0.747  34.003  1.00  0.00     0.079 A 
HETATM    6  C4  UNK     1      18.274   1.438  32.976  1.00  0.00     0.024 A 
HETATM    7  C5  UNK     1      19.158  -0.397  31.720  1.00  0.00     0.092 A 
HETATM    8  C7  UNK     1      19.011  -1.250  32.816  1.00  0.00     0.075 A 
HETATM    9  C8  UNK     1      18.985   1.774  30.570  1.00  0.00    -0.043 A 
HETATM   10  C11 UNK     1      19.495   1.208  29.466  1.00  0.00     0.090 A 
HETATM   11  C12 UNK     1      18.606   3.227  30.592  1.00  0.00     0.049 C 
HETATM   12  C14 UNK     1      19.879  -0.211  29.397  1.00  0.00     0.288 A 
ENDROOT
BRANCH   5  13
HETATM   13  O1  UNK     1      18.347  -1.575  35.074  1.00  0.00    -0.336 OA
BRANCH  13  14
HETATM   14  C9  UNK     1      19.294  -1.439  36.132  1.00  0.00     0.224 C 
HETATM   15  C13 UNK     1      18.588  -1.740  37.441  1.00  0.00     0.051 C 
BRANCH  14  16
HETATM   16  C15 UNK     1      20.438  -2.403  35.885  1.00  0.00     0.288 C 
HETATM   17  O5  UNK     1      21.521  -2.087  35.410  1.00  0.00    -0.262 OA
BRANCH  16  18
HETATM   18  O3  UNK     1      20.081  -3.655  36.296  1.00  0.00    -0.320 OA
BRANCH  18  19
HETATM   19  C16 UNK     1      20.960  -4.268  37.244  1.00  0.00     0.174 C 
HETATM   20  C17 UNK     1      20.290  -5.499  37.816  1.00  0.00     0.034 C 
ENDBRANCH  18  19
ENDBRANCH  16  18
ENDBRANCH  14  16
ENDBRANCH  13  14
ENDBRANCH   5  13
BRANCH   3  21
HETATM   21  C6  UNK     1      17.561   1.154  35.349  1.00  0.00     0.037 C 
HETATM   22  C10 UNK     1      18.554   2.058  36.073  1.00  0.00     0.010 C 
ENDBRANCH   3  21
TORSDOF 6
ENDMDL
MODEL 8
REMARK VINA RESULT:      -7.0      2.480      5.586
REMARK  6 active torsions:
REMARK  status: ('A' for Active; 'I' for Inactive)
REMARK    1  A    between atoms: C3_8  and  O1_1 
REMARK    2  A    between atoms: C9_14  and  O1_1 
REMARK    3  A    between atoms: C15_20  and  O3_3 
REMARK    4  A    between atoms: C16_21  and  O3_3 
REMARK    5  A    between atoms: C1_6  and  C6_11 
REMARK    6  A    between atoms: C15_20  and  C9_14 
ROOT
HETATM    1  O2  UNK     1      18.991  -1.175  34.311  1.00  0.00    -0.275 OA
HETATM    2  O4  UNK     1      18.881  -2.576  36.115  1.00  0.00    -0.260 OA
HETATM    3  C1  UNK     1      18.352   2.568  32.580  1.00  0.00    -0.024 A 
HETATM    4  C2  UNK     1      18.205   1.127  34.539  1.00  0.00     0.005 A 
HETATM    5  C3  UNK     1      18.902   1.527  31.834  1.00  0.00     0.079 A 
HETATM    6  C4  UNK     1      18.005   2.370  33.922  1.00  0.00     0.024 A 
HETATM    7  C5  UNK     1      18.757   0.104  33.767  1.00  0.00     0.092 A 
HETATM    8  C7  UNK     1      19.108   0.286  32.427  1.00  0.00     0.075 A 
HETATM    9  C8  UNK     1      17.866   0.847  35.939  1.00  0.00    -0.043 A 
HETATM   10  C11 UNK     1      18.098  -0.379  36.431  1.00  0.00     0.090 A 
HETATM   11  C12 UNK     1      17.271   1.927  36.796  1.00  0.00     0.049 C 
HETATM   12  C14 UNK     1      18.681  -1.468  35.630  1.00  0.00     0.288 A 
ENDROOT
BRANCH   5  13
HETATM   13  O1  UNK     1      19.242   1.708  30.528  1.00  0.00    -0.336 OA
BRANCH  13  14
HETATM   14  C9  UNK     1      18.448   1.037  29.552  1.00  0.00     0.224 C 
HETATM   15  C13 UNK     1      17.765   2.088  28.695  1.00  0.00     0.051 C 
BRANCH  14  16
HETATM   16  C15 UNK     1      19.350   0.147  28.722  1.00  0.00     0.288 C 
HETATM   17  O5  UNK     1      19.075  -0.273  27.605  1.00  0.00    -0.262 OA
BRANCH  16  18
HETATM   18  O3  UNK     1      20.514  -0.087  29.398  1.00  0.00    -0.320 OA
BRANCH  18  19
HETATM   19  C16 UNK     1      21.021  -1.422  29.312  1.00  0.00     0.174 C 
HETATM   20  C17 UNK     1      20.408  -2.255  30.416  1.00  0.00     0.034 C 
ENDBRANCH  18  19
ENDBRANCH  16  18
ENDBRANCH  14  16
ENDBRANCH  13  14
ENDBRANCH   5  13
BRANCH   3  21
HETATM   21  C6  UNK     1      18.122   3.907  31.962  1.00  0.00     0.037 C 
HETATM   22  C10 UNK     1      18.048   5.021  33.002  1.00  0.00     0.010 C 
ENDBRANCH   3  21
TORSDOF 6
ENDMDL
MODEL 9
REMARK VINA RESULT:      -6.9      2.456      7.278
REMARK  6 active torsions:
REMARK  status: ('A' for Active; 'I' for Inactive)
REMARK    1  A    between atoms: C3_8  and  O1_1 
REMARK    2  A    between atoms: C9_14  and  O1_1 
REMARK    3  A    between atoms: C15_20  and  O3_3 
REMARK    4  A    between atoms: C16_21  and  O3_3 
REMARK    5  A    between atoms: C1_6  and  C6_11 
REMARK    6  A    between atoms: C15_20  and  C9_14 
ROOT
HETATM    1  O2  UNK     1      18.514   1.320  31.245  1.00  0.00    -0.275 OA
HETATM    2  O4  UNK     1      18.577   2.524  29.302  1.00  0.00    -0.260 OA
HETATM    3  C1  UNK     1      18.205   1.155  35.403  1.00  0.00    -0.024 A 
HETATM    4  C2  UNK     1      18.269   2.498  33.372  1.00  0.00     0.005 A 
HETATM    5  C3  UNK     1      18.344  -0.013  34.656  1.00  0.00     0.079 A 
HETATM    6  C4  UNK     1      18.168   2.402  34.767  1.00  0.00     0.024 A 
HETATM    7  C5  UNK     1      18.407   1.311  32.650  1.00  0.00     0.092 A 
HETATM    8  C7  UNK     1      18.445   0.060  33.271  1.00  0.00     0.075 A 
HETATM    9  C8  UNK     1      18.238   3.768  32.636  1.00  0.00    -0.043 A 
HETATM   10  C11 UNK     1      18.342   3.748  31.299  1.00  0.00     0.090 A 
HETATM   11  C12 UNK     1      18.090   5.062  33.383  1.00  0.00     0.049 C 
HETATM   12  C14 UNK     1      18.487   2.505  30.525  1.00  0.00     0.288 A 
ENDROOT
BRANCH   5  13
HETATM   13  O1  UNK     1      18.382  -1.230  35.265  1.00  0.00    -0.336 OA
BRANCH  13  14
HETATM   14  C9  UNK     1      19.644  -1.668  35.763  1.00  0.00     0.224 C 
HETATM   15  C13 UNK     1      19.419  -2.313  37.119  1.00  0.00     0.051 C 
BRANCH  14  16
HETATM   16  C15 UNK     1      20.241  -2.650  34.775  1.00  0.00     0.288 C 
HETATM   17  O5  UNK     1      20.286  -3.862  34.942  1.00  0.00    -0.262 OA
BRANCH  16  18
HETATM   18  O3  UNK     1      20.690  -1.978  33.673  1.00  0.00    -0.320 OA
BRANCH  18  19
HETATM   19  C16 UNK     1      20.983  -2.790  32.532  1.00  0.00     0.174 C 
HETATM   20  C17 UNK     1      20.603  -2.034  31.278  1.00  0.00     0.034 C 
ENDBRANCH  18  19
ENDBRANCH  16  18
ENDBRANCH  14  16
ENDBRANCH  13  14
ENDBRANCH   5  13
BRANCH   3  21
HETATM   21  C6  UNK     1      18.095   1.097  36.891  1.00  0.00     0.037 C 
HETATM   22  C10 UNK     1      16.649   1.189  37.369  1.00  0.00     0.010 C 
ENDBRANCH   3  21
TORSDOF 6
ENDMDL
MODEL 10
REMARK VINA RESULT:      -6.9      2.920      7.693
REMARK  6 active torsions:
REMARK  status: ('A' for Active; 'I' for Inactive)
REMARK    1  A    between atoms: C3_8  and  O1_1 
REMARK    2  A    between atoms: C9_14  and  O1_1 
REMARK    3  A    between atoms: C15_20  and  O3_3 
REMARK    4  A    between atoms: C16_21  and  O3_3 
REMARK    5  A    between atoms: C1_6  and  C6_11 
REMARK    6  A    between atoms: C15_20  and  C9_14 
ROOT
HETATM    1  O2  UNK     1      18.880   0.358  31.081  1.00  0.00    -0.275 OA
HETATM    2  O4  UNK     1      19.203   1.216  28.986  1.00  0.00    -0.260 OA
HETATM    3  C1  UNK     1      17.977   0.889  35.120  1.00  0.00    -0.024 A 
HETATM    4  C2  UNK     1      18.311   1.868  32.915  1.00  0.00     0.005 A 
HETATM    5  C3  UNK     1      18.242  -0.383  34.615  1.00  0.00     0.079 A 
HETATM    6  C4  UNK     1      18.012   2.006  34.278  1.00  0.00     0.024 A 
HETATM    7  C5  UNK     1      18.572   0.583  32.438  1.00  0.00     0.092 A 
HETATM    8  C7  UNK     1      18.541  -0.541  33.266  1.00  0.00     0.075 A 
HETATM    9  C8  UNK     1      18.365   2.993  31.973  1.00  0.00    -0.043 A 
HETATM   10  C11 UNK     1      18.661   2.750  30.688  1.00  0.00     0.090 A 
HETATM   11  C12 UNK     1      18.088   4.387  32.456  1.00  0.00     0.049 C 
HETATM   12  C14 UNK     1      18.938   1.401  30.169  1.00  0.00     0.288 A 
ENDROOT
BRANCH   5  13
HETATM   13  O1  UNK     1      18.213  -1.476  35.425  1.00  0.00    -0.336 OA
BRANCH  13  14
HETATM   14  C9  UNK     1      19.398  -1.772  36.161  1.00  0.00     0.224 C 
HETATM   15  C13 UNK     1      19.006  -2.030  37.605  1.00  0.00     0.051 C 
BRANCH  14  16
HETATM   16  C15 UNK     1      20.063  -2.984  35.542  1.00  0.00     0.288 C 
HETATM   17  O5  UNK     1      20.580  -3.002  34.432  1.00  0.00    -0.262 OA
BRANCH  16  18
HETATM   18  O3  UNK     1      20.019  -4.031  36.419  1.00  0.00    -0.320 OA
BRANCH  18  19
HETATM   19  C16 UNK     1      19.820  -5.321  35.832  1.00  0.00     0.174 C 
HETATM   20  C17 UNK     1      18.789  -6.078  36.640  1.00  0.00     0.034 C 
ENDBRANCH  18  19
ENDBRANCH  16  18
ENDBRANCH  14  16
ENDBRANCH  13  14
ENDBRANCH   5  13
BRANCH   3  21
HETATM   21  C6  UNK     1      17.655   1.079  36.565  1.00  0.00     0.037 C 
HETATM   22  C10 UNK     1      16.179   0.836  36.867  1.00  0.00     0.010 C 
ENDBRANCH   3  21
TORSDOF 6
ENDMDL
