MODEL 1
REMARK VINA RESULT:      -8.8      0.000      0.000
REMARK  3 active torsions:
REMARK  status: ('A' for Active; 'I' for Inactive)
REMARK    1  A    between atoms: C2_8  and  N1_6 
REMARK       I    between atoms: C7_13  and  N1_6 
REMARK    2  A    between atoms: C2_8  and  C6_12 
REMARK    3  A    between atoms: C3_9  and  C7_13 
ROOT
HETATM    1 Br1  UNK     1      20.112  -3.105  35.524  1.00  0.00    -0.051 Br
HETATM    2  O1  UNK     1      20.133  -0.808  29.908  1.00  0.00    -0.274 OA
HETATM    3  O3  UNK     1      19.601   0.866  28.448  1.00  0.00    -0.259 OA
HETATM    4  C1  UNK     1      19.535  -0.589  32.255  1.00  0.00     0.000 A 
HETATM    5  C3  UNK     1      18.969   1.189  30.709  1.00  0.00     0.108 A 
HETATM    6  C4  UNK     1      20.114  -1.319  31.221  1.00  0.00     0.089 A 
HETATM    7  C5  UNK     1      18.948   0.708  31.958  1.00  0.00     0.037 A 
HETATM    8  C8  UNK     1      19.536  -1.129  33.544  1.00  0.00     0.033 A 
HETATM    9  C9  UNK     1      19.579   0.429  29.594  1.00  0.00     0.304 A 
HETATM   10  C10 UNK     1      20.693  -2.567  31.439  1.00  0.00     0.039 A 
HETATM   11  C13 UNK     1      20.113  -2.381  33.777  1.00  0.00     0.011 A 
HETATM   12  C14 UNK     1      20.690  -3.097  32.728  1.00  0.00     0.022 A 
ENDROOT
BRANCH   5  13
HETATM   13  C7  UNK     1      18.353   2.505  30.509  1.00  0.00     0.258 C 
HETATM   14  O2  UNK     1      17.145   2.668  30.675  1.00  0.00    -0.267 OA
HETATM   15  N1  UNK     1      19.264   3.475  30.131  1.00  0.00    -0.352 N 
HETATM   16  H4  UNK     1      20.242   3.236  30.005  1.00  0.00     0.163 HD
BRANCH  15  17
HETATM   17  C2  UNK     1      18.892   4.848  29.875  1.00  0.00     0.161 C 
BRANCH  17  18
HETATM   18  C6  UNK     1      19.065   5.713  31.090  1.00  0.00    -0.040 A 
HETATM   19  C11 UNK     1      17.983   6.434  31.579  1.00  0.00     0.010 A 
HETATM   20  C15 UNK     1      18.143   7.240  32.707  1.00  0.00     0.024 A 
HETATM   21  C17 UNK     1      19.385   7.317  33.338  1.00  0.00     0.034 A 
HETATM   22  C16 UNK     1      20.466   6.588  32.841  1.00  0.00     0.024 A 
HETATM   23 Cl1  UNK     1      19.582   8.310  34.729  1.00  0.00    -0.084 Cl
HETATM   24  C12 UNK     1      20.306   5.784  31.713  1.00  0.00     0.010 A 
ENDBRANCH  17  18
ENDBRANCH  15  17
ENDBRANCH   5  13
TORSDOF 3
ENDMDL
MODEL 2
REMARK VINA RESULT:      -8.7      6.039      9.689
REMARK  3 active torsions:
REMARK  status: ('A' for Active; 'I' for Inactive)
REMARK    1  A    between atoms: C2_8  and  N1_6 
REMARK       I    between atoms: C7_13  and  N1_6 
REMARK    2  A    between atoms: C2_8  and  C6_12 
REMARK    3  A    between atoms: C3_9  and  C7_13 
ROOT
HETATM    1 Br1  UNK     1      18.261   2.360  28.975  1.00  0.00    -0.051 Br
HETATM    2  O1  UNK     1      20.837  -2.797  30.867  1.00  0.00    -0.274 OA
HETATM    3  O3  UNK     1      21.425  -4.218  32.557  1.00  0.00    -0.259 OA
HETATM    4  C1  UNK     1      19.671  -0.728  31.389  1.00  0.00     0.000 A 
HETATM    5  C3  UNK     1      20.293  -2.232  33.184  1.00  0.00     0.108 A 
HETATM    6  C4  UNK     1      20.233  -1.594  30.455  1.00  0.00     0.089 A 
HETATM    7  C5  UNK     1      19.719  -1.087  32.797  1.00  0.00     0.037 A 
HETATM    8  C8  UNK     1      19.081   0.457  30.941  1.00  0.00     0.033 A 
HETATM    9  C9  UNK     1      20.898  -3.167  32.207  1.00  0.00     0.304 A 
HETATM   10  C10 UNK     1      20.221  -1.309  29.091  1.00  0.00     0.039 A 
HETATM   11  C13 UNK     1      19.062   0.756  29.575  1.00  0.00     0.011 A 
HETATM   12  C14 UNK     1      19.630  -0.126  28.653  1.00  0.00     0.022 A 
ENDROOT
BRANCH   5  13
HETATM   13  C7  UNK     1      20.292  -2.505  34.625  1.00  0.00     0.258 C 
HETATM   14  O2  UNK     1      20.609  -1.634  35.433  1.00  0.00    -0.267 OA
HETATM   15  N1  UNK     1      19.908  -3.800  34.927  1.00  0.00    -0.352 N 
HETATM   16  H4  UNK     1      19.680  -4.452  34.184  1.00  0.00     0.163 HD
BRANCH  15  17
HETATM   17  C2  UNK     1      19.832  -4.303  36.280  1.00  0.00     0.161 C 
BRANCH  17  18
HETATM   18  C6  UNK     1      20.009  -5.793  36.337  1.00  0.00    -0.040 A 
HETATM   19  C11 UNK     1      20.178  -6.510  35.158  1.00  0.00     0.010 A 
HETATM   20  C15 UNK     1      20.340  -7.894  35.210  1.00  0.00     0.024 A 
HETATM   21  C17 UNK     1      20.333  -8.552  36.440  1.00  0.00     0.034 A 
HETATM   22  C16 UNK     1      20.164  -7.824  37.619  1.00  0.00     0.024 A 
HETATM   23 Cl1  UNK     1      20.533 -10.259  36.504  1.00  0.00    -0.084 Cl
HETATM   24  C12 UNK     1      20.000  -6.440  37.567  1.00  0.00     0.010 A 
ENDBRANCH  17  18
ENDBRANCH  15  17
ENDBRANCH   5  13
TORSDOF 3
ENDMDL
MODEL 3
REMARK VINA RESULT:      -8.7      0.819      1.181
REMARK  3 active torsions:
REMARK  status: ('A' for Active; 'I' for Inactive)
REMARK    1  A    between atoms: C2_8  and  N1_6 
REMARK       I    between atoms: C7_13  and  N1_6 
REMARK    2  A    between atoms: C2_8  and  C6_12 
REMARK    3  A    between atoms: C3_9  and  C7_13 
ROOT
HETATM    1 Br1  UNK     1      20.087  -3.063  35.712  1.00  0.00    -0.051 Br
HETATM    2  O1  UNK     1      20.369  -1.476  29.863  1.00  0.00    -0.274 OA
HETATM    3  O3  UNK     1      19.905   0.002  28.183  1.00  0.00    -0.259 OA
HETATM    4  C1  UNK     1      19.661  -0.973  32.134  1.00  0.00     0.000 A 
HETATM    5  C3  UNK     1      19.167   0.596  30.355  1.00  0.00     0.108 A 
HETATM    6  C4  UNK     1      20.290  -1.821  31.226  1.00  0.00     0.089 A 
HETATM    7  C5  UNK     1      19.088   0.274  31.652  1.00  0.00     0.037 A 
HETATM    8  C8  UNK     1      19.602  -1.350  33.478  1.00  0.00     0.033 A 
HETATM    9  C9  UNK     1      19.830  -0.290  29.372  1.00  0.00     0.304 A 
HETATM   10  C10 UNK     1      20.859  -3.029  31.623  1.00  0.00     0.039 A 
HETATM   11  C13 UNK     1      20.169  -2.560  33.891  1.00  0.00     0.011 A 
HETATM   12  C14 UNK     1      20.796  -3.396  32.966  1.00  0.00     0.022 A 
ENDROOT
BRANCH   5  13
HETATM   13  C7  UNK     1      18.560   1.874  29.966  1.00  0.00     0.258 C 
HETATM   14  O2  UNK     1      17.485   1.905  29.368  1.00  0.00    -0.267 OA
HETATM   15  N1  UNK     1      19.318   2.968  30.343  1.00  0.00    -0.352 N 
HETATM   16  H4  UNK     1      20.203   2.836  30.821  1.00  0.00     0.163 HD
BRANCH  15  17
HETATM   17  C2  UNK     1      18.925   4.331  30.067  1.00  0.00     0.161 C 
BRANCH  17  18
HETATM   18  C6  UNK     1      18.888   5.168  31.312  1.00  0.00    -0.040 A 
HETATM   19  C11 UNK     1      19.924   6.057  31.574  1.00  0.00     0.010 A 
HETATM   20  C15 UNK     1      19.890   6.834  32.732  1.00  0.00     0.024 A 
HETATM   21  C17 UNK     1      18.820   6.718  33.619  1.00  0.00     0.034 A 
HETATM   22  C16 UNK     1      17.783   5.824  33.348  1.00  0.00     0.024 A 
HETATM   23 Cl1  UNK     1      18.778   7.676  35.047  1.00  0.00    -0.084 Cl
HETATM   24  C12 UNK     1      17.818   5.046  32.191  1.00  0.00     0.010 A 
ENDBRANCH  17  18
ENDBRANCH  15  17
ENDBRANCH   5  13
TORSDOF 3
ENDMDL
MODEL 4
REMARK VINA RESULT:      -8.4      1.245      1.592
REMARK  3 active torsions:
REMARK  status: ('A' for Active; 'I' for Inactive)
REMARK    1  A    between atoms: C2_8  and  N1_6 
REMARK       I    between atoms: C7_13  and  N1_6 
REMARK    2  A    between atoms: C2_8  and  C6_12 
REMARK    3  A    between atoms: C3_9  and  C7_13 
ROOT
HETATM    1 Br1  UNK     1      21.294  -3.066  33.007  1.00  0.00    -0.051 Br
HETATM    2  O1  UNK     1      19.011   0.381  28.568  1.00  0.00    -0.274 OA
HETATM    3  O3  UNK     1      18.099   2.351  27.854  1.00  0.00    -0.259 OA
HETATM    4  C1  UNK     1      19.617   0.116  30.907  1.00  0.00     0.000 A 
HETATM    5  C3  UNK     1      18.650   2.207  30.155  1.00  0.00     0.108 A 
HETATM    6  C4  UNK     1      19.536  -0.398  29.616  1.00  0.00     0.089 A 
HETATM    7  C5  UNK     1      19.148   1.470  31.155  1.00  0.00     0.037 A 
HETATM    8  C8  UNK     1      20.144  -0.688  31.921  1.00  0.00     0.033 A 
HETATM    9  C9  UNK     1      18.555   1.680  28.774  1.00  0.00     0.304 A 
HETATM   10  C10 UNK     1      19.968  -1.688  29.312  1.00  0.00     0.039 A 
HETATM   11  C13 UNK     1      20.580  -1.984  31.631  1.00  0.00     0.011 A 
HETATM   12  C14 UNK     1      20.493  -2.482  30.329  1.00  0.00     0.022 A 
ENDROOT
BRANCH   5  13
HETATM   13  C7  UNK     1      18.204   3.560  30.505  1.00  0.00     0.258 C 
HETATM   14  O2  UNK     1      17.346   3.738  31.368  1.00  0.00    -0.267 OA
HETATM   15  N1  UNK     1      18.844   4.544  29.772  1.00  0.00    -0.352 N 
HETATM   16  H4  UNK     1      19.530   4.292  29.067  1.00  0.00     0.163 HD
BRANCH  15  17
HETATM   17  C2  UNK     1      18.569   5.953  29.938  1.00  0.00     0.161 C 
BRANCH  17  18
HETATM   18  C6  UNK     1      18.831   6.415  31.342  1.00  0.00    -0.040 A 
HETATM   19  C11 UNK     1      17.818   7.040  32.060  1.00  0.00     0.010 A 
HETATM   20  C15 UNK     1      18.061   7.471  33.365  1.00  0.00     0.024 A 
HETATM   21  C17 UNK     1      19.315   7.272  33.942  1.00  0.00     0.034 A 
HETATM   22  C16 UNK     1      20.326   6.642  33.215  1.00  0.00     0.024 A 
HETATM   23 Cl1  UNK     1      19.615   7.803  35.551  1.00  0.00    -0.084 Cl
HETATM   24  C12 UNK     1      20.083   6.213  31.911  1.00  0.00     0.010 A 
ENDBRANCH  17  18
ENDBRANCH  15  17
ENDBRANCH   5  13
TORSDOF 3
ENDMDL
MODEL 5
REMARK VINA RESULT:      -8.2      1.337      1.907
REMARK  3 active torsions:
REMARK  status: ('A' for Active; 'I' for Inactive)
REMARK    1  A    between atoms: C2_8  and  N1_6 
REMARK       I    between atoms: C7_13  and  N1_6 
REMARK    2  A    between atoms: C2_8  and  C6_12 
REMARK    3  A    between atoms: C3_9  and  C7_13 
ROOT
HETATM    1 Br1  UNK     1      18.217  -1.588  37.473  1.00  0.00    -0.051 Br
HETATM    2  O1  UNK     1      19.844  -0.683  31.699  1.00  0.00    -0.274 OA
HETATM    3  O3  UNK     1      19.848   0.615  29.819  1.00  0.00    -0.259 OA
HETATM    4  C1  UNK     1      18.704   0.103  33.697  1.00  0.00     0.000 A 
HETATM    5  C3  UNK     1      18.706   1.482  31.706  1.00  0.00     0.108 A 
HETATM    6  C4  UNK     1      19.453  -0.868  33.039  1.00  0.00     0.089 A 
HETATM    7  C5  UNK     1      18.332   1.311  32.979  1.00  0.00     0.037 A 
HETATM    8  C8  UNK     1      18.335  -0.118  35.027  1.00  0.00     0.033 A 
HETATM    9  C9  UNK     1      19.502   0.462  30.985  1.00  0.00     0.304 A 
HETATM   10  C10 UNK     1      19.842  -2.048  33.670  1.00  0.00     0.039 A 
HETATM   11  C13 UNK     1      18.718  -1.297  35.673  1.00  0.00     0.011 A 
HETATM   12  C14 UNK     1      19.470  -2.259  34.996  1.00  0.00     0.022 A 
ENDROOT
BRANCH   5  13
HETATM   13  C7  UNK     1      18.282   2.733  31.067  1.00  0.00     0.258 C 
HETATM   14  O2  UNK     1      17.097   2.941  30.812  1.00  0.00    -0.267 OA
HETATM   15  N1  UNK     1      19.338   3.589  30.807  1.00  0.00    -0.352 N 
HETATM   16  H4  UNK     1      20.287   3.317  31.042  1.00  0.00     0.163 HD
BRANCH  15  17
HETATM   17  C2  UNK     1      19.168   4.881  30.181  1.00  0.00     0.161 C 
BRANCH  17  18
HETATM   18  C6  UNK     1      18.852   5.954  31.182  1.00  0.00    -0.040 A 
HETATM   19  C11 UNK     1      19.750   6.220  32.209  1.00  0.00     0.010 A 
HETATM   20  C15 UNK     1      19.457   7.217  33.141  1.00  0.00     0.024 A 
HETATM   21  C17 UNK     1      18.269   7.940  33.037  1.00  0.00     0.034 A 
HETATM   22  C16 UNK     1      17.374   7.667  32.002  1.00  0.00     0.024 A 
HETATM   23 Cl1  UNK     1      17.907   9.169  34.186  1.00  0.00    -0.084 Cl
HETATM   24  C12 UNK     1      17.667   6.670  31.072  1.00  0.00     0.010 A 
ENDBRANCH  17  18
ENDBRANCH  15  17
ENDBRANCH   5  13
TORSDOF 3
ENDMDL
MODEL 6
REMARK VINA RESULT:      -8.2      6.575      9.304
REMARK  3 active torsions:
REMARK  status: ('A' for Active; 'I' for Inactive)
REMARK    1  A    between atoms: C2_8  and  N1_6 
REMARK       I    between atoms: C7_13  and  N1_6 
REMARK    2  A    between atoms: C2_8  and  C6_12 
REMARK    3  A    between atoms: C3_9  and  C7_13 
ROOT
HETATM    1 Br1  UNK     1      23.767 -11.377  36.048  1.00  0.00    -0.051 Br
HETATM    2  O1  UNK     1      18.710  -8.125  36.864  1.00  0.00    -0.274 OA
HETATM    3  O3  UNK     1      17.665  -6.107  37.098  1.00  0.00    -0.259 OA
HETATM    4  C1  UNK     1      21.120  -8.200  36.547  1.00  0.00     0.000 A 
HETATM    5  C3  UNK     1      20.015  -6.058  36.795  1.00  0.00     0.108 A 
HETATM    6  C4  UNK     1      19.899  -8.856  36.674  1.00  0.00     0.089 A 
HETATM    7  C5  UNK     1      21.148  -6.747  36.615  1.00  0.00     0.037 A 
HETATM    8  C8  UNK     1      22.277  -8.960  36.360  1.00  0.00     0.033 A 
HETATM    9  C9  UNK     1      18.705  -6.735  36.933  1.00  0.00     0.304 A 
HETATM   10  C10 UNK     1      19.803 -10.245  36.619  1.00  0.00     0.039 A 
HETATM   11  C13 UNK     1      22.197 -10.354  36.303  1.00  0.00     0.011 A 
HETATM   12  C14 UNK     1      20.963 -10.995  36.431  1.00  0.00     0.022 A 
ENDROOT
BRANCH   5  13
HETATM   13  C7  UNK     1      20.146  -4.597  36.849  1.00  0.00     0.258 C 
HETATM   14  O2  UNK     1      20.754  -4.052  37.769  1.00  0.00    -0.267 OA
HETATM   15  N1  UNK     1      19.526  -3.961  35.788  1.00  0.00    -0.352 N 
HETATM   16  H4  UNK     1      19.034  -4.502  35.085  1.00  0.00     0.163 HD
BRANCH  15  17
HETATM   17  C2  UNK     1      19.519  -2.525  35.627  1.00  0.00     0.161 C 
BRANCH  17  18
HETATM   18  C6  UNK     1      19.681  -2.120  34.191  1.00  0.00    -0.040 A 
HETATM   19  C11 UNK     1      18.804  -1.196  33.635  1.00  0.00     0.010 A 
HETATM   20  C15 UNK     1      18.953  -0.819  32.300  1.00  0.00     0.024 A 
HETATM   21  C17 UNK     1      19.979  -1.369  31.531  1.00  0.00     0.034 A 
HETATM   22  C16 UNK     1      20.856  -2.295  32.098  1.00  0.00     0.024 A 
HETATM   23 Cl1  UNK     1      20.163  -0.905  29.885  1.00  0.00    -0.084 Cl
HETATM   24  C12 UNK     1      20.706  -2.672  33.432  1.00  0.00     0.010 A 
ENDBRANCH  17  18
ENDBRANCH  15  17
ENDBRANCH   5  13
TORSDOF 3
ENDMDL
MODEL 7
REMARK VINA RESULT:      -8.1      6.304     10.409
REMARK  3 active torsions:
REMARK  status: ('A' for Active; 'I' for Inactive)
REMARK    1  A    between atoms: C2_8  and  N1_6 
REMARK       I    between atoms: C7_13  and  N1_6 
REMARK    2  A    between atoms: C2_8  and  C6_12 
REMARK    3  A    between atoms: C3_9  and  C7_13 
ROOT
HETATM    1 Br1  UNK     1      12.270  13.066  37.409  1.00  0.00    -0.051 Br
HETATM    2  O1  UNK     1      14.344  10.186  32.489  1.00  0.00    -0.274 OA
HETATM    3  O3  UNK     1      15.758   8.672  31.524  1.00  0.00    -0.259 OA
HETATM    4  C1  UNK     1      14.435  10.552  34.891  1.00  0.00     0.000 A 
HETATM    5  C3  UNK     1      15.935   8.946  33.872  1.00  0.00     0.108 A 
HETATM    6  C4  UNK     1      13.881  10.840  33.647  1.00  0.00     0.089 A 
HETATM    7  C5  UNK     1      15.500   9.565  34.975  1.00  0.00     0.037 A 
HETATM    8  C8  UNK     1      13.949  11.222  36.017  1.00  0.00     0.033 A 
HETATM    9  C9  UNK     1      15.362   9.237  32.538  1.00  0.00     0.304 A 
HETATM   10  C10 UNK     1      12.859  11.776  33.498  1.00  0.00     0.039 A 
HETATM   11  C13 UNK     1      12.924  12.163  35.882  1.00  0.00     0.011 A 
HETATM   12  C14 UNK     1      12.380  12.438  34.626  1.00  0.00     0.022 A 
ENDROOT
BRANCH   5  13
HETATM   13  C7  UNK     1      17.012   7.967  34.059  1.00  0.00     0.258 C 
HETATM   14  O2  UNK     1      16.962   7.141  34.969  1.00  0.00    -0.267 OA
HETATM   15  N1  UNK     1      18.026   8.097  33.127  1.00  0.00    -0.352 N 
HETATM   16  H4  UNK     1      17.982   8.825  32.421  1.00  0.00     0.163 HD
BRANCH  15  17
HETATM   17  C2  UNK     1      19.195   7.246  33.111  1.00  0.00     0.161 C 
BRANCH  17  18
HETATM   18  C6  UNK     1      19.030   6.084  32.176  1.00  0.00    -0.040 A 
HETATM   19  C11 UNK     1      18.406   4.925  32.623  1.00  0.00     0.010 A 
HETATM   20  C15 UNK     1      18.253   3.844  31.755  1.00  0.00     0.024 A 
HETATM   21  C17 UNK     1      18.727   3.929  30.445  1.00  0.00     0.034 A 
HETATM   22  C16 UNK     1      19.352   5.096  30.004  1.00  0.00     0.024 A 
HETATM   23 Cl1  UNK     1      18.541   2.595  29.375  1.00  0.00    -0.084 Cl
HETATM   24  C12 UNK     1      19.505   6.177  30.873  1.00  0.00     0.010 A 
ENDBRANCH  17  18
ENDBRANCH  15  17
ENDBRANCH   5  13
TORSDOF 3
ENDMDL
MODEL 8
REMARK VINA RESULT:      -8.1     23.607     25.640
REMARK  3 active torsions:
REMARK  status: ('A' for Active; 'I' for Inactive)
REMARK    1  A    between atoms: C2_8  and  N1_6 
REMARK       I    between atoms: C7_13  and  N1_6 
REMARK    2  A    between atoms: C2_8  and  C6_12 
REMARK    3  A    between atoms: C3_9  and  C7_13 
ROOT
HETATM    1 Br1  UNK     1      15.993  14.110   6.797  1.00  0.00    -0.051 Br
HETATM    2  O1  UNK     1      17.626   9.107   9.815  1.00  0.00    -0.274 OA
HETATM    3  O3  UNK     1      17.125   7.038  10.646  1.00  0.00    -0.259 OA
HETATM    4  C1  UNK     1      15.928  10.358   8.605  1.00  0.00     0.000 A 
HETATM    5  C3  UNK     1      15.393   8.165   9.485  1.00  0.00     0.108 A 
HETATM    6  C4  UNK     1      17.221  10.257   9.111  1.00  0.00     0.089 A 
HETATM    7  C5  UNK     1      15.003   9.256   8.815  1.00  0.00     0.037 A 
HETATM    8  C8  UNK     1      15.564  11.515   7.912  1.00  0.00     0.033 A 
HETATM    9  C9  UNK     1      16.763   8.037  10.033  1.00  0.00     0.304 A 
HETATM   10  C10 UNK     1      18.156  11.277   8.944  1.00  0.00     0.039 A 
HETATM   11  C13 UNK     1      16.491  12.547   7.737  1.00  0.00     0.011 A 
HETATM   12  C14 UNK     1      17.784  12.427   8.251  1.00  0.00     0.022 A 
ENDROOT
BRANCH   5  13
HETATM   13  C7  UNK     1      14.388   7.108   9.645  1.00  0.00     0.258 C 
HETATM   14  O2  UNK     1      13.709   7.033  10.668  1.00  0.00    -0.267 OA
HETATM   15  N1  UNK     1      14.319   6.261   8.554  1.00  0.00    -0.352 N 
HETATM   16  H4  UNK     1      14.936   6.397   7.760  1.00  0.00     0.163 HD
BRANCH  15  17
HETATM   17  C2  UNK     1      13.405   5.143   8.482  1.00  0.00     0.161 C 
BRANCH  17  18
HETATM   18  C6  UNK     1      12.038   5.563   8.027  1.00  0.00    -0.040 A 
HETATM   19  C11 UNK     1      11.841   5.951   6.707  1.00  0.00     0.010 A 
HETATM   20  C15 UNK     1      10.571   6.343   6.283  1.00  0.00     0.024 A 
HETATM   21  C17 UNK     1       9.506   6.344   7.184  1.00  0.00     0.034 A 
HETATM   22  C16 UNK     1       9.711   5.952   8.508  1.00  0.00     0.024 A 
HETATM   23 Cl1  UNK     1       7.939   6.828   6.663  1.00  0.00    -0.084 Cl
HETATM   24  C12 UNK     1      10.982   5.562   8.931  1.00  0.00     0.010 A 
ENDBRANCH  17  18
ENDBRANCH  15  17
ENDBRANCH   5  13
TORSDOF 3
ENDMDL
MODEL 9
REMARK VINA RESULT:      -8.0      6.709     10.895
REMARK  3 active torsions:
REMARK  status: ('A' for Active; 'I' for Inactive)
REMARK    1  A    between atoms: C2_8  and  N1_6 
REMARK       I    between atoms: C7_13  and  N1_6 
REMARK    2  A    between atoms: C2_8  and  C6_12 
REMARK    3  A    between atoms: C3_9  and  C7_13 
ROOT
HETATM    1 Br1  UNK     1      20.513  -1.178  29.732  1.00  0.00    -0.051 Br
HETATM    2  O1  UNK     1      18.522  -1.102  35.463  1.00  0.00    -0.274 OA
HETATM    3  O3  UNK     1      18.498  -1.992  37.567  1.00  0.00    -0.259 OA
HETATM    4  C1  UNK     1      19.894  -2.131  33.740  1.00  0.00     0.000 A 
HETATM    5  C3  UNK     1      19.870  -3.079  35.970  1.00  0.00     0.108 A 
HETATM    6  C4  UNK     1      19.000  -1.142  34.139  1.00  0.00     0.089 A 
HETATM    7  C5  UNK     1      20.327  -3.122  34.712  1.00  0.00     0.037 A 
HETATM    8  C8  UNK     1      20.345  -2.139  32.417  1.00  0.00     0.033 A 
HETATM    9  C9  UNK     1      18.918  -2.036  36.416  1.00  0.00     0.304 A 
HETATM   10  C10 UNK     1      18.547  -0.164  33.256  1.00  0.00     0.039 A 
HETATM   11  C13 UNK     1      19.898  -1.164  31.520  1.00  0.00     0.011 A 
HETATM   12  C14 UNK     1      19.002  -0.178  31.940  1.00  0.00     0.022 A 
ENDROOT
BRANCH   5  13
HETATM   13  C7  UNK     1      20.365  -4.121  36.876  1.00  0.00     0.258 C 
HETATM   14  O2  UNK     1      21.509  -4.076  37.325  1.00  0.00    -0.267 OA
HETATM   15  N1  UNK     1      19.422  -5.100  37.136  1.00  0.00    -0.352 N 
HETATM   16  H4  UNK     1      18.506  -5.055  36.702  1.00  0.00     0.163 HD
BRANCH  15  17
HETATM   17  C2  UNK     1      19.678  -6.230  37.999  1.00  0.00     0.161 C 
BRANCH  17  18
HETATM   18  C6  UNK     1      20.213  -7.408  37.239  1.00  0.00    -0.040 A 
HETATM   19  C11 UNK     1      20.513  -7.276  35.888  1.00  0.00     0.010 A 
HETATM   20  C15 UNK     1      21.009  -8.370  35.180  1.00  0.00     0.024 A 
HETATM   21  C17 UNK     1      21.203  -9.591  35.828  1.00  0.00     0.034 A 
HETATM   22  C16 UNK     1      20.901  -9.715  37.185  1.00  0.00     0.024 A 
HETATM   23 Cl1  UNK     1      21.814 -10.941  34.955  1.00  0.00    -0.084 Cl
HETATM   24  C12 UNK     1      20.404  -8.620  37.892  1.00  0.00     0.010 A 
ENDBRANCH  17  18
ENDBRANCH  15  17
ENDBRANCH   5  13
TORSDOF 3
ENDMDL
MODEL 10
REMARK VINA RESULT:      -7.9      2.088      2.635
REMARK  3 active torsions:
REMARK  status: ('A' for Active; 'I' for Inactive)
REMARK    1  A    between atoms: C2_8  and  N1_6 
REMARK       I    between atoms: C7_13  and  N1_6 
REMARK    2  A    between atoms: C2_8  and  C6_12 
REMARK    3  A    between atoms: C3_9  and  C7_13 
ROOT
HETATM    1 Br1  UNK     1      17.902  -0.517  37.792  1.00  0.00    -0.051 Br
HETATM    2  O1  UNK     1      18.838   0.206  31.841  1.00  0.00    -0.274 OA
HETATM    3  O3  UNK     1      18.934   1.550  29.997  1.00  0.00    -0.259 OA
HETATM    4  C1  UNK     1      18.284   1.171  34.003  1.00  0.00     0.000 A 
HETATM    5  C3  UNK     1      18.383   2.600  32.049  1.00  0.00     0.108 A 
HETATM    6  C4  UNK     1      18.616   0.065  33.225  1.00  0.00     0.089 A 
HETATM    7  C5  UNK     1      18.170   2.472  33.364  1.00  0.00     0.037 A 
HETATM    8  C8  UNK     1      18.070   0.991  35.372  1.00  0.00     0.033 A 
HETATM    9  C9  UNK     1      18.737   1.438  31.202  1.00  0.00     0.304 A 
HETATM   10  C10 UNK     1      18.740  -1.208  33.775  1.00  0.00     0.039 A 
HETATM   11  C13 UNK     1      18.191  -0.281  35.938  1.00  0.00     0.011 A 
HETATM   12  C14 UNK     1      18.527  -1.378  35.142  1.00  0.00     0.022 A 
ENDROOT
BRANCH   5  13
HETATM   13  C7  UNK     1      18.245   3.952  31.497  1.00  0.00     0.258 C 
HETATM   14  O2  UNK     1      18.794   4.262  30.441  1.00  0.00    -0.267 OA
HETATM   15  N1  UNK     1      17.461   4.777  32.284  1.00  0.00    -0.352 N 
HETATM   16  H4  UNK     1      17.064   4.430  33.151  1.00  0.00     0.163 HD
BRANCH  15  17
HETATM   17  C2  UNK     1      17.183   6.155  31.947  1.00  0.00     0.161 C 
BRANCH  17  18
HETATM   18  C6  UNK     1      18.079   7.106  32.685  1.00  0.00    -0.040 A 
HETATM   19  C11 UNK     1      17.585   8.341  33.091  1.00  0.00     0.010 A 
HETATM   20  C15 UNK     1      18.417   9.226  33.776  1.00  0.00     0.024 A 
HETATM   21  C17 UNK     1      19.738   8.870  34.052  1.00  0.00     0.034 A 
HETATM   22  C16 UNK     1      20.225   7.629  33.642  1.00  0.00     0.024 A 
HETATM   23 Cl1  UNK     1      20.764   9.962  34.896  1.00  0.00    -0.084 Cl
HETATM   24  C12 UNK     1      19.393   6.744  32.956  1.00  0.00     0.010 A 
ENDBRANCH  17  18
ENDBRANCH  15  17
ENDBRANCH   5  13
TORSDOF 3
ENDMDL
