MODEL 1
REMARK VINA RESULT:      -8.1      0.000      0.000
REMARK  3 active torsions:
REMARK  status: ('A' for Active; 'I' for Inactive)
REMARK    1  A    between atoms: C7_10  and  N1_3 
REMARK    2  A    between atoms: C1_4  and  C3_6 
REMARK    3  A    between atoms: C2_5  and  C6_9 
ROOT
HETATM    1  C1  UNK     1      18.703   4.228  30.750  1.00  0.00    -0.036 A 
HETATM    2  C4  UNK     1      18.971   5.323  29.945  1.00  0.00     0.014 A 
HETATM    3  C5  UNK     1      17.926   4.344  31.891  1.00  0.00     0.014 A 
HETATM    4  C7  UNK     1      17.663   6.703  31.436  1.00  0.00     0.102 A 
HETATM    5  C8  UNK     1      18.447   6.568  30.290  1.00  0.00     0.037 A 
HETATM    6  C9  UNK     1      17.402   5.590  32.236  1.00  0.00     0.037 A 
ENDROOT
BRANCH   1   7
HETATM    7  C3  UNK     1      19.255   2.912  30.384  1.00  0.00     0.012 C 
HETATM    8  C6  UNK     1      18.951   1.742  30.994  1.00  0.00     0.012 C 
BRANCH   8   9
HETATM    9  C2  UNK     1      19.481   0.438  30.621  1.00  0.00    -0.036 A 
HETATM   10  C10 UNK     1      19.998   0.236  29.341  1.00  0.00     0.011 A 
HETATM   11  C12 UNK     1      20.504  -1.012  28.983  1.00  0.00     0.001 A 
HETATM   12  C14 UNK     1      20.494  -2.060  29.905  1.00  0.00     0.000 A 
HETATM   13  C13 UNK     1      19.978  -1.857  31.185  1.00  0.00     0.001 A 
HETATM   14  C11 UNK     1      19.471  -0.608  31.543  1.00  0.00     0.011 A 
ENDBRANCH   8   9
ENDBRANCH   1   7
BRANCH   4  15
HETATM   15  N1  UNK     1      17.130   7.970  31.787  1.00  0.00    -0.116 N 
HETATM   16  O1  UNK     1      17.600   8.574  32.782  1.00  0.00    -0.532 OA
HETATM   17  O2  UNK     1      16.202   8.454  31.094  1.00  0.00    -0.532 OA
ENDBRANCH   4  15
TORSDOF 3
ENDMDL
MODEL 2
REMARK VINA RESULT:      -8.1      0.012      1.820
REMARK  3 active torsions:
REMARK  status: ('A' for Active; 'I' for Inactive)
REMARK    1  A    between atoms: C7_10  and  N1_3 
REMARK    2  A    between atoms: C1_4  and  C3_6 
REMARK    3  A    between atoms: C2_5  and  C6_9 
ROOT
HETATM    1  C1  UNK     1      18.699   4.232  30.751  1.00  0.00    -0.036 A 
HETATM    2  C4  UNK     1      17.918   4.347  31.889  1.00  0.00     0.014 A 
HETATM    3  C5  UNK     1      18.969   5.328  29.947  1.00  0.00     0.014 A 
HETATM    4  C7  UNK     1      17.655   6.705  31.436  1.00  0.00     0.102 A 
HETATM    5  C8  UNK     1      17.393   5.592  32.234  1.00  0.00     0.037 A 
HETATM    6  C9  UNK     1      18.444   6.573  30.293  1.00  0.00     0.037 A 
ENDROOT
BRANCH   1   7
HETATM    7  C3  UNK     1      19.255   2.917  30.387  1.00  0.00     0.012 C 
HETATM    8  C6  UNK     1      18.939   1.744  30.984  1.00  0.00     0.012 C 
BRANCH   8   9
HETATM    9  C2  UNK     1      19.473   0.442  30.612  1.00  0.00    -0.036 A 
HETATM   10  C10 UNK     1      19.478  -0.600  31.540  1.00  0.00     0.011 A 
HETATM   11  C12 UNK     1      19.990  -1.847  31.184  1.00  0.00     0.001 A 
HETATM   12  C14 UNK     1      20.498  -2.054  29.902  1.00  0.00     0.000 A 
HETATM   13  C13 UNK     1      20.492  -1.012  28.974  1.00  0.00     0.001 A 
HETATM   14  C11 UNK     1      19.980   0.236  29.329  1.00  0.00     0.011 A 
ENDBRANCH   8   9
ENDBRANCH   1   7
BRANCH   4  15
HETATM   15  N1  UNK     1      17.121   7.972  31.787  1.00  0.00    -0.116 N 
HETATM   16  O1  UNK     1      16.188   8.451  31.097  1.00  0.00    -0.532 OA
HETATM   17  O2  UNK     1      17.595   8.580  32.777  1.00  0.00    -0.532 OA
ENDBRANCH   4  15
TORSDOF 3
ENDMDL
MODEL 3
REMARK VINA RESULT:      -7.7      1.275      2.069
REMARK  3 active torsions:
REMARK  status: ('A' for Active; 'I' for Inactive)
REMARK    1  A    between atoms: C7_10  and  N1_3 
REMARK    2  A    between atoms: C1_4  and  C3_6 
REMARK    3  A    between atoms: C2_5  and  C6_9 
ROOT
HETATM    1  C1  UNK     1      18.470   4.960  31.466  1.00  0.00    -0.036 A 
HETATM    2  C4  UNK     1      18.102   4.788  32.790  1.00  0.00     0.014 A 
HETATM    3  C5  UNK     1      18.389   6.198  30.849  1.00  0.00     0.014 A 
HETATM    4  C7  UNK     1      17.553   7.138  32.912  1.00  0.00     0.102 A 
HETATM    5  C8  UNK     1      17.641   5.885  33.518  1.00  0.00     0.037 A 
HETATM    6  C9  UNK     1      17.927   7.294  31.577  1.00  0.00     0.037 A 
ENDROOT
BRANCH   1   7
HETATM    7  C3  UNK     1      18.959   3.802  30.697  1.00  0.00     0.012 C 
HETATM    8  C6  UNK     1      18.541   2.525  30.859  1.00  0.00     0.012 C 
BRANCH   8   9
HETATM    9  C2  UNK     1      19.009   1.384  30.086  1.00  0.00    -0.036 A 
HETATM   10  C10 UNK     1      18.454   1.113  28.835  1.00  0.00     0.011 A 
HETATM   11  C12 UNK     1      18.903   0.020  28.096  1.00  0.00     0.001 A 
HETATM   12  C14 UNK     1      19.906  -0.804  28.606  1.00  0.00     0.000 A 
HETATM   13  C13 UNK     1      20.462  -0.533  29.857  1.00  0.00     0.001 A 
HETATM   14  C11 UNK     1      20.014   0.561  30.596  1.00  0.00     0.011 A 
ENDBRANCH   8   9
ENDBRANCH   1   7
BRANCH   4  15
HETATM   15  N1  UNK     1      17.083   8.253  33.653  1.00  0.00    -0.116 N 
HETATM   16  O1  UNK     1      16.985   9.366  33.080  1.00  0.00    -0.532 OA
HETATM   17  O2  UNK     1      16.779   8.099  34.861  1.00  0.00    -0.532 OA
ENDBRANCH   4  15
TORSDOF 3
ENDMDL
MODEL 4
REMARK VINA RESULT:      -7.7      1.241      1.905
REMARK  3 active torsions:
REMARK  status: ('A' for Active; 'I' for Inactive)
REMARK    1  A    between atoms: C7_10  and  N1_3 
REMARK    2  A    between atoms: C1_4  and  C3_6 
REMARK    3  A    between atoms: C2_5  and  C6_9 
ROOT
HETATM    1  C1  UNK     1      18.473   4.931  31.391  1.00  0.00    -0.036 A 
HETATM    2  C4  UNK     1      18.468   6.184  30.801  1.00  0.00     0.014 A 
HETATM    3  C5  UNK     1      18.054   4.748  32.700  1.00  0.00     0.014 A 
HETATM    4  C7  UNK     1      17.611   7.119  32.856  1.00  0.00     0.102 A 
HETATM    5  C8  UNK     1      18.034   7.285  31.538  1.00  0.00     0.037 A 
HETATM    6  C9  UNK     1      17.620   5.850  33.437  1.00  0.00     0.037 A 
ENDROOT
BRANCH   1   7
HETATM    7  C3  UNK     1      18.929   3.767  30.612  1.00  0.00     0.012 C 
HETATM    8  C6  UNK     1      18.652   2.475  30.905  1.00  0.00     0.012 C 
BRANCH   8   9
HETATM    9  C2  UNK     1      19.086   1.325  30.125  1.00  0.00    -0.036 A 
HETATM   10  C10 UNK     1      20.053   0.460  30.637  1.00  0.00     0.011 A 
HETATM   11  C12 UNK     1      20.469  -0.641  29.889  1.00  0.00     0.001 A 
HETATM   12  C14 UNK     1      19.919  -0.878  28.630  1.00  0.00     0.000 A 
HETATM   13  C13 UNK     1      18.951  -0.013  28.118  1.00  0.00     0.001 A 
HETATM   14  C11 UNK     1      18.535   1.088  28.866  1.00  0.00     0.011 A 
ENDBRANCH   8   9
ENDBRANCH   1   7
BRANCH   4  15
HETATM   15  N1  UNK     1      17.169   8.240  33.607  1.00  0.00    -0.116 N 
HETATM   16  O1  UNK     1      17.119   9.363  33.049  1.00  0.00    -0.532 OA
HETATM   17  O2  UNK     1      16.840   8.078  34.807  1.00  0.00    -0.532 OA
ENDBRANCH   4  15
TORSDOF 3
ENDMDL
MODEL 5
REMARK VINA RESULT:      -7.5      4.630      7.605
REMARK  3 active torsions:
REMARK  status: ('A' for Active; 'I' for Inactive)
REMARK    1  A    between atoms: C7_10  and  N1_3 
REMARK    2  A    between atoms: C1_4  and  C3_6 
REMARK    3  A    between atoms: C2_5  and  C6_9 
ROOT
HETATM    1  C1  UNK     1      18.593   2.799  30.615  1.00  0.00    -0.036 A 
HETATM    2  C4  UNK     1      19.271   1.766  31.243  1.00  0.00     0.014 A 
HETATM    3  C5  UNK     1      18.190   2.699  29.293  1.00  0.00     0.014 A 
HETATM    4  C7  UNK     1      19.154   0.486  29.198  1.00  0.00     0.102 A 
HETATM    5  C8  UNK     1      19.553   0.602  30.529  1.00  0.00     0.037 A 
HETATM    6  C9  UNK     1      18.472   1.534  28.580  1.00  0.00     0.037 A 
ENDROOT
BRANCH   1   7
HETATM    7  C3  UNK     1      18.293   4.028  31.370  1.00  0.00     0.012 C 
HETATM    8  C6  UNK     1      19.132   5.081  31.512  1.00  0.00     0.012 C 
BRANCH   8   9
HETATM    9  C2  UNK     1      18.829   6.304  32.240  1.00  0.00    -0.036 A 
HETATM   10  C10 UNK     1      19.742   6.808  33.167  1.00  0.00     0.011 A 
HETATM   11  C12 UNK     1      19.452   7.979  33.865  1.00  0.00     0.001 A 
HETATM   12  C14 UNK     1      18.249   8.648  33.637  1.00  0.00     0.000 A 
HETATM   13  C13 UNK     1      17.337   8.144  32.709  1.00  0.00     0.001 A 
HETATM   14  C11 UNK     1      17.627   6.973  32.011  1.00  0.00     0.011 A 
ENDBRANCH   8   9
ENDBRANCH   1   7
BRANCH   4  15
HETATM   15  N1  UNK     1      19.441  -0.700  28.471  1.00  0.00    -0.116 N 
HETATM   16  O1  UNK     1      20.147  -1.587  29.010  1.00  0.00    -0.532 OA
HETATM   17  O2  UNK     1      18.982  -0.829  27.310  1.00  0.00    -0.532 OA
ENDBRANCH   4  15
TORSDOF 3
ENDMDL
MODEL 6
REMARK VINA RESULT:      -7.0      7.245      9.143
REMARK  3 active torsions:
REMARK  status: ('A' for Active; 'I' for Inactive)
REMARK    1  A    between atoms: C7_10  and  N1_3 
REMARK    2  A    between atoms: C1_4  and  C3_6 
REMARK    3  A    between atoms: C2_5  and  C6_9 
ROOT
HETATM    1  C1  UNK     1      19.211  -2.172  36.597  1.00  0.00    -0.036 A 
HETATM    2  C4  UNK     1      19.551  -1.903  35.282  1.00  0.00     0.014 A 
HETATM    3  C5  UNK     1      18.139  -1.542  37.209  1.00  0.00     0.014 A 
HETATM    4  C7  UNK     1      17.716  -0.337  35.157  1.00  0.00     0.102 A 
HETATM    5  C8  UNK     1      18.798  -0.980  34.557  1.00  0.00     0.037 A 
HETATM    6  C9  UNK     1      17.386  -0.618  36.483  1.00  0.00     0.037 A 
ENDROOT
BRANCH   1   7
HETATM    7  C3  UNK     1      20.005  -3.149  37.363  1.00  0.00     0.012 C 
HETATM    8  C6  UNK     1      19.850  -4.493  37.309  1.00  0.00     0.012 C 
BRANCH   8   9
HETATM    9  C2  UNK     1      20.647  -5.460  38.050  1.00  0.00    -0.036 A 
HETATM   10  C10 UNK     1      20.027  -6.549  38.664  1.00  0.00     0.011 A 
HETATM   11  C12 UNK     1      20.790  -7.475  39.374  1.00  0.00     0.001 A 
HETATM   12  C14 UNK     1      22.172  -7.313  39.470  1.00  0.00     0.000 A 
HETATM   13  C13 UNK     1      22.792  -6.225  38.856  1.00  0.00     0.001 A 
HETATM   14  C11 UNK     1      22.029  -5.298  38.146  1.00  0.00     0.011 A 
ENDBRANCH   8   9
ENDBRANCH   1   7
BRANCH   4  15
HETATM   15  N1  UNK     1      16.951   0.603  34.419  1.00  0.00    -0.116 N 
HETATM   16  O1  UNK     1      17.546   1.439  33.697  1.00  0.00    -0.532 OA
HETATM   17  O2  UNK     1      15.699   0.574  34.509  1.00  0.00    -0.532 OA
ENDBRANCH   4  15
TORSDOF 3
ENDMDL
MODEL 7
REMARK VINA RESULT:      -6.9      7.390      9.326
REMARK  3 active torsions:
REMARK  status: ('A' for Active; 'I' for Inactive)
REMARK    1  A    between atoms: C7_10  and  N1_3 
REMARK    2  A    between atoms: C1_4  and  C3_6 
REMARK    3  A    between atoms: C2_5  and  C6_9 
ROOT
HETATM    1  C1  UNK     1      19.425  -2.425  36.607  1.00  0.00    -0.036 A 
HETATM    2  C4  UNK     1      19.830  -2.202  35.302  1.00  0.00     0.014 A 
HETATM    3  C5  UNK     1      18.365  -1.727  37.164  1.00  0.00     0.014 A 
HETATM    4  C7  UNK     1      18.088  -0.543  35.076  1.00  0.00     0.102 A 
HETATM    5  C8  UNK     1      19.156  -1.255  34.531  1.00  0.00     0.037 A 
HETATM    6  C9  UNK     1      17.692  -0.780  36.392  1.00  0.00     0.037 A 
ENDROOT
BRANCH   1   7
HETATM    7  C3  UNK     1      20.135  -3.427  37.421  1.00  0.00     0.012 C 
HETATM    8  C6  UNK     1      19.939  -4.765  37.358  1.00  0.00     0.012 C 
BRANCH   8   9
HETATM    9  C2  UNK     1      20.653  -5.757  38.147  1.00  0.00    -0.036 A 
HETATM   10  C10 UNK     1      22.032  -5.642  38.329  1.00  0.00     0.011 A 
HETATM   11  C12 UNK     1      22.717  -6.592  39.085  1.00  0.00     0.001 A 
HETATM   12  C14 UNK     1      22.024  -7.658  39.660  1.00  0.00     0.000 A 
HETATM   13  C13 UNK     1      20.646  -7.772  39.479  1.00  0.00     0.001 A 
HETATM   14  C11 UNK     1      19.961  -6.821  38.723  1.00  0.00     0.011 A 
ENDBRANCH   8   9
ENDBRANCH   1   7
BRANCH   4  15
HETATM   15  N1  UNK     1      17.402   0.421  34.291  1.00  0.00    -0.116 N 
HETATM   16  O1  UNK     1      18.054   1.111  33.470  1.00  0.00    -0.532 OA
HETATM   17  O2  UNK     1      16.163   0.557  34.439  1.00  0.00    -0.532 OA
ENDBRANCH   4  15
TORSDOF 3
ENDMDL
MODEL 8
REMARK VINA RESULT:      -6.8      1.880      2.908
REMARK  3 active torsions:
REMARK  status: ('A' for Active; 'I' for Inactive)
REMARK    1  A    between atoms: C7_10  and  N1_3 
REMARK    2  A    between atoms: C1_4  and  C3_6 
REMARK    3  A    between atoms: C2_5  and  C6_9 
ROOT
HETATM    1  C1  UNK     1      17.846   5.857  32.704  1.00  0.00    -0.036 A 
HETATM    2  C4  UNK     1      16.642   6.476  32.408  1.00  0.00     0.014 A 
HETATM    3  C5  UNK     1      18.824   6.499  33.447  1.00  0.00     0.014 A 
HETATM    4  C7  UNK     1      17.384   8.433  33.616  1.00  0.00     0.102 A 
HETATM    5  C8  UNK     1      16.410   7.772  32.867  1.00  0.00     0.037 A 
HETATM    6  C9  UNK     1      18.590   7.796  33.906  1.00  0.00     0.037 A 
ENDROOT
BRANCH   1   7
HETATM    7  C3  UNK     1      18.091   4.487  32.221  1.00  0.00     0.012 C 
HETATM    8  C6  UNK     1      18.321   4.144  30.932  1.00  0.00     0.012 C 
BRANCH   8   9
HETATM    9  C2  UNK     1      18.583   2.793  30.457  1.00  0.00    -0.036 A 
HETATM   10  C10 UNK     1      18.331   2.462  29.126  1.00  0.00     0.011 A 
HETATM   11  C12 UNK     1      18.581   1.168  28.670  1.00  0.00     0.001 A 
HETATM   12  C14 UNK     1      19.084   0.205  29.545  1.00  0.00     0.000 A 
HETATM   13  C13 UNK     1      19.337   0.537  30.877  1.00  0.00     0.001 A 
HETATM   14  C11 UNK     1      19.087   1.831  31.332  1.00  0.00     0.011 A 
ENDBRANCH   8   9
ENDBRANCH   1   7
BRANCH   4  15
HETATM   15  N1  UNK     1      17.147   9.752  34.083  1.00  0.00    -0.116 N 
HETATM   16  O1  UNK     1      17.801  10.700  33.584  1.00  0.00    -0.532 OA
HETATM   17  O2  UNK     1      16.291   9.935  34.982  1.00  0.00    -0.532 OA
ENDBRANCH   4  15
TORSDOF 3
ENDMDL
MODEL 9
REMARK VINA RESULT:      -6.7      4.235      8.351
REMARK  3 active torsions:
REMARK  status: ('A' for Active; 'I' for Inactive)
REMARK    1  A    between atoms: C7_10  and  N1_3 
REMARK    2  A    between atoms: C1_4  and  C3_6 
REMARK    3  A    between atoms: C2_5  and  C6_9 
ROOT
HETATM    1  C1  UNK     1      18.514   5.952  31.965  1.00  0.00    -0.036 A 
HETATM    2  C4  UNK     1      19.030   5.746  30.696  1.00  0.00     0.014 A 
HETATM    3  C5  UNK     1      18.001   4.906  32.715  1.00  0.00     0.014 A 
HETATM    4  C7  UNK     1      18.520   3.393  30.903  1.00  0.00     0.102 A 
HETATM    5  C8  UNK     1      19.033   4.458  30.162  1.00  0.00     0.037 A 
HETATM    6  C9  UNK     1      18.005   3.618  32.180  1.00  0.00     0.037 A 
ENDROOT
BRANCH   1   7
HETATM    7  C3  UNK     1      18.513   7.313  32.530  1.00  0.00     0.012 C 
HETATM    8  C6  UNK     1      17.411   7.992  32.928  1.00  0.00     0.012 C 
BRANCH   8   9
HETATM    9  C2  UNK     1      17.411   9.328  33.505  1.00  0.00    -0.036 A 
HETATM   10  C10 UNK     1      18.619   9.976  33.763  1.00  0.00     0.011 A 
HETATM   11  C12 UNK     1      18.619  11.256  34.316  1.00  0.00     0.001 A 
HETATM   12  C14 UNK     1      17.411  11.888  34.611  1.00  0.00     0.000 A 
HETATM   13  C13 UNK     1      16.203  11.240  34.352  1.00  0.00     0.001 A 
HETATM   14  C11 UNK     1      16.203   9.960  33.799  1.00  0.00     0.011 A 
ENDBRANCH   8   9
ENDBRANCH   1   7
BRANCH   4  15
HETATM   15  N1  UNK     1      18.523   2.082  30.359  1.00  0.00    -0.116 N 
HETATM   16  O1  UNK     1      19.459   1.302  30.659  1.00  0.00    -0.532 OA
HETATM   17  O2  UNK     1      17.590   1.738  29.594  1.00  0.00    -0.532 OA
ENDBRANCH   4  15
TORSDOF 3
ENDMDL
MODEL 10
REMARK VINA RESULT:      -6.7      5.720      7.848
REMARK  3 active torsions:
REMARK  status: ('A' for Active; 'I' for Inactive)
REMARK    1  A    between atoms: C7_10  and  N1_3 
REMARK    2  A    between atoms: C1_4  and  C3_6 
REMARK    3  A    between atoms: C2_5  and  C6_9 
ROOT
HETATM    1  C1  UNK     1      18.225   1.900  34.997  1.00  0.00    -0.036 A 
HETATM    2  C4  UNK     1      17.989   1.999  36.358  1.00  0.00     0.014 A 
HETATM    3  C5  UNK     1      18.434   0.672  34.388  1.00  0.00     0.014 A 
HETATM    4  C7  UNK     1      18.170  -0.403  36.536  1.00  0.00     0.102 A 
HETATM    5  C8  UNK     1      17.961   0.840  37.133  1.00  0.00     0.037 A 
HETATM    6  C9  UNK     1      18.405  -0.487  35.164  1.00  0.00     0.037 A 
ENDROOT
BRANCH   1   7
HETATM    7  C3  UNK     1      18.253   3.124  34.178  1.00  0.00     0.012 C 
HETATM    8  C6  UNK     1      18.295   3.157  32.825  1.00  0.00     0.012 C 
BRANCH   8   9
HETATM    9  C2  UNK     1      18.303   4.366  32.015  1.00  0.00    -0.036 A 
HETATM   10  C10 UNK     1      17.604   5.495  32.441  1.00  0.00     0.011 A 
HETATM   11  C12 UNK     1      17.610   6.653  31.664  1.00  0.00     0.001 A 
HETATM   12  C14 UNK     1      18.316   6.683  30.461  1.00  0.00     0.000 A 
HETATM   13  C13 UNK     1      19.016   5.554  30.036  1.00  0.00     0.001 A 
HETATM   14  C11 UNK     1      19.009   4.396  30.812  1.00  0.00     0.011 A 
ENDBRANCH   8   9
ENDBRANCH   1   7
BRANCH   4  15
HETATM   15  N1  UNK     1      18.141  -1.583  37.324  1.00  0.00    -0.116 N 
HETATM   16  O1  UNK     1      17.611  -2.618  36.852  1.00  0.00    -0.532 OA
HETATM   17  O2  UNK     1      18.647  -1.561  38.473  1.00  0.00    -0.532 OA
ENDBRANCH   4  15
TORSDOF 3
ENDMDL
