MODEL 1
REMARK VINA RESULT:     -10.4      0.000      0.000
REMARK  6 active torsions:
REMARK  status: ('A' for Active; 'I' for Inactive)
REMARK    1  A    between atoms: C5_11  and  N1_4 
REMARK    2  A    between atoms: C6_12  and  N2_5 
REMARK    3  A    between atoms: C17_23  and  N3_6 
REMARK       I    between atoms: C9_15  and  N3_6 
REMARK    4  A    between atoms: C5_11  and  C7_13 
REMARK    5  A    between atoms: C6_12  and  C9_15 
REMARK    6  A    between atoms: C21_27  and  C22_28 
ROOT
HETATM    1  N1  UNK     1      19.261  -3.120  36.205  1.00  0.00     0.096 N 
HETATM    2  N2  UNK     1      18.281  -0.512  35.432  1.00  0.00     0.100 N 
HETATM    3  C1  UNK     1      20.003  -2.275  35.261  1.00  0.00     0.303 C 
HETATM    4  C2  UNK     1      18.487  -2.290  37.136  1.00  0.00     0.303 C 
HETATM    5  C3  UNK     1      19.055  -1.342  34.501  1.00  0.00     0.303 C 
HETATM    6  C4  UNK     1      17.538  -1.356  36.376  1.00  0.00     0.303 C 
ENDROOT
BRANCH   1   7
HETATM    7  C5  UNK     1      20.168  -4.007  36.931  1.00  0.00     0.312 C 
BRANCH   7   8
HETATM    8  C7  UNK     1      20.169  -5.388  36.375  1.00  0.00    -0.011 A 
HETATM    9  C10 UNK     1      20.257  -5.604  35.055  1.00  0.00     0.092 A 
HETATM   10  C13 UNK     1      20.264  -6.951  34.460  1.00  0.00     0.288 A 
HETATM   11  O1  UNK     1      20.172  -8.020  35.337  1.00  0.00    -0.275 OA
HETATM   12  O3  UNK     1      20.344  -7.110  33.247  1.00  0.00    -0.260 OA
HETATM   13  C11 UNK     1      20.079  -7.824  36.730  1.00  0.00     0.090 A 
HETATM   14  C8  UNK     1      20.074  -6.542  37.281  1.00  0.00     0.006 A 
HETATM   15  C14 UNK     1      19.992  -8.974  37.518  1.00  0.00     0.045 A 
HETATM   16  C12 UNK     1      19.979  -6.433  38.674  1.00  0.00     0.015 A 
HETATM   17  C16 UNK     1      19.890  -7.576  39.477  1.00  0.00     0.007 A 
HETATM   18  C15 UNK     1      19.897  -8.845  38.899  1.00  0.00    -0.059 A 
HETATM   19  C19 UNK     1      19.803 -10.058  39.761  1.00  0.00     0.048 C 
ENDBRANCH   7   8
ENDBRANCH   1   7
BRANCH   2  20
HETATM   20  C6  UNK     1      17.376   0.377  34.707  1.00  0.00     0.375 C 
BRANCH  20  21
HETATM   21  C9  UNK     1      18.142   1.598  34.228  1.00  0.00     0.250 C 
HETATM   22  O2  UNK     1      19.033   2.120  34.889  1.00  0.00    -0.271 OA
HETATM   23  N3  UNK     1      17.683   1.992  32.973  1.00  0.00    -0.326 N 
HETATM   24  H15 UNK     1      16.928   1.453  32.553  1.00  0.00     0.169 HD
BRANCH  23  25
HETATM   25  C17 UNK     1      18.137   3.081  32.191  1.00  0.00     0.035 A 
HETATM   26  C18 UNK     1      18.232   4.354  32.755  1.00  0.00     0.036 A 
HETATM   27  C21 UNK     1      18.679   5.427  31.983  1.00  0.00    -0.056 A 
HETATM   28  C24 UNK     1      19.032   5.226  30.649  1.00  0.00     0.007 A 
HETATM   29  C23 UNK     1      18.938   3.954  30.085  1.00  0.00     0.003 A 
HETATM   30  C20 UNK     1      18.490   2.882  30.856  1.00  0.00     0.029 A 
BRANCH  27  31
HETATM   31  C22 UNK     1      18.781   6.787  32.585  1.00  0.00     0.034 C 
HETATM   32  C25 UNK     1      20.113   7.010  33.295  1.00  0.00     0.010 C 
ENDBRANCH  27  31
ENDBRANCH  23  25
ENDBRANCH  20  21
ENDBRANCH   2  20
TORSDOF 6
ENDMDL
MODEL 2
REMARK VINA RESULT:      -9.9      1.875      2.963
REMARK  6 active torsions:
REMARK  status: ('A' for Active; 'I' for Inactive)
REMARK    1  A    between atoms: C5_11  and  N1_4 
REMARK    2  A    between atoms: C6_12  and  N2_5 
REMARK    3  A    between atoms: C17_23  and  N3_6 
REMARK       I    between atoms: C9_15  and  N3_6 
REMARK    4  A    between atoms: C5_11  and  C7_13 
REMARK    5  A    between atoms: C6_12  and  C9_15 
REMARK    6  A    between atoms: C21_27  and  C22_28 
ROOT
HETATM    1  N1  UNK     1      19.577  -3.296  36.585  1.00  0.00     0.096 N 
HETATM    2  N2  UNK     1      18.784  -0.558  36.105  1.00  0.00     0.100 N 
HETATM    3  C1  UNK     1      20.414  -2.387  35.792  1.00  0.00     0.303 C 
HETATM    4  C2  UNK     1      18.800  -2.543  37.576  1.00  0.00     0.303 C 
HETATM    5  C3  UNK     1      19.560  -1.312  35.113  1.00  0.00     0.303 C 
HETATM    6  C4  UNK     1      17.946  -1.466  36.898  1.00  0.00     0.303 C 
ENDROOT
BRANCH   1   7
HETATM    7  C5  UNK     1      20.394  -4.320  37.233  1.00  0.00     0.312 C 
BRANCH   7   8
HETATM    8  C7  UNK     1      20.265  -5.647  36.569  1.00  0.00    -0.011 A 
HETATM    9  C10 UNK     1      20.333  -5.764  35.236  1.00  0.00     0.092 A 
HETATM   10  C13 UNK     1      20.213  -7.055  34.536  1.00  0.00     0.288 A 
HETATM   11  O1  UNK     1      20.020  -8.176  35.326  1.00  0.00    -0.275 OA
HETATM   12  O3  UNK     1      20.279  -7.123  33.313  1.00  0.00    -0.260 OA
HETATM   13  C11 UNK     1      19.945  -8.084  36.730  1.00  0.00     0.090 A 
HETATM   14  C8  UNK     1      20.061  -6.855  37.381  1.00  0.00     0.006 A 
HETATM   15  C14 UNK     1      19.749  -9.280  37.425  1.00  0.00     0.045 A 
HETATM   16  C12 UNK     1      19.975  -6.848  38.779  1.00  0.00     0.015 A 
HETATM   17  C16 UNK     1      19.779  -8.039  39.490  1.00  0.00     0.007 A 
HETATM   18  C15 UNK     1      19.666  -9.252  38.813  1.00  0.00    -0.059 A 
HETATM   19  C19 UNK     1      19.458 -10.516  39.577  1.00  0.00     0.048 C 
ENDBRANCH   7   8
ENDBRANCH   1   7
BRANCH   2  20
HETATM   20  C6  UNK     1      17.969   0.468  35.457  1.00  0.00     0.375 C 
BRANCH  20  21
HETATM   21  C9  UNK     1      17.880   0.178  33.969  1.00  0.00     0.250 C 
HETATM   22  O2  UNK     1      17.213  -0.744  33.514  1.00  0.00    -0.271 OA
HETATM   23  N3  UNK     1      18.642   1.099  33.253  1.00  0.00    -0.326 N 
HETATM   24  H15 UNK     1      19.145   1.810  33.781  1.00  0.00     0.169 HD
BRANCH  23  25
HETATM   25  C17 UNK     1      18.819   1.168  31.851  1.00  0.00     0.035 A 
HETATM   26  C18 UNK     1      19.498   0.148  31.182  1.00  0.00     0.036 A 
HETATM   27  C21 UNK     1      19.673   0.218  29.799  1.00  0.00    -0.056 A 
HETATM   28  C24 UNK     1      19.168   1.305  29.087  1.00  0.00     0.007 A 
HETATM   29  C23 UNK     1      18.490   2.324  29.755  1.00  0.00     0.003 A 
HETATM   30  C20 UNK     1      18.316   2.256  31.137  1.00  0.00     0.029 A 
BRANCH  27  31
HETATM   31  C22 UNK     1      20.398  -0.871  29.084  1.00  0.00     0.034 C 
HETATM   32  C25 UNK     1      20.499  -2.146  29.917  1.00  0.00     0.010 C 
ENDBRANCH  27  31
ENDBRANCH  23  25
ENDBRANCH  20  21
ENDBRANCH   2  20
TORSDOF 6
ENDMDL
MODEL 3
REMARK VINA RESULT:      -9.9      5.487     12.784
REMARK  6 active torsions:
REMARK  status: ('A' for Active; 'I' for Inactive)
REMARK    1  A    between atoms: C5_11  and  N1_4 
REMARK    2  A    between atoms: C6_12  and  N2_5 
REMARK    3  A    between atoms: C17_23  and  N3_6 
REMARK       I    between atoms: C9_15  and  N3_6 
REMARK    4  A    between atoms: C5_11  and  C7_13 
REMARK    5  A    between atoms: C6_12  and  C9_15 
REMARK    6  A    between atoms: C21_27  and  C22_28 
ROOT
HETATM    1  N1  UNK     1      18.271   6.115  32.152  1.00  0.00     0.096 N 
HETATM    2  N2  UNK     1      19.010   4.113  30.200  1.00  0.00     0.100 N 
HETATM    3  C1  UNK     1      18.225   4.682  32.472  1.00  0.00     0.303 C 
HETATM    4  C2  UNK     1      19.301   6.380  31.140  1.00  0.00     0.303 C 
HETATM    5  C3  UNK     1      17.979   3.848  31.211  1.00  0.00     0.303 C 
HETATM    6  C4  UNK     1      19.056   5.546  29.878  1.00  0.00     0.303 C 
ENDROOT
BRANCH   1   7
HETATM    7  C5  UNK     1      18.509   6.908  33.356  1.00  0.00     0.312 C 
BRANCH   7   8
HETATM    8  C7  UNK     1      17.371   7.818  33.663  1.00  0.00    -0.011 A 
HETATM    9  C10 UNK     1      16.113   7.360  33.723  1.00  0.00     0.092 A 
HETATM   10  C13 UNK     1      14.957   8.222  34.025  1.00  0.00     0.288 A 
HETATM   11  O1  UNK     1      15.223   9.563  34.251  1.00  0.00    -0.275 OA
HETATM   12  O3  UNK     1      13.819   7.767  34.069  1.00  0.00    -0.260 OA
HETATM   13  C11 UNK     1      16.535  10.074  34.196  1.00  0.00     0.090 A 
HETATM   14  C8  UNK     1      17.621   9.246  33.910  1.00  0.00     0.006 A 
HETATM   15  C14 UNK     1      16.684  11.441  34.441  1.00  0.00     0.045 A 
HETATM   16  C12 UNK     1      18.893   9.830  33.874  1.00  0.00     0.015 A 
HETATM   17  C16 UNK     1      19.059  11.199  34.117  1.00  0.00     0.007 A 
HETATM   18  C15 UNK     1      17.955  12.003  34.400  1.00  0.00    -0.059 A 
HETATM   19  C19 UNK     1      18.140  13.459  34.660  1.00  0.00     0.048 C 
ENDBRANCH   7   8
ENDBRANCH   1   7
BRANCH   2  20
HETATM   20  C6  UNK     1      18.774   3.319  28.997  1.00  0.00     0.375 C 
BRANCH  20  21
HETATM   21  C9  UNK     1      18.589   1.861  29.381  1.00  0.00     0.250 C 
HETATM   22  O2  UNK     1      17.502   1.296  29.327  1.00  0.00    -0.271 OA
HETATM   23  N3  UNK     1      19.806   1.310  29.777  1.00  0.00    -0.326 N 
HETATM   24  H15 UNK     1      20.625   1.914  29.769  1.00  0.00     0.169 HD
BRANCH  23  25
HETATM   25  C17 UNK     1      20.054  -0.016  30.208  1.00  0.00     0.035 A 
HETATM   26  C18 UNK     1      19.808  -0.375  31.534  1.00  0.00     0.036 A 
HETATM   27  C21 UNK     1      20.053  -1.682  31.958  1.00  0.00    -0.056 A 
HETATM   28  C24 UNK     1      20.542  -2.627  31.056  1.00  0.00     0.007 A 
HETATM   29  C23 UNK     1      20.788  -2.268  29.732  1.00  0.00     0.003 A 
HETATM   30  C20 UNK     1      20.543  -0.962  29.307  1.00  0.00     0.029 A 
BRANCH  27  31
HETATM   31  C22 UNK     1      19.791  -2.068  33.374  1.00  0.00     0.034 C 
HETATM   32  C25 UNK     1      18.795  -1.133  34.055  1.00  0.00     0.010 C 
ENDBRANCH  27  31
ENDBRANCH  23  25
ENDBRANCH  20  21
ENDBRANCH   2  20
TORSDOF 6
ENDMDL
MODEL 4
REMARK VINA RESULT:      -9.8      5.598     12.539
REMARK  6 active torsions:
REMARK  status: ('A' for Active; 'I' for Inactive)
REMARK    1  A    between atoms: C5_11  and  N1_4 
REMARK    2  A    between atoms: C6_12  and  N2_5 
REMARK    3  A    between atoms: C17_23  and  N3_6 
REMARK       I    between atoms: C9_15  and  N3_6 
REMARK    4  A    between atoms: C5_11  and  C7_13 
REMARK    5  A    between atoms: C6_12  and  C9_15 
REMARK    6  A    between atoms: C21_27  and  C22_28 
ROOT
HETATM    1  N1  UNK     1      17.984   5.805  32.927  1.00  0.00     0.096 N 
HETATM    2  N2  UNK     1      18.863   4.290  30.626  1.00  0.00     0.100 N 
HETATM    3  C1  UNK     1      18.084   4.341  32.970  1.00  0.00     0.303 C 
HETATM    4  C2  UNK     1      18.957   6.357  31.977  1.00  0.00     0.303 C 
HETATM    5  C3  UNK     1      17.888   3.738  31.576  1.00  0.00     0.303 C 
HETATM    6  C4  UNK     1      18.763   5.754  30.581  1.00  0.00     0.303 C 
ENDROOT
BRANCH   1   7
HETATM    7  C5  UNK     1      18.174   6.378  34.257  1.00  0.00     0.312 C 
BRANCH   7   8
HETATM    8  C7  UNK     1      18.181   7.867  34.233  1.00  0.00    -0.011 A 
HETATM    9  C10 UNK     1      19.321   8.557  34.376  1.00  0.00     0.092 A 
HETATM   10  C13 UNK     1      19.377  10.029  34.357  1.00  0.00     0.288 A 
HETATM   11  O1  UNK     1      18.174  10.696  34.181  1.00  0.00    -0.275 OA
HETATM   12  O3  UNK     1      20.438  10.627  34.493  1.00  0.00    -0.260 OA
HETATM   13  C11 UNK     1      16.960   9.998  34.027  1.00  0.00     0.090 A 
HETATM   14  C8  UNK     1      16.922   8.602  34.047  1.00  0.00     0.006 A 
HETATM   15  C14 UNK     1      15.811  10.772  33.856  1.00  0.00     0.045 A 
HETATM   16  C12 UNK     1      15.675   7.984  33.887  1.00  0.00     0.015 A 
HETATM   17  C16 UNK     1      14.514   8.747  33.715  1.00  0.00     0.007 A 
HETATM   18  C15 UNK     1      14.582  10.139  33.700  1.00  0.00    -0.059 A 
HETATM   19  C19 UNK     1      13.342  10.946  33.515  1.00  0.00     0.048 C 
ENDBRANCH   7   8
ENDBRANCH   1   7
BRANCH   2  20
HETATM   20  C6  UNK     1      18.676   3.715  29.296  1.00  0.00     0.375 C 
BRANCH  20  21
HETATM   21  C9  UNK     1      18.521   2.209  29.413  1.00  0.00     0.250 C 
HETATM   22  O2  UNK     1      17.494   1.623  29.087  1.00  0.00    -0.271 OA
HETATM   23  N3  UNK     1      19.689   1.643  29.918  1.00  0.00    -0.326 N 
HETATM   24  H15 UNK     1      20.460   2.268  30.144  1.00  0.00     0.169 HD
BRANCH  23  25
HETATM   25  C17 UNK     1      19.944   0.274  30.174  1.00  0.00     0.035 A 
HETATM   26  C18 UNK     1      19.757  -0.243  31.457  1.00  0.00     0.036 A 
HETATM   27  C21 UNK     1      20.009  -1.592  31.708  1.00  0.00    -0.056 A 
HETATM   28  C24 UNK     1      20.447  -2.423  30.677  1.00  0.00     0.007 A 
HETATM   29  C23 UNK     1      20.634  -1.906  29.396  1.00  0.00     0.003 A 
HETATM   30  C20 UNK     1      20.383  -0.558  29.144  1.00  0.00     0.029 A 
BRANCH  27  31
HETATM   31  C22 UNK     1      19.809  -2.145  33.078  1.00  0.00     0.034 C 
HETATM   32  C25 UNK     1      19.043  -1.186  33.985  1.00  0.00     0.010 C 
ENDBRANCH  27  31
ENDBRANCH  23  25
ENDBRANCH  20  21
ENDBRANCH   2  20
TORSDOF 6
ENDMDL
MODEL 5
REMARK VINA RESULT:      -9.7      3.971     11.153
REMARK  6 active torsions:
REMARK  status: ('A' for Active; 'I' for Inactive)
REMARK    1  A    between atoms: C5_11  and  N1_4 
REMARK    2  A    between atoms: C6_12  and  N2_5 
REMARK    3  A    between atoms: C17_23  and  N3_6 
REMARK       I    between atoms: C9_15  and  N3_6 
REMARK    4  A    between atoms: C5_11  and  C7_13 
REMARK    5  A    between atoms: C6_12  and  C9_15 
REMARK    6  A    between atoms: C21_27  and  C22_28 
ROOT
HETATM    1  N1  UNK     1      20.039  -3.987  36.822  1.00  0.00     0.096 N 
HETATM    2  N2  UNK     1      20.265  -6.862  37.035  1.00  0.00     0.100 N 
HETATM    3  C1  UNK     1      20.998  -4.611  37.742  1.00  0.00     0.303 C 
HETATM    4  C2  UNK     1      19.797  -4.859  35.666  1.00  0.00     0.303 C 
HETATM    5  C3  UNK     1      20.505  -5.990  38.192  1.00  0.00     0.303 C 
HETATM    6  C4  UNK     1      19.305  -6.238  36.115  1.00  0.00     0.303 C 
ENDROOT
BRANCH   1   7
HETATM    7  C5  UNK     1      20.512  -2.673  36.392  1.00  0.00     0.312 C 
BRANCH   7   8
HETATM    8  C7  UNK     1      19.518  -1.970  35.534  1.00  0.00    -0.011 A 
HETATM    9  C10 UNK     1      18.428  -1.397  36.064  1.00  0.00     0.092 A 
HETATM   10  C13 UNK     1      17.419  -0.690  35.256  1.00  0.00     0.288 A 
HETATM   11  O1  UNK     1      17.642  -0.637  33.889  1.00  0.00    -0.275 OA
HETATM   12  O3  UNK     1      16.433  -0.180  35.775  1.00  0.00    -0.260 OA
HETATM   13  C11 UNK     1      18.779  -1.228  33.304  1.00  0.00     0.090 A 
HETATM   14  C8  UNK     1      19.728  -1.895  34.082  1.00  0.00     0.006 A 
HETATM   15  C14 UNK     1      18.901  -1.112  31.918  1.00  0.00     0.045 A 
HETATM   16  C12 UNK     1      20.830  -2.456  33.424  1.00  0.00     0.015 A 
HETATM   17  C16 UNK     1      20.965  -2.348  32.035  1.00  0.00     0.007 A 
HETATM   18  C15 UNK     1      20.002  -1.676  31.283  1.00  0.00    -0.059 A 
HETATM   19  C19 UNK     1      20.154  -1.564  29.804  1.00  0.00     0.048 C 
ENDBRANCH   7   8
ENDBRANCH   1   7
BRANCH   2  20
HETATM   20  C6  UNK     1      19.794  -8.177  37.464  1.00  0.00     0.375 C 
BRANCH  20  21
HETATM   21  C9  UNK     1      20.986  -9.075  37.744  1.00  0.00     0.250 C 
HETATM   22  O2  UNK     1      21.228  -9.523  38.859  1.00  0.00    -0.271 OA
HETATM   23  N3  UNK     1      21.710  -9.292  36.574  1.00  0.00    -0.326 N 
HETATM   24  H15 UNK     1      21.379  -8.844  35.722  1.00  0.00     0.169 HD
BRANCH  23  25
HETATM   25  C17 UNK     1      22.883 -10.068  36.416  1.00  0.00     0.035 A 
HETATM   26  C18 UNK     1      24.117  -9.558  36.823  1.00  0.00     0.036 A 
HETATM   27  C21 UNK     1      25.273 -10.324  36.666  1.00  0.00    -0.056 A 
HETATM   28  C24 UNK     1      25.194 -11.598  36.105  1.00  0.00     0.007 A 
HETATM   29  C23 UNK     1      23.961 -12.108  35.698  1.00  0.00     0.003 A 
HETATM   30  C20 UNK     1      22.806 -11.342  35.854  1.00  0.00     0.029 A 
BRANCH  27  31
HETATM   31  C22 UNK     1      26.592  -9.781  37.101  1.00  0.00     0.034 C 
HETATM   32  C25 UNK     1      27.551  -9.581  35.931  1.00  0.00     0.010 C 
ENDBRANCH  27  31
ENDBRANCH  23  25
ENDBRANCH  20  21
ENDBRANCH   2  20
TORSDOF 6
ENDMDL
MODEL 6
REMARK VINA RESULT:      -9.7      2.477      3.826
REMARK  6 active torsions:
REMARK  status: ('A' for Active; 'I' for Inactive)
REMARK    1  A    between atoms: C5_11  and  N1_4 
REMARK    2  A    between atoms: C6_12  and  N2_5 
REMARK    3  A    between atoms: C17_23  and  N3_6 
REMARK       I    between atoms: C9_15  and  N3_6 
REMARK    4  A    between atoms: C5_11  and  C7_13 
REMARK    5  A    between atoms: C6_12  and  C9_15 
REMARK    6  A    between atoms: C21_27  and  C22_28 
ROOT
HETATM    1  N1  UNK     1      19.582  -4.175  36.467  1.00  0.00     0.096 N 
HETATM    2  N2  UNK     1      18.629  -1.583  35.612  1.00  0.00     0.100 N 
HETATM    3  C1  UNK     1      18.223  -3.720  36.782  1.00  0.00     0.303 C 
HETATM    4  C2  UNK     1      20.049  -3.566  35.216  1.00  0.00     0.303 C 
HETATM    5  C3  UNK     1      18.164  -2.191  36.864  1.00  0.00     0.303 C 
HETATM    6  C4  UNK     1      19.990  -2.037  35.296  1.00  0.00     0.303 C 
ENDROOT
BRANCH   1   7
HETATM    7  C5  UNK     1      19.636  -5.634  36.387  1.00  0.00     0.312 C 
BRANCH   7   8
HETATM    8  C7  UNK     1      20.863  -6.187  37.024  1.00  0.00    -0.011 A 
HETATM    9  C10 UNK     1      21.532  -5.496  37.957  1.00  0.00     0.092 A 
HETATM   10  C13 UNK     1      22.748  -6.003  38.614  1.00  0.00     0.288 A 
HETATM   11  O1  UNK     1      23.191  -7.257  38.224  1.00  0.00    -0.275 OA
HETATM   12  O3  UNK     1      23.336  -5.341  39.463  1.00  0.00    -0.260 OA
HETATM   13  C11 UNK     1      22.508  -8.008  37.246  1.00  0.00     0.090 A 
HETATM   14  C8  UNK     1      21.356  -7.515  36.631  1.00  0.00     0.006 A 
HETATM   15  C14 UNK     1      23.043  -9.259  36.931  1.00  0.00     0.045 A 
HETATM   16  C12 UNK     1      20.735  -8.323  35.669  1.00  0.00     0.015 A 
HETATM   17  C16 UNK     1      21.261  -9.579  35.343  1.00  0.00     0.007 A 
HETATM   18  C15 UNK     1      22.413 -10.046  35.973  1.00  0.00    -0.059 A 
HETATM   19  C19 UNK     1      22.967 -11.385  35.621  1.00  0.00     0.048 C 
ENDBRANCH   7   8
ENDBRANCH   1   7
BRANCH   2  20
HETATM   20  C6  UNK     1      18.574  -0.125  35.690  1.00  0.00     0.375 C 
BRANCH  20  21
HETATM   21  C9  UNK     1      17.959   0.427  34.416  1.00  0.00     0.250 C 
HETATM   22  O2  UNK     1      16.748   0.561  34.271  1.00  0.00    -0.271 OA
HETATM   23  N3  UNK     1      18.957   0.743  33.497  1.00  0.00    -0.326 N 
HETATM   24  H15 UNK     1      19.923   0.571  33.768  1.00  0.00     0.169 HD
BRANCH  23  25
HETATM   25  C17 UNK     1      18.795   1.280  32.197  1.00  0.00     0.035 A 
HETATM   26  C18 UNK     1      19.150   0.522  31.080  1.00  0.00     0.036 A 
HETATM   27  C21 UNK     1      18.991   1.052  29.799  1.00  0.00    -0.056 A 
HETATM   28  C24 UNK     1      18.476   2.337  29.636  1.00  0.00     0.007 A 
HETATM   29  C23 UNK     1      18.121   3.095  30.752  1.00  0.00     0.003 A 
HETATM   30  C20 UNK     1      18.281   2.566  32.032  1.00  0.00     0.029 A 
BRANCH  27  31
HETATM   31  C22 UNK     1      19.370   0.242  28.606  1.00  0.00     0.034 C 
HETATM   32  C25 UNK     1      20.515  -0.723  28.898  1.00  0.00     0.010 C 
ENDBRANCH  27  31
ENDBRANCH  23  25
ENDBRANCH  20  21
ENDBRANCH   2  20
TORSDOF 6
ENDMDL
MODEL 7
REMARK VINA RESULT:      -9.5      3.912     11.010
REMARK  6 active torsions:
REMARK  status: ('A' for Active; 'I' for Inactive)
REMARK    1  A    between atoms: C5_11  and  N1_4 
REMARK    2  A    between atoms: C6_12  and  N2_5 
REMARK    3  A    between atoms: C17_23  and  N3_6 
REMARK       I    between atoms: C9_15  and  N3_6 
REMARK    4  A    between atoms: C5_11  and  C7_13 
REMARK    5  A    between atoms: C6_12  and  C9_15 
REMARK    6  A    between atoms: C21_27  and  C22_28 
ROOT
HETATM    1  N1  UNK     1      19.955  -4.261  36.428  1.00  0.00     0.096 N 
HETATM    2  N2  UNK     1      20.139  -7.136  36.677  1.00  0.00     0.100 N 
HETATM    3  C1  UNK     1      20.615  -4.886  37.580  1.00  0.00     0.303 C 
HETATM    4  C2  UNK     1      20.065  -5.123  35.245  1.00  0.00     0.303 C 
HETATM    5  C3  UNK     1      20.028  -6.273  37.860  1.00  0.00     0.303 C 
HETATM    6  C4  UNK     1      19.478  -6.511  35.524  1.00  0.00     0.303 C 
ENDROOT
BRANCH   1   7
HETATM    7  C5  UNK     1      20.519  -2.939  36.161  1.00  0.00     0.312 C 
BRANCH   7   8
HETATM    8  C7  UNK     1      19.725  -2.182  35.154  1.00  0.00    -0.011 A 
HETATM    9  C10 UNK     1      20.028  -2.236  33.849  1.00  0.00     0.092 A 
HETATM   10  C13 UNK     1      19.270  -1.507  32.818  1.00  0.00     0.288 A 
HETATM   11  O1  UNK     1      18.203  -0.738  33.255  1.00  0.00    -0.275 OA
HETATM   12  O3  UNK     1      19.577  -1.579  31.633  1.00  0.00    -0.260 OA
HETATM   13  C11 UNK     1      17.861  -0.662  34.620  1.00  0.00     0.090 A 
HETATM   14  C8  UNK     1      18.587  -1.359  35.587  1.00  0.00     0.006 A 
HETATM   15  C14 UNK     1      16.767   0.143  34.946  1.00  0.00     0.045 A 
HETATM   16  C12 UNK     1      18.182  -1.231  36.922  1.00  0.00     0.015 A 
HETATM   17  C16 UNK     1      17.088  -0.428  37.264  1.00  0.00     0.007 A 
HETATM   18  C15 UNK     1      16.381   0.258  36.277  1.00  0.00    -0.059 A 
HETATM   19  C19 UNK     1      15.216   1.111  36.649  1.00  0.00     0.048 C 
ENDBRANCH   7   8
ENDBRANCH   1   7
BRANCH   2  20
HETATM   20  C6  UNK     1      19.578  -8.459  36.943  1.00  0.00     0.375 C 
BRANCH  20  21
HETATM   21  C9  UNK     1      20.701  -9.427  37.273  1.00  0.00     0.250 C 
HETATM   22  O2  UNK     1      20.676 -10.157  38.258  1.00  0.00    -0.271 OA
HETATM   23  N3  UNK     1      21.702  -9.349  36.308  1.00  0.00    -0.326 N 
HETATM   24  H15 UNK     1      21.575  -8.687  35.545  1.00  0.00     0.169 HD
BRANCH  23  25
HETATM   25  C17 UNK     1      22.910 -10.086  36.256  1.00  0.00     0.035 A 
HETATM   26  C18 UNK     1      24.104  -9.499  36.676  1.00  0.00     0.036 A 
HETATM   27  C21 UNK     1      25.294 -10.226  36.624  1.00  0.00    -0.056 A 
HETATM   28  C24 UNK     1      25.289 -11.539  36.153  1.00  0.00     0.007 A 
HETATM   29  C23 UNK     1      24.095 -12.125  35.732  1.00  0.00     0.003 A 
HETATM   30  C20 UNK     1      22.906 -11.399  35.784  1.00  0.00     0.029 A 
BRANCH  27  31
HETATM   31  C22 UNK     1      26.570  -9.600  37.073  1.00  0.00     0.034 C 
HETATM   32  C25 UNK     1      27.593  -9.495  35.946  1.00  0.00     0.010 C 
ENDBRANCH  27  31
ENDBRANCH  23  25
ENDBRANCH  20  21
ENDBRANCH   2  20
TORSDOF 6
ENDMDL
MODEL 8
REMARK VINA RESULT:      -9.4      1.928      3.010
REMARK  6 active torsions:
REMARK  status: ('A' for Active; 'I' for Inactive)
REMARK    1  A    between atoms: C5_11  and  N1_4 
REMARK    2  A    between atoms: C6_12  and  N2_5 
REMARK    3  A    between atoms: C17_23  and  N3_6 
REMARK       I    between atoms: C9_15  and  N3_6 
REMARK    4  A    between atoms: C5_11  and  C7_13 
REMARK    5  A    between atoms: C6_12  and  C9_15 
REMARK    6  A    between atoms: C21_27  and  C22_28 
ROOT
HETATM    1  N1  UNK     1      19.571  -3.831  36.461  1.00  0.00     0.096 N 
HETATM    2  N2  UNK     1      18.417  -1.231  35.945  1.00  0.00     0.100 N 
HETATM    3  C1  UNK     1      18.151  -3.561  36.719  1.00  0.00     0.303 C 
HETATM    4  C2  UNK     1      20.063  -2.981  35.370  1.00  0.00     0.303 C 
HETATM    5  C3  UNK     1      17.925  -2.079  37.037  1.00  0.00     0.303 C 
HETATM    6  C4  UNK     1      19.837  -1.499  35.687  1.00  0.00     0.303 C 
ENDROOT
BRANCH   1   7
HETATM    7  C5  UNK     1      19.783  -5.244  36.156  1.00  0.00     0.312 C 
BRANCH   7   8
HETATM    8  C7  UNK     1      20.620  -5.922  37.185  1.00  0.00    -0.011 A 
HETATM    9  C10 UNK     1      21.716  -5.333  37.685  1.00  0.00     0.092 A 
HETATM   10  C13 UNK     1      22.572  -5.964  38.704  1.00  0.00     0.288 A 
HETATM   11  O1  UNK     1      22.196  -7.225  39.140  1.00  0.00    -0.275 OA
HETATM   12  O3  UNK     1      23.568  -5.396  39.137  1.00  0.00    -0.260 OA
HETATM   13  C11 UNK     1      21.050  -7.868  38.633  1.00  0.00     0.090 A 
HETATM   14  C8  UNK     1      20.246  -7.259  37.668  1.00  0.00     0.006 A 
HETATM   15  C14 UNK     1      20.767  -9.136  39.145  1.00  0.00     0.045 A 
HETATM   16  C12 UNK     1      19.124  -7.964  37.216  1.00  0.00     0.015 A 
HETATM   17  C16 UNK     1      18.828  -9.237  37.720  1.00  0.00     0.007 A 
HETATM   18  C15 UNK     1      19.648  -9.821  38.683  1.00  0.00    -0.059 A 
HETATM   19  C19 UNK     1      19.326 -11.176  39.216  1.00  0.00     0.048 C 
ENDBRANCH   7   8
ENDBRANCH   1   7
BRANCH   2  20
HETATM   20  C6  UNK     1      18.203   0.183  36.248  1.00  0.00     0.375 C 
BRANCH  20  21
HETATM   21  C9  UNK     1      17.647   0.885  35.021  1.00  0.00     0.250 C 
HETATM   22  O2  UNK     1      16.554   0.608  34.539  1.00  0.00    -0.271 OA
HETATM   23  N3  UNK     1      18.545   1.849  34.570  1.00  0.00    -0.326 N 
HETATM   24  H15 UNK     1      19.419   1.959  35.081  1.00  0.00     0.169 HD
BRANCH  23  25
HETATM   25  C17 UNK     1      18.398   2.713  33.458  1.00  0.00     0.035 A 
HETATM   26  C18 UNK     1      18.416   2.193  32.164  1.00  0.00     0.036 A 
HETATM   27  C21 UNK     1      18.272   3.046  31.068  1.00  0.00    -0.056 A 
HETATM   28  C24 UNK     1      18.110   4.416  31.268  1.00  0.00     0.007 A 
HETATM   29  C23 UNK     1      18.092   4.936  32.562  1.00  0.00     0.003 A 
HETATM   30  C20 UNK     1      18.237   4.084  33.657  1.00  0.00     0.029 A 
BRANCH  27  31
HETATM   31  C22 UNK     1      18.291   2.491  29.684  1.00  0.00     0.034 C 
HETATM   32  C25 UNK     1      19.122   1.215  29.582  1.00  0.00     0.010 C 
ENDBRANCH  27  31
ENDBRANCH  23  25
ENDBRANCH  20  21
ENDBRANCH   2  20
TORSDOF 6
ENDMDL
MODEL 9
REMARK VINA RESULT:      -9.2      1.823      2.426
REMARK  6 active torsions:
REMARK  status: ('A' for Active; 'I' for Inactive)
REMARK    1  A    between atoms: C5_11  and  N1_4 
REMARK    2  A    between atoms: C6_12  and  N2_5 
REMARK    3  A    between atoms: C17_23  and  N3_6 
REMARK       I    between atoms: C9_15  and  N3_6 
REMARK    4  A    between atoms: C5_11  and  C7_13 
REMARK    5  A    between atoms: C6_12  and  C9_15 
REMARK    6  A    between atoms: C21_27  and  C22_28 
ROOT
HETATM    1  N1  UNK     1      19.539  -3.761  36.465  1.00  0.00     0.096 N 
HETATM    2  N2  UNK     1      18.372  -1.158  35.991  1.00  0.00     0.100 N 
HETATM    3  C1  UNK     1      18.142  -3.476  36.814  1.00  0.00     0.303 C 
HETATM    4  C2  UNK     1      19.963  -2.930  35.332  1.00  0.00     0.303 C 
HETATM    5  C3  UNK     1      17.948  -1.989  37.125  1.00  0.00     0.303 C 
HETATM    6  C4  UNK     1      19.770  -1.442  35.642  1.00  0.00     0.303 C 
ENDROOT
BRANCH   1   7
HETATM    7  C5  UNK     1      19.721  -5.180  36.166  1.00  0.00     0.312 C 
BRANCH   7   8
HETATM    8  C7  UNK     1      20.573  -5.863  37.178  1.00  0.00    -0.011 A 
HETATM    9  C10 UNK     1      21.673  -5.276  37.668  1.00  0.00     0.092 A 
HETATM   10  C13 UNK     1      22.545  -5.913  38.670  1.00  0.00     0.288 A 
HETATM   11  O1  UNK     1      22.178  -7.177  39.102  1.00  0.00    -0.275 OA
HETATM   12  O3  UNK     1      23.545  -5.345  39.095  1.00  0.00    -0.260 OA
HETATM   13  C11 UNK     1      21.026  -7.820  38.605  1.00  0.00     0.090 A 
HETATM   14  C8  UNK     1      20.208  -7.205  37.655  1.00  0.00     0.006 A 
HETATM   15  C14 UNK     1      20.753  -9.093  39.111  1.00  0.00     0.045 A 
HETATM   16  C12 UNK     1      19.082  -7.910  37.212  1.00  0.00     0.015 A 
HETATM   17  C16 UNK     1      18.795  -9.187  37.710  1.00  0.00     0.007 A 
HETATM   18  C15 UNK     1      19.630  -9.777  38.658  1.00  0.00    -0.059 A 
HETATM   19  C19 UNK     1      19.318 -11.136  39.184  1.00  0.00     0.048 C 
ENDBRANCH   7   8
ENDBRANCH   1   7
BRANCH   2  20
HETATM   20  C6  UNK     1      18.188   0.261  36.288  1.00  0.00     0.375 C 
BRANCH  20  21
HETATM   21  C9  UNK     1      17.674   0.975  35.050  1.00  0.00     0.250 C 
HETATM   22  O2  UNK     1      16.653   0.630  34.465  1.00  0.00    -0.271 OA
HETATM   23  N3  UNK     1      18.517   2.034  34.721  1.00  0.00    -0.326 N 
HETATM   24  H15 UNK     1      19.333   2.191  35.308  1.00  0.00     0.169 HD
BRANCH  23  25
HETATM   25  C17 UNK     1      18.384   2.938  33.639  1.00  0.00     0.035 A 
HETATM   26  C18 UNK     1      18.306   4.310  33.882  1.00  0.00     0.036 A 
HETATM   27  C21 UNK     1      18.175   5.200  32.815  1.00  0.00    -0.056 A 
HETATM   28  C24 UNK     1      18.122   4.718  31.508  1.00  0.00     0.007 A 
HETATM   29  C23 UNK     1      18.199   3.347  31.265  1.00  0.00     0.003 A 
HETATM   30  C20 UNK     1      18.330   2.457  32.331  1.00  0.00     0.029 A 
BRANCH  27  31
HETATM   31  C22 UNK     1      18.092   6.666  33.074  1.00  0.00     0.034 C 
HETATM   32  C25 UNK     1      19.460   7.286  33.342  1.00  0.00     0.010 C 
ENDBRANCH  27  31
ENDBRANCH  23  25
ENDBRANCH  20  21
ENDBRANCH   2  20
TORSDOF 6
ENDMDL
MODEL 10
REMARK VINA RESULT:      -9.1     14.241     17.595
REMARK  6 active torsions:
REMARK  status: ('A' for Active; 'I' for Inactive)
REMARK    1  A    between atoms: C5_11  and  N1_4 
REMARK    2  A    between atoms: C6_12  and  N2_5 
REMARK    3  A    between atoms: C17_23  and  N3_6 
REMARK       I    between atoms: C9_15  and  N3_6 
REMARK    4  A    between atoms: C5_11  and  C7_13 
REMARK    5  A    between atoms: C6_12  and  C9_15 
REMARK    6  A    between atoms: C21_27  and  C22_28 
ROOT
HETATM    1  N1  UNK     1      32.169  -5.972  35.946  1.00  0.00     0.096 N 
HETATM    2  N2  UNK     1      34.767  -6.571  34.828  1.00  0.00     0.100 N 
HETATM    3  C1  UNK     1      33.013  -4.918  35.369  1.00  0.00     0.303 C 
HETATM    4  C2  UNK     1      32.440  -7.259  35.295  1.00  0.00     0.303 C 
HETATM    5  C3  UNK     1      34.497  -5.284  35.481  1.00  0.00     0.303 C 
HETATM    6  C4  UNK     1      33.924  -7.626  35.405  1.00  0.00     0.303 C 
ENDROOT
BRANCH   1   7
HETATM    7  C5  UNK     1      30.754  -5.622  35.836  1.00  0.00     0.312 C 
BRANCH   7   8
HETATM    8  C7  UNK     1      30.075  -5.602  37.161  1.00  0.00    -0.011 A 
HETATM    9  C10 UNK     1      30.107  -4.511  37.940  1.00  0.00     0.092 A 
HETATM   10  C13 UNK     1      29.449  -4.445  39.256  1.00  0.00     0.288 A 
HETATM   11  O1  UNK     1      28.777  -5.582  39.674  1.00  0.00    -0.275 OA
HETATM   12  O3  UNK     1      29.501  -3.430  39.942  1.00  0.00    -0.260 OA
HETATM   13  C11 UNK     1      28.725  -6.743  38.877  1.00  0.00     0.090 A 
HETATM   14  C8  UNK     1      29.353  -6.792  37.631  1.00  0.00     0.006 A 
HETATM   15  C14 UNK     1      28.019  -7.829  39.399  1.00  0.00     0.045 A 
HETATM   16  C12 UNK     1      29.255  -7.983  36.900  1.00  0.00     0.015 A 
HETATM   17  C16 UNK     1      28.551  -9.080  37.410  1.00  0.00     0.007 A 
HETATM   18  C15 UNK     1      27.934  -9.003  38.658  1.00  0.00    -0.059 A 
HETATM   19  C19 UNK     1      27.185 -10.175  39.195  1.00  0.00     0.048 C 
ENDBRANCH   7   8
ENDBRANCH   1   7
BRANCH   2  20
HETATM   20  C6  UNK     1      36.182  -6.921  34.936  1.00  0.00     0.375 C 
BRANCH  20  21
HETATM   21  C9  UNK     1      36.587  -7.763  33.738  1.00  0.00     0.250 C 
HETATM   22  O2  UNK     1      36.604  -7.320  32.595  1.00  0.00    -0.271 OA
HETATM   23  N3  UNK     1      36.925  -9.051  34.148  1.00  0.00    -0.326 N 
HETATM   24  H15 UNK     1      36.857  -9.265  35.141  1.00  0.00     0.169 HD
BRANCH  23  25
HETATM   25  C17 UNK     1      37.352 -10.130  33.338  1.00  0.00     0.035 A 
HETATM   26  C18 UNK     1      38.612 -10.096  32.738  1.00  0.00     0.036 A 
HETATM   27  C21 UNK     1      39.032 -11.160  31.939  1.00  0.00    -0.056 A 
HETATM   28  C24 UNK     1      38.193 -12.256  31.740  1.00  0.00     0.007 A 
HETATM   29  C23 UNK     1      36.934 -12.290  32.339  1.00  0.00     0.003 A 
HETATM   30  C20 UNK     1      36.514 -11.226  33.138  1.00  0.00     0.029 A 
BRANCH  27  31
HETATM   31  C22 UNK     1      40.378 -11.125  31.298  1.00  0.00     0.034 C 
HETATM   32  C25 UNK     1      41.474 -10.705  32.273  1.00  0.00     0.010 C 
ENDBRANCH  27  31
ENDBRANCH  23  25
ENDBRANCH  20  21
ENDBRANCH   2  20
TORSDOF 6
ENDMDL
