MODEL 1
REMARK VINA RESULT:      -8.1      0.000      0.000
REMARK  1 active torsions:
REMARK  status: ('A' for Active; 'I' for Inactive)
REMARK       I    between atoms: C8_12  and  N1_4 
REMARK    1  A    between atoms: C8_12  and  C9_13 
ROOT
HETATM    1  O2  UNK     1      10.772   5.470   9.259  1.00  0.00    -0.274 OA
HETATM    2  O3  UNK     1      12.445   5.173  10.788  1.00  0.00    -0.259 OA
HETATM    3  C9  UNK     1      13.056   6.159   8.723  1.00  0.00     0.108 A 
HETATM    4  C10 UNK     1      12.673   6.587   7.514  1.00  0.00     0.037 A 
HETATM    5  C11 UNK     1      12.097   5.564   9.680  1.00  0.00     0.304 A 
HETATM    6  C12 UNK     1      11.282   6.474   7.105  1.00  0.00    -0.001 A 
HETATM    7  C13 UNK     1      10.363   5.918   7.989  1.00  0.00     0.089 A 
HETATM    8  C14 UNK     1      10.836   6.907   5.853  1.00  0.00     0.014 A 
HETATM    9  C15 UNK     1       9.016   5.782   7.658  1.00  0.00     0.038 A 
HETATM   10  C16 UNK     1       9.489   6.777   5.507  1.00  0.00     0.001 A 
HETATM   11  C17 UNK     1       8.581   6.216   6.408  1.00  0.00     0.003 A 
ENDROOT
BRANCH   3  12
HETATM   12  C8  UNK     1      14.490   6.317   9.047  1.00  0.00     0.259 C 
HETATM   13  O1  UNK     1      15.280   5.550   8.495  1.00  0.00    -0.267 OA
HETATM   14  N1  UNK     1      14.856   7.318   9.956  1.00  0.00    -0.348 N 
HETATM   15  C6  UNK     1      16.282   7.466  10.274  1.00  0.00     0.126 C 
HETATM   16  C7  UNK     1      13.905   8.136  10.725  1.00  0.00     0.126 C 
HETATM   17  C4  UNK     1      16.805   8.896  10.403  1.00  0.00     0.020 C 
HETATM   18  C2  UNK     1      16.742   9.726   9.123  1.00  0.00     0.002 C 
HETATM   19  C1  UNK     1      15.356   9.964   8.521  1.00  0.00     0.000 C 
HETATM   20  C3  UNK     1      14.288  10.410   9.524  1.00  0.00     0.002 C 
HETATM   21  C5  UNK     1      13.311   9.304   9.933  1.00  0.00     0.020 C 
ENDBRANCH   3  12
TORSDOF 1
ENDMDL
MODEL 2
REMARK VINA RESULT:      -7.9      1.214      2.007
REMARK  1 active torsions:
REMARK  status: ('A' for Active; 'I' for Inactive)
REMARK       I    between atoms: C8_12  and  N1_4 
REMARK    1  A    between atoms: C8_12  and  C9_13 
ROOT
HETATM    1  O2  UNK     1      11.753   6.745   6.273  1.00  0.00    -0.274 OA
HETATM    2  O3  UNK     1      14.024   7.006   6.320  1.00  0.00    -0.259 OA
HETATM    3  C9  UNK     1      12.994   6.285   8.329  1.00  0.00     0.108 A 
HETATM    4  C10 UNK     1      11.866   5.958   8.969  1.00  0.00     0.037 A 
HETATM    5  C11 UNK     1      12.992   6.707   6.910  1.00  0.00     0.304 A 
HETATM    6  C12 UNK     1      10.588   6.009   8.275  1.00  0.00    -0.001 A 
HETATM    7  C13 UNK     1      10.563   6.402   6.940  1.00  0.00     0.089 A 
HETATM    8  C14 UNK     1       9.385   5.677   8.903  1.00  0.00     0.014 A 
HETATM    9  C15 UNK     1       9.373   6.472   6.219  1.00  0.00     0.038 A 
HETATM   10  C16 UNK     1       8.184   5.742   8.192  1.00  0.00     0.001 A 
HETATM   11  C17 UNK     1       8.178   6.139   6.853  1.00  0.00     0.003 A 
ENDROOT
BRANCH   3  12
HETATM   12  C8  UNK     1      14.241   6.201   9.118  1.00  0.00     0.259 C 
HETATM   13  O1  UNK     1      15.012   5.276   8.857  1.00  0.00    -0.267 OA
HETATM   14  N1  UNK     1      14.463   7.167  10.108  1.00  0.00    -0.348 N 
HETATM   15  C6  UNK     1      15.703   7.073  10.890  1.00  0.00     0.126 C 
HETATM   16  C7  UNK     1      13.480   8.181  10.521  1.00  0.00     0.126 C 
HETATM   17  C4  UNK     1      16.409   8.391  11.204  1.00  0.00     0.020 C 
HETATM   18  C2  UNK     1      16.932   9.150   9.987  1.00  0.00     0.002 C 
HETATM   19  C1  UNK     1      15.896   9.601   8.956  1.00  0.00     0.000 C 
HETATM   20  C3  UNK     1      14.658  10.283   9.545  1.00  0.00     0.002 C 
HETATM   21  C5  UNK     1      13.412   9.393   9.588  1.00  0.00     0.020 C 
ENDBRANCH   3  12
TORSDOF 1
ENDMDL
MODEL 3
REMARK VINA RESULT:      -7.7     23.596     25.812
REMARK  1 active torsions:
REMARK  status: ('A' for Active; 'I' for Inactive)
REMARK       I    between atoms: C8_12  and  N1_4 
REMARK    1  A    between atoms: C8_12  and  C9_13 
ROOT
HETATM    1  O2  UNK     1      14.109   9.771  34.615  1.00  0.00    -0.274 OA
HETATM    2  O3  UNK     1      13.815   7.883  33.362  1.00  0.00    -0.259 OA
HETATM    3  C9  UNK     1      15.887   9.005  33.121  1.00  0.00     0.108 A 
HETATM    4  C10 UNK     1      16.668  10.031  33.480  1.00  0.00     0.037 A 
HETATM    5  C11 UNK     1      14.532   8.822  33.687  1.00  0.00     0.304 A 
HETATM    6  C12 UNK     1      16.196  11.007  34.451  1.00  0.00    -0.001 A 
HETATM    7  C13 UNK     1      14.925  10.853  34.997  1.00  0.00     0.089 A 
HETATM    8  C14 UNK     1      16.976  12.093  34.856  1.00  0.00     0.014 A 
HETATM    9  C15 UNK     1      14.414  11.751  35.931  1.00  0.00     0.038 A 
HETATM   10  C16 UNK     1      16.477  13.002  35.792  1.00  0.00     0.001 A 
HETATM   11  C17 UNK     1      15.199  12.831  36.328  1.00  0.00     0.003 A 
ENDROOT
BRANCH   3  12
HETATM   12  C8  UNK     1      16.455   8.068  32.130  1.00  0.00     0.259 C 
HETATM   13  O1  UNK     1      16.352   8.375  30.941  1.00  0.00    -0.267 OA
HETATM   14  N1  UNK     1      17.068   6.899  32.600  1.00  0.00    -0.348 N 
HETATM   15  C6  UNK     1      17.627   5.973  31.607  1.00  0.00     0.126 C 
HETATM   16  C7  UNK     1      17.063   6.461  34.004  1.00  0.00     0.126 C 
HETATM   17  C4  UNK     1      18.966   5.327  31.960  1.00  0.00     0.020 C 
HETATM   18  C2  UNK     1      20.138   6.298  32.092  1.00  0.00     0.002 C 
HETATM   19  C1  UNK     1      20.027   7.373  33.174  1.00  0.00     0.000 C 
HETATM   20  C3  UNK     1      19.575   6.860  34.544  1.00  0.00     0.002 C 
HETATM   21  C5  UNK     1      18.110   7.162  34.875  1.00  0.00     0.020 C 
ENDBRANCH   3  12
TORSDOF 1
ENDMDL
MODEL 4
REMARK VINA RESULT:      -7.6     35.398     36.769
REMARK  1 active torsions:
REMARK  status: ('A' for Active; 'I' for Inactive)
REMARK       I    between atoms: C8_12  and  N1_4 
REMARK    1  A    between atoms: C8_12  and  C9_13 
ROOT
HETATM    1  O2  UNK     1      30.560  -9.064  38.400  1.00  0.00    -0.274 OA
HETATM    2  O3  UNK     1      32.648  -8.272  37.914  1.00  0.00    -0.259 OA
HETATM    3  C9  UNK     1      30.927  -6.661  38.140  1.00  0.00     0.108 A 
HETATM    4  C10 UNK     1      29.635  -6.409  38.385  1.00  0.00     0.037 A 
HETATM    5  C11 UNK     1      31.466  -8.039  38.136  1.00  0.00     0.304 A 
HETATM    6  C12 UNK     1      28.715  -7.502  38.657  1.00  0.00    -0.001 A 
HETATM    7  C13 UNK     1      29.201  -8.807  38.658  1.00  0.00     0.089 A 
HETATM    8  C14 UNK     1      27.359  -7.288  38.917  1.00  0.00     0.014 A 
HETATM    9  C15 UNK     1      28.372  -9.898  38.911  1.00  0.00     0.038 A 
HETATM   10  C16 UNK     1      26.516  -8.372  39.173  1.00  0.00     0.001 A 
HETATM   11  C17 UNK     1      27.022  -9.675  39.170  1.00  0.00     0.003 A 
ENDROOT
BRANCH   3  12
HETATM   12  C8  UNK     1      31.782  -5.484  37.876  1.00  0.00     0.259 C 
HETATM   13  O1  UNK     1      32.333  -4.959  38.846  1.00  0.00    -0.267 OA
HETATM   14  N1  UNK     1      31.908  -5.042  36.553  1.00  0.00    -0.348 N 
HETATM   15  C6  UNK     1      32.757  -3.870  36.302  1.00  0.00     0.126 C 
HETATM   16  C7  UNK     1      31.139  -5.574  35.418  1.00  0.00     0.126 C 
HETATM   17  C4  UNK     1      33.635  -3.924  35.052  1.00  0.00     0.020 C 
HETATM   18  C2  UNK     1      34.702  -5.016  35.057  1.00  0.00     0.002 C 
HETATM   19  C1  UNK     1      34.211  -6.462  35.143  1.00  0.00     0.000 C 
HETATM   20  C3  UNK     1      33.066  -6.809  34.187  1.00  0.00     0.002 C 
HETATM   21  C5  UNK     1      31.691  -6.887  34.857  1.00  0.00     0.020 C 
ENDBRANCH   3  12
TORSDOF 1
ENDMDL
MODEL 5
REMARK VINA RESULT:      -7.5      1.785      6.110
REMARK  1 active torsions:
REMARK  status: ('A' for Active; 'I' for Inactive)
REMARK       I    between atoms: C8_12  and  N1_4 
REMARK    1  A    between atoms: C8_12  and  C9_13 
ROOT
HETATM    1  O2  UNK     1      17.031   8.853   9.803  1.00  0.00    -0.274 OA
HETATM    2  O3  UNK     1      16.221   7.062  10.969  1.00  0.00    -0.259 OA
HETATM    3  C9  UNK     1      14.629   8.396   9.829  1.00  0.00     0.108 A 
HETATM    4  C10 UNK     1      14.391   9.457   9.049  1.00  0.00     0.037 A 
HETATM    5  C11 UNK     1      15.999   8.034  10.256  1.00  0.00     0.304 A 
HETATM    6  C12 UNK     1      15.491  10.294   8.594  1.00  0.00    -0.001 A 
HETATM    7  C13 UNK     1      16.788   9.971   8.982  1.00  0.00     0.089 A 
HETATM    8  C14 UNK     1      15.290  11.411   7.779  1.00  0.00     0.014 A 
HETATM    9  C15 UNK     1      17.884  10.730   8.581  1.00  0.00     0.038 A 
HETATM   10  C16 UNK     1      16.380  12.182   7.368  1.00  0.00     0.001 A 
HETATM   11  C17 UNK     1      17.675  11.842   7.768  1.00  0.00     0.003 A 
ENDROOT
BRANCH   3  12
HETATM   12  C8  UNK     1      13.447   7.609  10.239  1.00  0.00     0.259 C 
HETATM   13  O1  UNK     1      12.833   7.992  11.236  1.00  0.00    -0.267 OA
HETATM   14  N1  UNK     1      13.105   6.485   9.476  1.00  0.00    -0.348 N 
HETATM   15  C6  UNK     1      11.931   5.707   9.892  1.00  0.00     0.126 C 
HETATM   16  C7  UNK     1      13.918   5.943   8.376  1.00  0.00     0.126 C 
HETATM   17  C4  UNK     1      11.026   5.194   8.774  1.00  0.00     0.020 C 
HETATM   18  C2  UNK     1      10.334   6.279   7.951  1.00  0.00     0.002 C 
HETATM   19  C1  UNK     1      11.237   7.248   7.187  1.00  0.00     0.000 C 
HETATM   20  C3  UNK     1      12.365   6.584   6.393  1.00  0.00     0.002 C 
HETATM   21  C5  UNK     1      13.744   6.690   7.051  1.00  0.00     0.020 C 
ENDBRANCH   3  12
TORSDOF 1
ENDMDL
MODEL 6
REMARK VINA RESULT:      -7.5     24.020     26.222
REMARK  1 active torsions:
REMARK  status: ('A' for Active; 'I' for Inactive)
REMARK       I    between atoms: C8_12  and  N1_4 
REMARK    1  A    between atoms: C8_12  and  C9_13 
ROOT
HETATM    1  O2  UNK     1      16.964  11.708  34.726  1.00  0.00    -0.274 OA
HETATM    2  O3  UNK     1      18.277  10.429  33.360  1.00  0.00    -0.259 OA
HETATM    3  C9  UNK     1      16.001   9.798  33.541  1.00  0.00     0.108 A 
HETATM    4  C10 UNK     1      14.798  10.038  34.076  1.00  0.00     0.037 A 
HETATM    5  C11 UNK     1      17.174  10.645  33.850  1.00  0.00     0.304 A 
HETATM    6  C12 UNK     1      14.611  11.155  34.989  1.00  0.00    -0.001 A 
HETATM    7  C13 UNK     1      15.701  11.966  35.292  1.00  0.00     0.089 A 
HETATM    8  C14 UNK     1      13.374  11.443  35.571  1.00  0.00     0.014 A 
HETATM    9  C15 UNK     1      15.589  13.051  36.158  1.00  0.00     0.038 A 
HETATM   10  C16 UNK     1      13.247  12.529  36.441  1.00  0.00     0.001 A 
HETATM   11  C17 UNK     1      14.352  13.331  36.734  1.00  0.00     0.003 A 
ENDROOT
BRANCH   3  12
HETATM   12  C8  UNK     1      16.090   8.641  32.626  1.00  0.00     0.259 C 
HETATM   13  O1  UNK     1      15.781   8.829  31.448  1.00  0.00    -0.267 OA
HETATM   14  N1  UNK     1      16.512   7.413  33.151  1.00  0.00    -0.348 N 
HETATM   15  C6  UNK     1      16.593   6.268  32.234  1.00  0.00     0.126 C 
HETATM   16  C7  UNK     1      16.739   7.150  34.580  1.00  0.00     0.126 C 
HETATM   17  C4  UNK     1      17.794   5.340  32.413  1.00  0.00     0.020 C 
HETATM   18  C2  UNK     1      19.153   5.981  32.142  1.00  0.00     0.002 C 
HETATM   19  C1  UNK     1      19.550   7.161  33.030  1.00  0.00     0.000 C 
HETATM   20  C3  UNK     1      19.330   6.940  34.529  1.00  0.00     0.002 C 
HETATM   21  C5  UNK     1      18.094   7.647  35.093  1.00  0.00     0.020 C 
ENDBRANCH   3  12
TORSDOF 1
ENDMDL
MODEL 7
REMARK VINA RESULT:      -7.4      1.890      5.994
REMARK  1 active torsions:
REMARK  status: ('A' for Active; 'I' for Inactive)
REMARK       I    between atoms: C8_12  and  N1_4 
REMARK    1  A    between atoms: C8_12  and  C9_13 
ROOT
HETATM    1  O2  UNK     1      14.060   7.222  10.833  1.00  0.00    -0.274 OA
HETATM    2  O3  UNK     1      12.537   5.560  10.457  1.00  0.00    -0.259 OA
HETATM    3  C9  UNK     1      13.041   6.973   8.624  1.00  0.00     0.108 A 
HETATM    4  C10 UNK     1      13.738   8.015   8.155  1.00  0.00     0.037 A 
HETATM    5  C11 UNK     1      13.173   6.514  10.025  1.00  0.00     0.304 A 
HETATM    6  C12 UNK     1      14.656   8.734   9.025  1.00  0.00    -0.001 A 
HETATM    7  C13 UNK     1      14.796   8.319  10.346  1.00  0.00     0.089 A 
HETATM    8  C14 UNK     1      15.404   9.827   8.579  1.00  0.00     0.014 A 
HETATM    9  C15 UNK     1      15.658   8.964  11.230  1.00  0.00     0.038 A 
HETATM   10  C16 UNK     1      16.273  10.483   9.454  1.00  0.00     0.001 A 
HETATM   11  C17 UNK     1      16.400  10.052  10.777  1.00  0.00     0.003 A 
ENDROOT
BRANCH   3  12
HETATM   12  C8  UNK     1      12.136   6.308   7.663  1.00  0.00     0.259 C 
HETATM   13  O1  UNK     1      12.500   5.224   7.203  1.00  0.00    -0.267 OA
HETATM   14  N1  UNK     1      10.933   6.948   7.336  1.00  0.00    -0.348 N 
HETATM   15  C6  UNK     1      10.042   6.281   6.379  1.00  0.00     0.126 C 
HETATM   16  C7  UNK     1      10.565   8.304   7.769  1.00  0.00     0.126 C 
HETATM   17  C4  UNK     1       8.546   6.346   6.685  1.00  0.00     0.020 C 
HETATM   18  C2  UNK     1       8.117   5.639   7.968  1.00  0.00     0.002 C 
HETATM   19  C1  UNK     1       8.715   6.157   9.277  1.00  0.00     0.000 C 
HETATM   20  C3  UNK     1       8.676   7.678   9.442  1.00  0.00     0.002 C 
HETATM   21  C5  UNK     1      10.020   8.371   9.199  1.00  0.00     0.020 C 
ENDBRANCH   3  12
TORSDOF 1
ENDMDL
MODEL 8
REMARK VINA RESULT:      -7.4     31.043     33.803
REMARK  1 active torsions:
REMARK  status: ('A' for Active; 'I' for Inactive)
REMARK       I    between atoms: C8_12  and  N1_4 
REMARK    1  A    between atoms: C8_12  and  C9_13 
ROOT
HETATM    1  O2  UNK     1      28.550  -7.507  36.462  1.00  0.00    -0.274 OA
HETATM    2  O3  UNK     1      28.542  -8.849  34.611  1.00  0.00    -0.259 OA
HETATM    3  C9  UNK     1      30.079  -7.047  34.611  1.00  0.00     0.108 A 
HETATM    4  C10 UNK     1      30.586  -5.989  35.257  1.00  0.00     0.037 A 
HETATM    5  C11 UNK     1      29.007  -7.879  35.199  1.00  0.00     0.304 A 
HETATM    6  C12 UNK     1      30.086  -5.627  36.574  1.00  0.00    -0.001 A 
HETATM    7  C13 UNK     1      29.079  -6.397  37.147  1.00  0.00     0.089 A 
HETATM    8  C14 UNK     1      30.585  -4.533  37.285  1.00  0.00     0.014 A 
HETATM    9  C15 UNK     1      28.556  -6.104  38.404  1.00  0.00     0.038 A 
HETATM   10  C16 UNK     1      30.072  -4.226  38.548  1.00  0.00     0.001 A 
HETATM   11  C17 UNK     1      29.059  -5.011  39.106  1.00  0.00     0.003 A 
ENDROOT
BRANCH   3  12
HETATM   12  C8  UNK     1      30.653  -7.334  33.279  1.00  0.00     0.259 C 
HETATM   13  O1  UNK     1      31.567  -8.159  33.225  1.00  0.00    -0.267 OA
HETATM   14  N1  UNK     1      30.128  -6.655  32.172  1.00  0.00    -0.348 N 
HETATM   15  C6  UNK     1      30.706  -6.945  30.854  1.00  0.00     0.126 C 
HETATM   16  C7  UNK     1      29.141  -5.567  32.252  1.00  0.00     0.126 C 
HETATM   17  C4  UNK     1      29.724  -7.042  29.688  1.00  0.00     0.020 C 
HETATM   18  C2  UNK     1      28.718  -8.187  29.783  1.00  0.00     0.002 C 
HETATM   19  C1  UNK     1      27.766  -8.174  30.980  1.00  0.00     0.000 C 
HETATM   20  C3  UNK     1      27.096  -6.825  31.253  1.00  0.00     0.002 C 
HETATM   21  C5  UNK     1      27.699  -6.051  32.430  1.00  0.00     0.020 C 
ENDBRANCH   3  12
TORSDOF 1
ENDMDL
MODEL 9
REMARK VINA RESULT:      -7.4     35.103     36.650
REMARK  1 active torsions:
REMARK  status: ('A' for Active; 'I' for Inactive)
REMARK       I    between atoms: C8_12  and  N1_4 
REMARK    1  A    between atoms: C8_12  and  C9_13 
ROOT
HETATM    1  O2  UNK     1      28.295  -5.816  38.588  1.00  0.00    -0.274 OA
HETATM    2  O3  UNK     1      29.529  -3.948  38.131  1.00  0.00    -0.259 OA
HETATM    3  C9  UNK     1      30.683  -6.017  38.102  1.00  0.00     0.108 A 
HETATM    4  C10 UNK     1      30.630  -7.346  38.251  1.00  0.00     0.037 A 
HETATM    5  C11 UNK     1      29.484  -5.165  38.268  1.00  0.00     0.304 A 
HETATM    6  C12 UNK     1      29.372  -7.996  38.586  1.00  0.00    -0.001 A 
HETATM    7  C13 UNK     1      28.232  -7.214  38.746  1.00  0.00     0.089 A 
HETATM    8  C14 UNK     1      29.269  -9.379  38.752  1.00  0.00     0.014 A 
HETATM    9  C15 UNK     1      26.997  -7.774  39.067  1.00  0.00     0.038 A 
HETATM   10  C16 UNK     1      28.037  -9.956  39.073  1.00  0.00     0.001 A 
HETATM   11  C17 UNK     1      26.904  -9.154  39.230  1.00  0.00     0.003 A 
ENDROOT
BRANCH   3  12
HETATM   12  C8  UNK     1      32.005  -5.450  37.761  1.00  0.00     0.259 C 
HETATM   13  O1  UNK     1      32.741  -5.135  38.698  1.00  0.00    -0.267 OA
HETATM   14  N1  UNK     1      32.333  -5.307  36.407  1.00  0.00    -0.348 N 
HETATM   15  C6  UNK     1      33.648  -4.741  36.079  1.00  0.00     0.126 C 
HETATM   16  C7  UNK     1      31.404  -5.546  35.292  1.00  0.00     0.126 C 
HETATM   17  C4  UNK     1      34.389  -5.381  34.905  1.00  0.00     0.020 C 
HETATM   18  C2  UNK     1      34.784  -6.842  35.109  1.00  0.00     0.002 C 
HETATM   19  C1  UNK     1      33.647  -7.841  35.329  1.00  0.00     0.000 C 
HETATM   20  C3  UNK     1      32.481  -7.714  34.346  1.00  0.00     0.002 C 
HETATM   21  C5  UNK     1      31.243  -7.024  34.926  1.00  0.00     0.020 C 
ENDBRANCH   3  12
TORSDOF 1
ENDMDL
MODEL 10
REMARK VINA RESULT:      -7.4     35.005     36.477
REMARK  1 active torsions:
REMARK  status: ('A' for Active; 'I' for Inactive)
REMARK       I    between atoms: C8_12  and  N1_4 
REMARK    1  A    between atoms: C8_12  and  C9_13 
ROOT
HETATM    1  O2  UNK     1      28.112  -7.200  36.805  1.00  0.00    -0.274 OA
HETATM    2  O3  UNK     1      29.551  -6.227  35.320  1.00  0.00    -0.259 OA
HETATM    3  C9  UNK     1      30.459  -7.885  36.748  1.00  0.00     0.108 A 
HETATM    4  C10 UNK     1      30.254  -8.767  37.733  1.00  0.00     0.037 A 
HETATM    5  C11 UNK     1      29.367  -7.035  36.223  1.00  0.00     0.304 A 
HETATM    6  C12 UNK     1      28.931  -8.915  38.321  1.00  0.00    -0.001 A 
HETATM    7  C13 UNK     1      27.889  -8.127  37.841  1.00  0.00     0.089 A 
HETATM    8  C14 UNK     1      28.670  -9.823  39.350  1.00  0.00     0.014 A 
HETATM    9  C15 UNK     1      26.600  -8.220  38.360  1.00  0.00     0.038 A 
HETATM   10  C16 UNK     1      27.382  -9.928  39.881  1.00  0.00     0.001 A 
HETATM   11  C17 UNK     1      26.349  -9.127  39.387  1.00  0.00     0.003 A 
ENDROOT
BRANCH   3  12
HETATM   12  C8  UNK     1      31.836  -7.809  36.216  1.00  0.00     0.259 C 
HETATM   13  O1  UNK     1      32.133  -8.588  35.309  1.00  0.00    -0.267 OA
HETATM   14  N1  UNK     1      32.709  -6.866  36.774  1.00  0.00    -0.348 N 
HETATM   15  C6  UNK     1      34.076  -6.800  36.241  1.00  0.00     0.126 C 
HETATM   16  C7  UNK     1      32.403  -6.037  37.950  1.00  0.00     0.126 C 
HETATM   17  C4  UNK     1      34.671  -5.403  36.069  1.00  0.00     0.020 C 
HETATM   18  C2  UNK     1      33.957  -4.517  35.051  1.00  0.00     0.002 C 
HETATM   19  C1  UNK     1      32.490  -4.187  35.329  1.00  0.00     0.000 C 
HETATM   20  C3  UNK     1      32.193  -3.735  36.761  1.00  0.00     0.002 C 
HETATM   21  C5  UNK     1      31.542  -4.810  37.637  1.00  0.00     0.020 C 
ENDBRANCH   3  12
TORSDOF 1
ENDMDL
