MODEL 1
REMARK VINA RESULT:      -8.6      0.000      0.000
REMARK  4 active torsions:
REMARK  status: ('A' for Active; 'I' for Inactive)
REMARK    1  A    between atoms: C5_10  and  O2_2 
REMARK    2  A    between atoms: C13_18  and  O3_3 
REMARK    3  A    between atoms: C14_19  and  O4_4 
REMARK    4  A    between atoms: C3_8  and  C4_9 
ROOT
HETATM    1  O1  UNK     1      16.880   7.469  32.306  1.00  0.00    -0.306 OA
HETATM    2  O5  UNK     1      19.698   9.415  34.516  1.00  0.00    -0.284 OA
HETATM    3  C1  UNK     1      17.490   9.370  33.685  1.00  0.00     0.051 A 
HETATM    4  C2  UNK     1      16.574   8.658  32.915  1.00  0.00     0.091 A 
HETATM    5  C3  UNK     1      18.155   6.950  32.471  1.00  0.00     0.123 A 
HETATM    6  C5  UNK     1      19.133   7.542  33.181  1.00  0.00     0.152 A 
HETATM    7  C6  UNK     1      18.848   8.831  33.856  1.00  0.00     0.220 A 
HETATM    8  C7  UNK     1      15.281   9.150  32.737  1.00  0.00     0.045 A 
HETATM    9  C8  UNK     1      14.909  10.355  33.332  1.00  0.00    -0.059 A 
HETATM   10  C9  UNK     1      17.121  10.578  34.284  1.00  0.00     0.019 A 
HETATM   11  C11 UNK     1      15.827  11.068  34.104  1.00  0.00     0.008 A 
HETATM   12  C16 UNK     1      13.527  10.885  33.143  1.00  0.00     0.048 C 
ENDROOT
BRANCH   5  13
HETATM   13  C4  UNK     1      18.351   5.671  31.765  1.00  0.00     0.004 A 
HETATM   14  C10 UNK     1      17.991   4.472  32.380  1.00  0.00     0.054 A 
HETATM   15  C13 UNK     1      18.178   3.261  31.712  1.00  0.00     0.102 A 
HETATM   16  C14 UNK     1      18.726   3.250  30.430  1.00  0.00     0.101 A 
HETATM   17  C15 UNK     1      19.085   4.450  29.814  1.00  0.00     0.040 A 
HETATM   18  C12 UNK     1      18.898   5.659  30.482  1.00  0.00     0.017 A 
BRANCH  15  19
HETATM   19  O3  UNK     1      17.823   2.097  32.324  1.00  0.00    -0.353 OA
HETATM   20  C17 UNK     1      18.119   1.980  33.715  1.00  0.00     0.210 C 
ENDBRANCH  15  19
BRANCH  16  21
HETATM   21  O4  UNK     1      18.912   2.075  29.767  1.00  0.00    -0.353 OA
HETATM   22  C18 UNK     1      17.975   1.754  28.741  1.00  0.00     0.210 C 
ENDBRANCH  16  21
ENDBRANCH   5  13
BRANCH   6  23
HETATM   23  O2  UNK     1      20.401   7.015  33.299  1.00  0.00    -0.355 OA
HETATM   24  H10 UNK     1      20.985   7.409  32.632  1.00  0.00     0.218 HD
ENDBRANCH   6  23
TORSDOF 4
ENDMDL
MODEL 2
REMARK VINA RESULT:      -8.2      1.935      7.559
REMARK  4 active torsions:
REMARK  status: ('A' for Active; 'I' for Inactive)
REMARK    1  A    between atoms: C5_10  and  O2_2 
REMARK    2  A    between atoms: C13_18  and  O3_3 
REMARK    3  A    between atoms: C14_19  and  O4_4 
REMARK    4  A    between atoms: C3_8  and  C4_9 
ROOT
HETATM    1  O1  UNK     1      18.094   3.194  33.290  1.00  0.00    -0.306 OA
HETATM    2  O5  UNK     1      19.245   1.563  29.737  1.00  0.00    -0.284 OA
HETATM    3  C1  UNK     1      18.682   1.223  32.002  1.00  0.00     0.051 A 
HETATM    4  C2  UNK     1      18.291   1.842  33.187  1.00  0.00     0.091 A 
HETATM    5  C3  UNK     1      18.284   3.978  32.163  1.00  0.00     0.123 A 
HETATM    6  C5  UNK     1      18.669   3.506  30.962  1.00  0.00     0.152 A 
HETATM    7  C6  UNK     1      18.896   2.049  30.804  1.00  0.00     0.220 A 
HETATM    8  C7  UNK     1      18.085   1.079  34.338  1.00  0.00     0.045 A 
HETATM    9  C8  UNK     1      18.269  -0.302  34.296  1.00  0.00    -0.059 A 
HETATM   10  C9  UNK     1      18.867  -0.162  31.957  1.00  0.00     0.019 A 
HETATM   11  C11 UNK     1      18.660  -0.922  33.109  1.00  0.00     0.008 A 
HETATM   12  C16 UNK     1      18.050  -1.121  35.525  1.00  0.00     0.048 C 
ENDROOT
BRANCH   5  13
HETATM   13  C4  UNK     1      18.040   5.410  32.410  1.00  0.00     0.004 A 
HETATM   14  C10 UNK     1      16.837   5.993  32.009  1.00  0.00     0.054 A 
HETATM   15  C13 UNK     1      16.607   7.349  32.242  1.00  0.00     0.102 A 
HETATM   16  C14 UNK     1      17.579   8.122  32.875  1.00  0.00     0.101 A 
HETATM   17  C15 UNK     1      18.782   7.540  33.277  1.00  0.00     0.040 A 
HETATM   18  C12 UNK     1      19.012   6.184  33.043  1.00  0.00     0.017 A 
BRANCH  15  19
HETATM   19  O3  UNK     1      15.429   7.905  31.845  1.00  0.00    -0.353 OA
HETATM   20  C17 UNK     1      14.232   7.337  32.375  1.00  0.00     0.210 C 
ENDBRANCH  15  19
BRANCH  16  21
HETATM   21  O4  UNK     1      17.366   9.447  33.109  1.00  0.00    -0.353 OA
HETATM   22  C18 UNK     1      18.350  10.136  33.878  1.00  0.00     0.210 C 
ENDBRANCH  16  21
ENDBRANCH   5  13
BRANCH   6  23
HETATM   23  O2  UNK     1      18.880   4.317  29.867  1.00  0.00    -0.355 OA
HETATM   24  H10 UNK     1      18.819   3.792  29.053  1.00  0.00     0.218 HD
ENDBRANCH   6  23
TORSDOF 4
ENDMDL
MODEL 3
REMARK VINA RESULT:      -7.9     13.382     17.851
REMARK  4 active torsions:
REMARK  status: ('A' for Active; 'I' for Inactive)
REMARK    1  A    between atoms: C5_10  and  O2_2 
REMARK    2  A    between atoms: C13_18  and  O3_3 
REMARK    3  A    between atoms: C14_19  and  O4_4 
REMARK    4  A    between atoms: C3_8  and  C4_9 
ROOT
HETATM    1  O1  UNK     1      19.248  -0.752  17.787  1.00  0.00    -0.306 OA
HETATM    2  O5  UNK     1      19.332   2.487  15.315  1.00  0.00    -0.284 OA
HETATM    3  C1  UNK     1      19.352   1.658  17.523  1.00  0.00     0.051 A 
HETATM    4  C2  UNK     1      19.317   0.511  18.313  1.00  0.00     0.091 A 
HETATM    5  C3  UNK     1      19.220  -0.894  16.408  1.00  0.00     0.123 A 
HETATM    6  C5  UNK     1      19.238   0.131  15.535  1.00  0.00     0.152 A 
HETATM    7  C6  UNK     1      19.310   1.516  16.060  1.00  0.00     0.220 A 
HETATM    8  C7  UNK     1      19.353   0.620  19.703  1.00  0.00     0.045 A 
HETATM    9  C8  UNK     1      19.423   1.879  20.299  1.00  0.00    -0.059 A 
HETATM   10  C9  UNK     1      19.423   2.922  18.116  1.00  0.00     0.019 A 
HETATM   11  C11 UNK     1      19.458   3.028  19.507  1.00  0.00     0.008 A 
HETATM   12  C16 UNK     1      19.461   2.000  21.786  1.00  0.00     0.048 C 
ENDROOT
BRANCH   5  13
HETATM   13  C4  UNK     1      19.144  -2.301  15.975  1.00  0.00     0.004 A 
HETATM   14  C10 UNK     1      20.314  -3.044  15.812  1.00  0.00     0.054 A 
HETATM   15  C13 UNK     1      20.243  -4.376  15.402  1.00  0.00     0.102 A 
HETATM   16  C14 UNK     1      19.003  -4.964  15.154  1.00  0.00     0.101 A 
HETATM   17  C15 UNK     1      17.833  -4.221  15.319  1.00  0.00     0.040 A 
HETATM   18  C12 UNK     1      17.905  -2.890  15.729  1.00  0.00     0.017 A 
BRANCH  15  19
HETATM   19  O3  UNK     1      21.392  -5.090  15.245  1.00  0.00    -0.353 OA
HETATM   20  C17 UNK     1      22.378  -4.965  16.270  1.00  0.00     0.210 C 
ENDBRANCH  15  19
BRANCH  16  21
HETATM   21  O4  UNK     1      18.920  -6.263  14.755  1.00  0.00    -0.353 OA
HETATM   22  C18 UNK     1      17.669  -6.701  14.228  1.00  0.00     0.210 C 
ENDBRANCH  16  21
ENDBRANCH   5  13
BRANCH   6  23
HETATM   23  O2  UNK     1      19.176  -0.042  14.169  1.00  0.00    -0.355 OA
HETATM   24  H10 UNK     1      20.074  -0.102  13.804  1.00  0.00     0.218 HD
ENDBRANCH   6  23
TORSDOF 4
ENDMDL
MODEL 4
REMARK VINA RESULT:      -7.8      8.085     11.987
REMARK  4 active torsions:
REMARK  status: ('A' for Active; 'I' for Inactive)
REMARK    1  A    between atoms: C5_10  and  O2_2 
REMARK    2  A    between atoms: C13_18  and  O3_3 
REMARK    3  A    between atoms: C14_19  and  O4_4 
REMARK    4  A    between atoms: C3_8  and  C4_9 
ROOT
HETATM    1  O1  UNK     1      20.191  -3.368  34.755  1.00  0.00    -0.306 OA
HETATM    2  O5  UNK     1      17.880  -0.284  36.080  1.00  0.00    -0.284 OA
HETATM    3  C1  UNK     1      19.061  -1.271  34.293  1.00  0.00     0.051 A 
HETATM    4  C2  UNK     1      19.850  -2.351  33.903  1.00  0.00     0.091 A 
HETATM    5  C3  UNK     1      19.724  -3.324  36.059  1.00  0.00     0.123 A 
HETATM    6  C5  UNK     1      18.964  -2.334  36.563  1.00  0.00     0.152 A 
HETATM    7  C6  UNK     1      18.571  -1.211  35.678  1.00  0.00     0.220 A 
HETATM    8  C7  UNK     1      20.329  -2.429  32.594  1.00  0.00     0.045 A 
HETATM    9  C8  UNK     1      20.015  -1.424  31.680  1.00  0.00    -0.059 A 
HETATM   10  C9  UNK     1      18.744  -0.262  33.379  1.00  0.00     0.019 A 
HETATM   11  C11 UNK     1      19.225  -0.342  32.071  1.00  0.00     0.008 A 
HETATM   12  C16 UNK     1      20.526  -1.504  30.280  1.00  0.00     0.048 C 
ENDROOT
BRANCH   5  13
HETATM   13  C4  UNK     1      20.164  -4.475  36.868  1.00  0.00     0.004 A 
HETATM   14  C10 UNK     1      19.361  -5.613  36.956  1.00  0.00     0.054 A 
HETATM   15  C13 UNK     1      19.776  -6.702  37.722  1.00  0.00     0.102 A 
HETATM   16  C14 UNK     1      20.994  -6.653  38.401  1.00  0.00     0.101 A 
HETATM   17  C15 UNK     1      21.797  -5.516  38.312  1.00  0.00     0.040 A 
HETATM   18  C12 UNK     1      21.381  -4.427  37.546  1.00  0.00     0.017 A 
BRANCH  15  19
HETATM   19  O3  UNK     1      18.983  -7.807  37.800  1.00  0.00    -0.353 OA
HETATM   20  C17 UNK     1      18.964  -8.672  36.666  1.00  0.00     0.210 C 
ENDBRANCH  15  19
BRANCH  16  21
HETATM   21  O4  UNK     1      21.411  -7.710  39.151  1.00  0.00    -0.353 OA
HETATM   22  C18 UNK     1      22.712  -7.623  39.728  1.00  0.00     0.210 C 
ENDBRANCH  16  21
ENDBRANCH   5  13
BRANCH   6  23
HETATM   23  O2  UNK     1      18.541  -2.303  37.875  1.00  0.00    -0.355 OA
HETATM   24  H10 UNK     1      17.610  -2.571  37.927  1.00  0.00     0.218 HD
ENDBRANCH   6  23
TORSDOF 4
ENDMDL
MODEL 5
REMARK VINA RESULT:      -7.7      1.754      7.586
REMARK  4 active torsions:
REMARK  status: ('A' for Active; 'I' for Inactive)
REMARK    1  A    between atoms: C5_10  and  O2_2 
REMARK    2  A    between atoms: C13_18  and  O3_3 
REMARK    3  A    between atoms: C14_19  and  O4_4 
REMARK    4  A    between atoms: C3_8  and  C4_9 
ROOT
HETATM    1  O1  UNK     1      18.043   3.133  33.201  1.00  0.00    -0.306 OA
HETATM    2  O5  UNK     1      19.276   1.472  29.690  1.00  0.00    -0.284 OA
HETATM    3  C1  UNK     1      18.697   1.156  31.954  1.00  0.00     0.051 A 
HETATM    4  C2  UNK     1      18.277   1.785  33.124  1.00  0.00     0.091 A 
HETATM    5  C3  UNK     1      18.224   3.902  32.062  1.00  0.00     0.123 A 
HETATM    6  C5  UNK     1      18.635   3.420  30.874  1.00  0.00     0.152 A 
HETATM    7  C6  UNK     1      18.903   1.967  30.745  1.00  0.00     0.220 A 
HETATM    8  C7  UNK     1      18.078   1.037  34.285  1.00  0.00     0.045 A 
HETATM    9  C8  UNK     1      18.300  -0.340  34.270  1.00  0.00    -0.059 A 
HETATM   10  C9  UNK     1      18.920  -0.224  31.935  1.00  0.00     0.019 A 
HETATM   11  C11 UNK     1      18.720  -0.969  33.098  1.00  0.00     0.008 A 
HETATM   12  C16 UNK     1      18.089  -1.142  35.510  1.00  0.00     0.048 C 
ENDROOT
BRANCH   5  13
HETATM   13  C4  UNK     1      17.940   5.331  32.281  1.00  0.00     0.004 A 
HETATM   14  C10 UNK     1      18.916   6.159  32.835  1.00  0.00     0.054 A 
HETATM   15  C13 UNK     1      18.647   7.513  33.044  1.00  0.00     0.102 A 
HETATM   16  C14 UNK     1      17.402   8.037  32.699  1.00  0.00     0.101 A 
HETATM   17  C15 UNK     1      16.426   7.209  32.144  1.00  0.00     0.040 A 
HETATM   18  C12 UNK     1      16.695   5.856  31.936  1.00  0.00     0.017 A 
BRANCH  15  19
HETATM   19  O3  UNK     1      19.609   8.310  33.586  1.00  0.00    -0.353 OA
HETATM   20  C17 UNK     1      19.709   8.327  35.010  1.00  0.00     0.210 C 
ENDBRANCH  15  19
BRANCH  16  21
HETATM   21  O4  UNK     1      17.127   9.356  32.896  1.00  0.00    -0.353 OA
HETATM   22  C18 UNK     1      16.280   9.684  33.996  1.00  0.00     0.210 C 
ENDBRANCH  16  21
ENDBRANCH   5  13
BRANCH   6  23
HETATM   23  O2  UNK     1      18.836   4.217  29.767  1.00  0.00    -0.355 OA
HETATM   24  H10 UNK     1      18.239   4.982  29.800  1.00  0.00     0.218 HD
ENDBRANCH   6  23
TORSDOF 4
ENDMDL
MODEL 6
REMARK VINA RESULT:      -7.7     23.244     25.386
REMARK  4 active torsions:
REMARK  status: ('A' for Active; 'I' for Inactive)
REMARK    1  A    between atoms: C5_10  and  O2_2 
REMARK    2  A    between atoms: C13_18  and  O3_3 
REMARK    3  A    between atoms: C14_19  and  O4_4 
REMARK    4  A    between atoms: C3_8  and  C4_9 
ROOT
HETATM    1  O1  UNK     1       9.990   5.669   9.633  1.00  0.00    -0.306 OA
HETATM    2  O5  UNK     1       9.961   6.992   5.778  1.00  0.00    -0.284 OA
HETATM    3  C1  UNK     1      11.219   6.191   7.606  1.00  0.00     0.051 A 
HETATM    4  C2  UNK     1      11.162   5.750   8.926  1.00  0.00     0.091 A 
HETATM    5  C3  UNK     1       8.811   6.034   9.003  1.00  0.00     0.123 A 
HETATM    6  C5  UNK     1       8.730   6.485   7.737  1.00  0.00     0.152 A 
HETATM    7  C6  UNK     1       9.973   6.592   6.935  1.00  0.00     0.220 A 
HETATM    8  C7  UNK     1      12.331   5.368   9.585  1.00  0.00     0.045 A 
HETATM    9  C8  UNK     1      13.554   5.428   8.919  1.00  0.00    -0.059 A 
HETATM   10  C9  UNK     1      12.443   6.252   6.935  1.00  0.00     0.019 A 
HETATM   11  C11 UNK     1      13.611   5.869   7.596  1.00  0.00     0.008 A 
HETATM   12  C16 UNK     1      14.806   5.020   9.621  1.00  0.00     0.048 C 
ENDROOT
BRANCH   5  13
HETATM   13  C4  UNK     1       7.629   5.901   9.873  1.00  0.00     0.004 A 
HETATM   14  C10 UNK     1       6.880   4.724   9.857  1.00  0.00     0.054 A 
HETATM   15  C13 UNK     1       5.761   4.597  10.680  1.00  0.00     0.102 A 
HETATM   16  C14 UNK     1       5.389   5.649  11.517  1.00  0.00     0.101 A 
HETATM   17  C15 UNK     1       6.138   6.826  11.533  1.00  0.00     0.040 A 
HETATM   18  C12 UNK     1       7.257   6.952  10.711  1.00  0.00     0.017 A 
BRANCH  15  19
HETATM   19  O3  UNK     1       5.038   3.443  10.655  1.00  0.00    -0.353 OA
HETATM   20  C17 UNK     1       5.572   2.329  11.368  1.00  0.00     0.210 C 
ENDBRANCH  15  19
BRANCH  16  21
HETATM   21  O4  UNK     1       4.299   5.538  12.325  1.00  0.00    -0.353 OA
HETATM   22  C18 UNK     1       4.539   5.263  13.704  1.00  0.00     0.210 C 
ENDBRANCH  16  21
ENDBRANCH   5  13
BRANCH   6  23
HETATM   23  O2  UNK     1       7.545   6.871   7.149  1.00  0.00    -0.355 OA
HETATM   24  H10 UNK     1       6.916   7.155   7.832  1.00  0.00     0.218 HD
ENDBRANCH   6  23
TORSDOF 4
ENDMDL
MODEL 7
REMARK VINA RESULT:      -7.6      1.201      2.087
REMARK  4 active torsions:
REMARK  status: ('A' for Active; 'I' for Inactive)
REMARK    1  A    between atoms: C5_10  and  O2_2 
REMARK    2  A    between atoms: C13_18  and  O3_3 
REMARK    3  A    between atoms: C14_19  and  O4_4 
REMARK    4  A    between atoms: C3_8  and  C4_9 
ROOT
HETATM    1  O1  UNK     1      17.001   6.516  32.783  1.00  0.00    -0.306 OA
HETATM    2  O5  UNK     1      20.102   8.729  34.231  1.00  0.00    -0.284 OA
HETATM    3  C1  UNK     1      17.814   8.625  33.667  1.00  0.00     0.051 A 
HETATM    4  C2  UNK     1      16.797   7.817  33.163  1.00  0.00     0.091 A 
HETATM    5  C3  UNK     1      18.272   5.979  32.915  1.00  0.00     0.123 A 
HETATM    6  C5  UNK     1      19.340   6.654  33.379  1.00  0.00     0.152 A 
HETATM    7  C6  UNK     1      19.168   8.066  33.799  1.00  0.00     0.220 A 
HETATM    8  C7  UNK     1      15.505   8.326  33.025  1.00  0.00     0.045 A 
HETATM    9  C8  UNK     1      15.235   9.643  33.395  1.00  0.00    -0.059 A 
HETATM   10  C9  UNK     1      17.547   9.946  34.039  1.00  0.00     0.019 A 
HETATM   11  C11 UNK     1      16.254  10.451  33.900  1.00  0.00     0.008 A 
HETATM   12  C16 UNK     1      13.854  10.190  33.249  1.00  0.00     0.048 C 
ENDROOT
BRANCH   5  13
HETATM   13  C4  UNK     1      18.353   4.576  32.472  1.00  0.00     0.004 A 
HETATM   14  C10 UNK     1      18.589   4.282  31.128  1.00  0.00     0.054 A 
HETATM   15  C13 UNK     1      18.666   2.954  30.707  1.00  0.00     0.102 A 
HETATM   16  C14 UNK     1      18.505   1.921  31.630  1.00  0.00     0.101 A 
HETATM   17  C15 UNK     1      18.271   2.214  32.973  1.00  0.00     0.040 A 
HETATM   18  C12 UNK     1      18.194   3.542  33.393  1.00  0.00     0.017 A 
BRANCH  15  19
HETATM   19  O3  UNK     1      18.895   2.681  29.393  1.00  0.00    -0.353 OA
HETATM   20  C17 UNK     1      17.818   2.111  28.652  1.00  0.00     0.210 C 
ENDBRANCH  15  19
BRANCH  16  21
HETATM   21  O4  UNK     1      18.579   0.620  31.232  1.00  0.00    -0.353 OA
HETATM   22  C18 UNK     1      19.878   0.038  31.156  1.00  0.00     0.210 C 
ENDBRANCH  16  21
ENDBRANCH   5  13
BRANCH   6  23
HETATM   23  O2  UNK     1      20.599   6.101  33.468  1.00  0.00    -0.355 OA
HETATM   24  H10 UNK     1      21.230   6.767  33.786  1.00  0.00     0.218 HD
ENDBRANCH   6  23
TORSDOF 4
ENDMDL
MODEL 8
REMARK VINA RESULT:      -7.6      1.984      7.726
REMARK  4 active torsions:
REMARK  status: ('A' for Active; 'I' for Inactive)
REMARK    1  A    between atoms: C5_10  and  O2_2 
REMARK    2  A    between atoms: C13_18  and  O3_3 
REMARK    3  A    between atoms: C14_19  and  O4_4 
REMARK    4  A    between atoms: C3_8  and  C4_9 
ROOT
HETATM    1  O1  UNK     1      18.688   3.098  31.499  1.00  0.00    -0.306 OA
HETATM    2  O5  UNK     1      18.343   0.611  34.709  1.00  0.00    -0.284 OA
HETATM    3  C1  UNK     1      18.813   0.852  32.410  1.00  0.00     0.051 A 
HETATM    4  C2  UNK     1      18.912   1.754  31.353  1.00  0.00     0.091 A 
HETATM    5  C3  UNK     1      18.356   3.581  32.755  1.00  0.00     0.123 A 
HETATM    6  C5  UNK     1      18.219   2.816  33.854  1.00  0.00     0.152 A 
HETATM    7  C6  UNK     1      18.450   1.356  33.743  1.00  0.00     0.220 A 
HETATM    8  C7  UNK     1      19.253   1.300  30.078  1.00  0.00     0.045 A 
HETATM    9  C8  UNK     1      19.494  -0.057  29.866  1.00  0.00    -0.059 A 
HETATM   10  C9  UNK     1      19.055  -0.509  32.201  1.00  0.00     0.019 A 
HETATM   11  C11 UNK     1      19.395  -0.960  30.926  1.00  0.00     0.008 A 
HETATM   12  C16 UNK     1      19.857  -0.546  28.504  1.00  0.00     0.048 C 
ENDROOT
BRANCH   5  13
HETATM   13  C4  UNK     1      18.141   5.039  32.773  1.00  0.00     0.004 A 
HETATM   14  C10 UNK     1      17.045   5.590  32.107  1.00  0.00     0.054 A 
HETATM   15  C13 UNK     1      16.841   6.970  32.123  1.00  0.00     0.102 A 
HETATM   16  C14 UNK     1      17.733   7.799  32.804  1.00  0.00     0.101 A 
HETATM   17  C15 UNK     1      18.828   7.247  33.470  1.00  0.00     0.040 A 
HETATM   18  C12 UNK     1      19.032   5.868  33.453  1.00  0.00     0.017 A 
BRANCH  15  19
HETATM   19  O3  UNK     1      15.768   7.496  31.469  1.00  0.00    -0.353 OA
HETATM   20  C17 UNK     1      14.478   7.210  32.007  1.00  0.00     0.210 C 
ENDBRANCH  15  19
BRANCH  16  21
HETATM   21  O4  UNK     1      17.545   9.147  32.828  1.00  0.00    -0.353 OA
HETATM   22  C18 UNK     1      17.032   9.709  34.034  1.00  0.00     0.210 C 
ENDBRANCH  16  21
ENDBRANCH   5  13
BRANCH   6  23
HETATM   23  O2  UNK     1      17.856   3.323  35.083  1.00  0.00    -0.355 OA
HETATM   24  H10 UNK     1      18.330   4.154  35.250  1.00  0.00     0.218 HD
ENDBRANCH   6  23
TORSDOF 4
ENDMDL
MODEL 9
REMARK VINA RESULT:      -7.5      2.765      5.962
REMARK  4 active torsions:
REMARK  status: ('A' for Active; 'I' for Inactive)
REMARK    1  A    between atoms: C5_10  and  O2_2 
REMARK    2  A    between atoms: C13_18  and  O3_3 
REMARK    3  A    between atoms: C14_19  and  O4_4 
REMARK    4  A    between atoms: C3_8  and  C4_9 
ROOT
HETATM    1  O1  UNK     1      18.088   3.476  33.603  1.00  0.00    -0.306 OA
HETATM    2  O5  UNK     1      18.731   3.224  29.586  1.00  0.00    -0.284 OA
HETATM    3  C1  UNK     1      18.373   4.598  31.470  1.00  0.00     0.051 A 
HETATM    4  C2  UNK     1      18.154   4.616  32.845  1.00  0.00     0.091 A 
HETATM    5  C3  UNK     1      18.256   2.252  32.973  1.00  0.00     0.123 A 
HETATM    6  C5  UNK     1      18.465   2.097  31.652  1.00  0.00     0.152 A 
HETATM    7  C6  UNK     1      18.541   3.303  30.793  1.00  0.00     0.220 A 
HETATM    8  C7  UNK     1      17.989   5.832  33.510  1.00  0.00     0.045 A 
HETATM    9  C8  UNK     1      18.045   7.027  32.794  1.00  0.00    -0.059 A 
HETATM   10  C9  UNK     1      18.431   5.794  30.749  1.00  0.00     0.019 A 
HETATM   11  C11 UNK     1      18.266   7.008  31.416  1.00  0.00     0.008 A 
HETATM   12  C16 UNK     1      17.868   8.329  33.501  1.00  0.00     0.048 C 
ENDROOT
BRANCH   5  13
HETATM   13  C4  UNK     1      18.162   1.110  33.899  1.00  0.00     0.004 A 
HETATM   14  C10 UNK     1      17.552   1.270  35.144  1.00  0.00     0.054 A 
HETATM   15  C13 UNK     1      17.463   0.189  36.022  1.00  0.00     0.102 A 
HETATM   16  C14 UNK     1      17.985  -1.051  35.655  1.00  0.00     0.101 A 
HETATM   17  C15 UNK     1      18.594  -1.212  34.410  1.00  0.00     0.040 A 
HETATM   18  C12 UNK     1      18.683  -0.130  33.533  1.00  0.00     0.017 A 
BRANCH  15  19
HETATM   19  O3  UNK     1      16.866   0.359  37.234  1.00  0.00    -0.353 OA
HETATM   20  C17 UNK     1      17.553   1.170  38.187  1.00  0.00     0.210 C 
ENDBRANCH  15  19
BRANCH  16  21
HETATM   21  O4  UNK     1      17.904  -2.114  36.502  1.00  0.00    -0.353 OA
HETATM   22  C18 UNK     1      19.113  -2.819  36.776  1.00  0.00     0.210 C 
ENDBRANCH  16  21
ENDBRANCH   5  13
BRANCH   6  23
HETATM   23  O2  UNK     1      18.597   0.864  31.051  1.00  0.00    -0.355 OA
HETATM   24  H10 UNK     1      19.000   0.967  30.174  1.00  0.00     0.218 HD
ENDBRANCH   6  23
TORSDOF 4
ENDMDL
MODEL 10
REMARK VINA RESULT:      -7.5      7.547     11.505
REMARK  4 active torsions:
REMARK  status: ('A' for Active; 'I' for Inactive)
REMARK    1  A    between atoms: C5_10  and  O2_2 
REMARK    2  A    between atoms: C13_18  and  O3_3 
REMARK    3  A    between atoms: C14_19  and  O4_4 
REMARK    4  A    between atoms: C3_8  and  C4_9 
ROOT
HETATM    1  O1  UNK     1      18.937  -2.333  37.090  1.00  0.00    -0.306 OA
HETATM    2  O5  UNK     1      19.636  -1.490  33.165  1.00  0.00    -0.284 OA
HETATM    3  C1  UNK     1      18.715  -0.798  35.223  1.00  0.00     0.051 A 
HETATM    4  C2  UNK     1      18.506  -1.147  36.556  1.00  0.00     0.091 A 
HETATM    5  C3  UNK     1      19.618  -3.220  36.271  1.00  0.00     0.123 A 
HETATM    6  C5  UNK     1      19.877  -3.008  34.967  1.00  0.00     0.152 A 
HETATM    7  C6  UNK     1      19.427  -1.739  34.345  1.00  0.00     0.220 A 
HETATM    8  C7  UNK     1      17.831  -0.273  37.408  1.00  0.00     0.045 A 
HETATM    9  C8  UNK     1      17.368   0.950  36.923  1.00  0.00    -0.059 A 
HETATM   10  C9  UNK     1      18.253   0.427  34.734  1.00  0.00     0.019 A 
HETATM   11  C11 UNK     1      17.578   1.299  35.588  1.00  0.00     0.008 A 
HETATM   12  C16 UNK     1      16.645   1.887  37.832  1.00  0.00     0.048 C 
ENDROOT
BRANCH   5  13
HETATM   13  C4  UNK     1      20.024  -4.453  36.968  1.00  0.00     0.004 A 
HETATM   14  C10 UNK     1      19.174  -5.560  36.978  1.00  0.00     0.054 A 
HETATM   15  C13 UNK     1      19.557  -6.728  37.639  1.00  0.00     0.102 A 
HETATM   16  C14 UNK     1      20.789  -6.788  38.290  1.00  0.00     0.101 A 
HETATM   17  C15 UNK     1      21.639  -5.682  38.279  1.00  0.00     0.040 A 
HETATM   18  C12 UNK     1      21.256  -4.515  37.618  1.00  0.00     0.017 A 
BRANCH  15  19
HETATM   19  O3  UNK     1      18.718  -7.801  37.642  1.00  0.00    -0.353 OA
HETATM   20  C17 UNK     1      18.729  -8.635  36.485  1.00  0.00     0.210 C 
ENDBRANCH  15  19
BRANCH  16  21
HETATM   21  O4  UNK     1      21.175  -7.922  38.937  1.00  0.00    -0.353 OA
HETATM   22  C18 UNK     1      22.299  -7.820  39.809  1.00  0.00     0.210 C 
ENDBRANCH  16  21
ENDBRANCH   5  13
BRANCH   6  23
HETATM   23  O2  UNK     1      20.529  -3.924  34.170  1.00  0.00    -0.355 OA
HETATM   24  H10 UNK     1      20.004  -4.099  33.373  1.00  0.00     0.218 HD
ENDBRANCH   6  23
TORSDOF 4
ENDMDL
