MODEL 1
REMARK VINA RESULT:      -9.0      0.000      0.000
REMARK  3 active torsions:
REMARK  status: ('A' for Active; 'I' for Inactive)
REMARK       I    between atoms: C5_10  and  N1_5 
REMARK    1  A    between atoms: C5_10  and  C6_11 
REMARK    2  A    between atoms: C6_11  and  C7_12 
REMARK    3  A    between atoms: C7_12  and  C8_13 
ROOT
HETATM    1  O1  UNK     1      26.169  -5.139  38.818  1.00  0.00    -0.274 OA
HETATM    2  O3  UNK     1      30.962  -4.765  38.492  1.00  0.00    -0.314 OA
HETATM    3  O4  UNK     1      23.914  -5.335  38.995  1.00  0.00    -0.259 OA
HETATM    4  C8  UNK     1      25.138  -7.368  38.787  1.00  0.00     0.025 A 
HETATM    5  C9  UNK     1      26.344  -7.956  38.622  1.00  0.00    -0.037 A 
HETATM    6  C10 UNK     1      27.565  -7.121  38.584  1.00  0.00     0.005 A 
HETATM    7  C11 UNK     1      29.984  -6.799  38.438  1.00  0.00     0.007 A 
HETATM    8  C12 UNK     1      27.437  -5.736  38.682  1.00  0.00     0.093 A 
HETATM    9  C13 UNK     1      28.865  -7.657  38.465  1.00  0.00     0.029 A 
HETATM   10  C14 UNK     1      29.774  -5.430  38.534  1.00  0.00     0.089 A 
HETATM   11  C15 UNK     1      25.005  -5.886  38.879  1.00  0.00     0.295 A 
HETATM   12  C16 UNK     1      31.390  -6.968  38.332  1.00  0.00    -0.020 A 
HETATM   13  C17 UNK     1      28.520  -4.846  38.659  1.00  0.00     0.076 A 
HETATM   14  C18 UNK     1      26.527  -9.444  38.451  1.00  0.00     0.050 C 
HETATM   15  C19 UNK     1      31.935  -5.705  38.369  1.00  0.00     0.056 A 
HETATM   16  C20 UNK     1      32.123  -8.242  38.206  1.00  0.00     0.052 C 
HETATM   17  C21 UNK     1      33.315  -5.201  38.304  1.00  0.00     0.077 C 
ENDROOT
BRANCH   4  18
HETATM   18  C7  UNK     1      23.829  -8.106  38.906  1.00  0.00     0.055 C 
BRANCH  18  19
HETATM   19  C6  UNK     1      23.279  -8.508  37.550  1.00  0.00     0.108 C 
BRANCH  19  20
HETATM   20  C5  UNK     1      21.919  -7.902  37.312  1.00  0.00     0.220 C 
HETATM   21  O2  UNK     1      21.809  -6.705  37.043  1.00  0.00    -0.273 OA
HETATM   22  N1  UNK     1      20.850  -8.773  37.423  1.00  0.00    -0.352 N 
HETATM   23  C3  UNK     1      19.474  -8.341  37.231  1.00  0.00     0.126 C 
HETATM   24  C4  UNK     1      20.915 -10.197  37.735  1.00  0.00     0.126 C 
HETATM   25  C1  UNK     1      18.682  -9.636  37.119  1.00  0.00     0.021 C 
HETATM   26  C2  UNK     1      19.469 -10.591  38.007  1.00  0.00     0.021 C 
ENDBRANCH  19  20
ENDBRANCH  18  19
ENDBRANCH   4  18
TORSDOF 3
ENDMDL
MODEL 2
REMARK VINA RESULT:      -8.7     34.431     36.178
REMARK  3 active torsions:
REMARK  status: ('A' for Active; 'I' for Inactive)
REMARK       I    between atoms: C5_10  and  N1_5 
REMARK    1  A    between atoms: C5_10  and  C6_11 
REMARK    2  A    between atoms: C6_11  and  C7_12 
REMARK    3  A    between atoms: C7_12  and  C8_13 
ROOT
HETATM    1  O1  UNK     1      17.864   9.199   9.486  1.00  0.00    -0.274 OA
HETATM    2  O3  UNK     1      18.348  13.378   7.135  1.00  0.00    -0.314 OA
HETATM    3  O4  UNK     1      17.619   7.220  10.569  1.00  0.00    -0.259 OA
HETATM    4  C8  UNK     1      15.614   8.283   9.846  1.00  0.00     0.025 A 
HETATM    5  C9  UNK     1      15.049   9.357   9.251  1.00  0.00    -0.037 A 
HETATM    6  C10 UNK     1      15.913  10.423   8.693  1.00  0.00     0.005 A 
HETATM    7  C11 UNK     1      16.291  12.525   7.506  1.00  0.00     0.007 A 
HETATM    8  C12 UNK     1      17.295  10.308   8.831  1.00  0.00     0.093 A 
HETATM    9  C13 UNK     1      15.407  11.550   8.014  1.00  0.00     0.029 A 
HETATM   10  C14 UNK     1      17.656  12.344   7.689  1.00  0.00     0.089 A 
HETATM   11  C15 UNK     1      17.092   8.173  10.002  1.00  0.00     0.295 A 
HETATM   12  C16 UNK     1      16.155  13.747   6.796  1.00  0.00    -0.020 A 
HETATM   13  C17 UNK     1      18.211  11.252   8.344  1.00  0.00     0.076 A 
HETATM   14  C18 UNK     1      13.558   9.553   9.132  1.00  0.00     0.050 C 
HETATM   15  C19 UNK     1      17.431  14.223   6.597  1.00  0.00     0.056 A 
HETATM   16  C20 UNK     1      14.898  14.384   6.357  1.00  0.00     0.052 C 
HETATM   17  C21 UNK     1      17.968  15.423   5.939  1.00  0.00     0.077 C 
ENDROOT
BRANCH   4  18
HETATM   18  C7  UNK     1      14.853   7.104  10.395  1.00  0.00     0.055 C 
BRANCH  18  19
HETATM   19  C6  UNK     1      14.363   6.181   9.294  1.00  0.00     0.108 C 
BRANCH  19  20
HETATM   20  C5  UNK     1      12.887   5.907   9.429  1.00  0.00     0.220 C 
HETATM   21  O2  UNK     1      12.418   5.529  10.505  1.00  0.00    -0.273 OA
HETATM   22  N1  UNK     1      12.136   6.106   8.284  1.00  0.00    -0.352 N 
HETATM   23  C3  UNK     1      10.699   5.879   8.249  1.00  0.00     0.126 C 
HETATM   24  C4  UNK     1      12.629   6.555   6.986  1.00  0.00     0.126 C 
HETATM   25  C1  UNK     1      10.247   6.515   6.943  1.00  0.00     0.021 C 
HETATM   26  C2  UNK     1      11.458   6.330   6.039  1.00  0.00     0.021 C 
ENDBRANCH  19  20
ENDBRANCH  18  19
ENDBRANCH   4  18
TORSDOF 3
ENDMDL
MODEL 3
REMARK VINA RESULT:      -8.4     14.936     17.128
REMARK  3 active torsions:
REMARK  status: ('A' for Active; 'I' for Inactive)
REMARK       I    between atoms: C5_10  and  N1_5 
REMARK    1  A    between atoms: C5_10  and  C6_11 
REMARK    2  A    between atoms: C6_11  and  C7_12 
REMARK    3  A    between atoms: C7_12  and  C8_13 
ROOT
HETATM    1  O1  UNK     1      17.759   4.610  34.031  1.00  0.00    -0.274 OA
HETATM    2  O3  UNK     1      18.855   0.125  32.650  1.00  0.00    -0.314 OA
HETATM    3  O4  UNK     1      17.221   6.724  34.658  1.00  0.00    -0.259 OA
HETATM    4  C8  UNK     1      17.883   6.431  32.389  1.00  0.00     0.025 A 
HETATM    5  C9  UNK     1      18.323   5.581  31.436  1.00  0.00    -0.037 A 
HETATM    6  C10 UNK     1      18.469   4.142  31.749  1.00  0.00     0.005 A 
HETATM    7  C11 UNK     1      18.988   1.825  31.170  1.00  0.00     0.007 A 
HETATM    8  C12 UNK     1      18.182   3.703  33.041  1.00  0.00     0.093 A 
HETATM    9  C13 UNK     1      18.874   3.181  30.799  1.00  0.00     0.029 A 
HETATM   10  C14 UNK     1      18.691   1.466  32.478  1.00  0.00     0.089 A 
HETATM   11  C15 UNK     1      17.590   5.959  33.772  1.00  0.00     0.295 A 
HETATM   12  C16 UNK     1      19.354   0.620  30.513  1.00  0.00    -0.020 A 
HETATM   13  C17 UNK     1      18.282   2.367  33.454  1.00  0.00     0.076 A 
HETATM   14  C18 UNK     1      18.703   6.019  30.042  1.00  0.00     0.050 C 
HETATM   15  C19 UNK     1      19.258  -0.379  31.455  1.00  0.00     0.056 A 
HETATM   16  C20 UNK     1      19.759   0.467  29.102  1.00  0.00     0.052 C 
HETATM   17  C21 UNK     1      19.497  -1.829  31.413  1.00  0.00     0.077 C 
ENDROOT
BRANCH   4  18
HETATM   18  C7  UNK     1      17.631   7.903  32.181  1.00  0.00     0.055 C 
BRANCH  18  19
HETATM   19  C6  UNK     1      16.313   8.160  31.473  1.00  0.00     0.108 C 
BRANCH  19  20
HETATM   20  C5  UNK     1      15.169   8.204  32.453  1.00  0.00     0.220 C 
HETATM   21  O2  UNK     1      14.259   7.374  32.387  1.00  0.00    -0.273 OA
HETATM   22  N1  UNK     1      15.224   9.219  33.390  1.00  0.00    -0.352 N 
HETATM   23  C3  UNK     1      14.192   9.401  34.400  1.00  0.00     0.126 C 
HETATM   24  C4  UNK     1      16.271  10.227  33.522  1.00  0.00     0.126 C 
HETATM   25  C1  UNK     1      14.797  10.387  35.388  1.00  0.00     0.021 C 
HETATM   26  C2  UNK     1      15.700  11.240  34.506  1.00  0.00     0.021 C 
ENDBRANCH  19  20
ENDBRANCH  18  19
ENDBRANCH   4  18
TORSDOF 3
ENDMDL
MODEL 4
REMARK VINA RESULT:      -8.4      2.251      3.371
REMARK  3 active torsions:
REMARK  status: ('A' for Active; 'I' for Inactive)
REMARK       I    between atoms: C5_10  and  N1_5 
REMARK    1  A    between atoms: C5_10  and  C6_11 
REMARK    2  A    between atoms: C6_11  and  C7_12 
REMARK    3  A    between atoms: C7_12  and  C8_13 
ROOT
HETATM    1  O1  UNK     1      29.592  -9.654  38.694  1.00  0.00    -0.274 OA
HETATM    2  O3  UNK     1      33.596  -7.367  37.293  1.00  0.00    -0.314 OA
HETATM    3  O4  UNK     1      27.692 -10.722  39.328  1.00  0.00    -0.259 OA
HETATM    4  C8  UNK     1      27.471  -8.418  38.763  1.00  0.00     0.025 A 
HETATM    5  C9  UNK     1      28.089  -7.278  38.384  1.00  0.00    -0.037 A 
HETATM    6  C10 UNK     1      29.541  -7.293  38.097  1.00  0.00     0.005 A 
HETATM    7  C11 UNK     1      31.636  -6.250  37.394  1.00  0.00     0.007 A 
HETATM    8  C12 UNK     1      30.247  -8.484  38.263  1.00  0.00     0.093 A 
HETATM    9  C13 UNK     1      30.252  -6.160  37.649  1.00  0.00     0.029 A 
HETATM   10  C14 UNK     1      32.270  -7.470  37.589  1.00  0.00     0.089 A 
HETATM   11  C15 UNK     1      28.233  -9.686  38.952  1.00  0.00     0.295 A 
HETATM   12  C16 UNK     1      32.647  -5.357  36.950  1.00  0.00    -0.020 A 
HETATM   13  C17 UNK     1      31.621  -8.619  38.022  1.00  0.00     0.076 A 
HETATM   14  C18 UNK     1      27.379  -5.953  38.248  1.00  0.00     0.050 C 
HETATM   15  C19 UNK     1      33.815  -6.083  36.907  1.00  0.00     0.056 A 
HETATM   16  C20 UNK     1      32.481  -3.931  36.604  1.00  0.00     0.052 C 
HETATM   17  C21 UNK     1      35.198  -5.747  36.537  1.00  0.00     0.077 C 
ENDROOT
BRANCH   4  18
HETATM   18  C7  UNK     1      25.992  -8.551  39.022  1.00  0.00     0.055 C 
BRANCH  18  19
HETATM   19  C6  UNK     1      25.222  -8.893  37.759  1.00  0.00     0.108 C 
BRANCH  19  20
HETATM   20  C5  UNK     1      23.848  -8.275  37.774  1.00  0.00     0.220 C 
HETATM   21  O2  UNK     1      23.618  -7.282  38.467  1.00  0.00    -0.273 OA
HETATM   22  N1  UNK     1      22.904  -8.899  36.977  1.00  0.00    -0.352 N 
HETATM   23  C3  UNK     1      21.530  -8.428  36.889  1.00  0.00     0.126 C 
HETATM   24  C4  UNK     1      23.113 -10.071  36.134  1.00  0.00     0.126 C 
HETATM   25  C1  UNK     1      20.951  -9.171  35.694  1.00  0.00     0.021 C 
HETATM   26  C2  UNK     1      21.711 -10.491  35.716  1.00  0.00     0.021 C 
ENDBRANCH  19  20
ENDBRANCH  18  19
ENDBRANCH   4  18
TORSDOF 3
ENDMDL
MODEL 5
REMARK VINA RESULT:      -8.4     13.517     16.085
REMARK  3 active torsions:
REMARK  status: ('A' for Active; 'I' for Inactive)
REMARK       I    between atoms: C5_10  and  N1_5 
REMARK    1  A    between atoms: C5_10  and  C6_11 
REMARK    2  A    between atoms: C6_11  and  C7_12 
REMARK    3  A    between atoms: C7_12  and  C8_13 
ROOT
HETATM    1  O1  UNK     1      18.545   2.368  31.273  1.00  0.00    -0.274 OA
HETATM    2  O3  UNK     1      17.990  -0.869  34.800  1.00  0.00    -0.314 OA
HETATM    3  O4  UNK     1      18.832   3.904  29.628  1.00  0.00    -0.259 OA
HETATM    4  C8  UNK     1      18.641   4.754  31.845  1.00  0.00     0.025 A 
HETATM    5  C9  UNK     1      18.442   4.479  33.152  1.00  0.00    -0.037 A 
HETATM    6  C10 UNK     1      18.319   3.072  33.594  1.00  0.00     0.005 A 
HETATM    7  C11 UNK     1      18.052   1.334  35.291  1.00  0.00     0.007 A 
HETATM    8  C12 UNK     1      18.374   2.060  32.637  1.00  0.00     0.093 A 
HETATM    9  C13 UNK     1      18.161   2.697  34.944  1.00  0.00     0.029 A 
HETATM   10  C14 UNK     1      18.110   0.384  34.279  1.00  0.00     0.089 A 
HETATM   11  C15 UNK     1      18.686   3.669  30.823  1.00  0.00     0.295 A 
HETATM   12  C16 UNK     1      17.889   0.603  36.498  1.00  0.00    -0.020 A 
HETATM   13  C17 UNK     1      18.270   0.693  32.935  1.00  0.00     0.076 A 
HETATM   14  C18 UNK     1      18.316   5.543  34.216  1.00  0.00     0.050 C 
HETATM   15  C19 UNK     1      17.856  -0.727  36.144  1.00  0.00     0.056 A 
HETATM   16  C20 UNK     1      17.775   1.156  37.861  1.00  0.00     0.052 C 
HETATM   17  C21 UNK     1      17.711  -1.971  36.914  1.00  0.00     0.077 C 
ENDROOT
BRANCH   4  18
HETATM   18  C7  UNK     1      18.845   6.135  31.276  1.00  0.00     0.055 C 
BRANCH  18  19
HETATM   19  C6  UNK     1      17.527   6.838  31.004  1.00  0.00     0.108 C 
BRANCH  19  20
HETATM   20  C5  UNK     1      17.214   7.843  32.083  1.00  0.00     0.220 C 
HETATM   21  O2  UNK     1      18.110   8.538  32.568  1.00  0.00    -0.273 OA
HETATM   22  N1  UNK     1      15.888   7.911  32.469  1.00  0.00    -0.352 N 
HETATM   23  C3  UNK     1      15.425   8.825  33.503  1.00  0.00     0.126 C 
HETATM   24  C4  UNK     1      14.783   7.121  31.934  1.00  0.00     0.126 C 
HETATM   25  C1  UNK     1      13.909   8.805  33.376  1.00  0.00     0.021 C 
HETATM   26  C2  UNK     1      13.628   7.389  32.890  1.00  0.00     0.021 C 
ENDBRANCH  19  20
ENDBRANCH  18  19
ENDBRANCH   4  18
TORSDOF 3
ENDMDL
MODEL 6
REMARK VINA RESULT:      -8.3      7.732     10.803
REMARK  3 active torsions:
REMARK  status: ('A' for Active; 'I' for Inactive)
REMARK       I    between atoms: C5_10  and  N1_5 
REMARK    1  A    between atoms: C5_10  and  C6_11 
REMARK    2  A    between atoms: C6_11  and  C7_12 
REMARK    3  A    between atoms: C7_12  and  C8_13 
ROOT
HETATM    1  O1  UNK     1      18.493  -0.537  35.509  1.00  0.00    -0.274 OA
HETATM    2  O3  UNK     1      18.164   1.909  31.370  1.00  0.00    -0.314 OA
HETATM    3  O4  UNK     1      18.680  -1.688  37.456  1.00  0.00    -0.259 OA
HETATM    4  C8  UNK     1      19.805  -2.612  35.571  1.00  0.00     0.025 A 
HETATM    5  C9  UNK     1      20.075  -2.515  34.251  1.00  0.00    -0.037 A 
HETATM    6  C10 UNK     1      19.572  -1.353  33.484  1.00  0.00     0.005 A 
HETATM    7  C11 UNK     1      19.339  -0.017  31.451  1.00  0.00     0.007 A 
HETATM    8  C12 UNK     1      18.795  -0.400  34.141  1.00  0.00     0.093 A 
HETATM    9  C13 UNK     1      19.851  -1.151  32.116  1.00  0.00     0.029 A 
HETATM   10  C14 UNK     1      18.567   0.884  32.172  1.00  0.00     0.089 A 
HETATM   11  C15 UNK     1      18.962  -1.597  36.265  1.00  0.00     0.295 A 
HETATM   12  C16 UNK     1      19.405   0.501  30.131  1.00  0.00    -0.020 A 
HETATM   13  C17 UNK     1      18.265   0.740  33.520  1.00  0.00     0.076 A 
HETATM   14  C18 UNK     1      20.861  -3.552  33.485  1.00  0.00     0.050 C 
HETATM   15  C19 UNK     1      18.676   1.668  30.136  1.00  0.00     0.056 A 
HETATM   16  C20 UNK     1      20.112  -0.093  28.979  1.00  0.00     0.052 C 
HETATM   17  C21 UNK     1      18.361   2.664  29.100  1.00  0.00     0.077 C 
ENDROOT
BRANCH   4  18
HETATM   18  C7  UNK     1      20.309  -3.707  36.476  1.00  0.00     0.055 C 
BRANCH  18  19
HETATM   19  C6  UNK     1      19.374  -4.903  36.496  1.00  0.00     0.108 C 
BRANCH  19  20
HETATM   20  C5  UNK     1      20.130  -6.189  36.281  1.00  0.00     0.220 C 
HETATM   21  O2  UNK     1      20.544  -6.490  35.159  1.00  0.00    -0.273 OA
HETATM   22  N1  UNK     1      20.307  -6.972  37.407  1.00  0.00    -0.352 N 
HETATM   23  C3  UNK     1      21.010  -8.246  37.365  1.00  0.00     0.126 C 
HETATM   24  C4  UNK     1      19.847  -6.672  38.759  1.00  0.00     0.126 C 
HETATM   25  C1  UNK     1      21.254  -8.594  38.826  1.00  0.00     0.021 C 
HETATM   26  C2  UNK     1      20.054  -7.970  39.527  1.00  0.00     0.021 C 
ENDBRANCH  19  20
ENDBRANCH  18  19
ENDBRANCH   4  18
TORSDOF 3
ENDMDL
MODEL 7
REMARK VINA RESULT:      -8.3      9.784     12.444
REMARK  3 active torsions:
REMARK  status: ('A' for Active; 'I' for Inactive)
REMARK       I    between atoms: C5_10  and  N1_5 
REMARK    1  A    between atoms: C5_10  and  C6_11 
REMARK    2  A    between atoms: C6_11  and  C7_12 
REMARK    3  A    between atoms: C7_12  and  C8_13 
ROOT
HETATM    1  O1  UNK     1      18.204   2.047  36.132  1.00  0.00    -0.274 OA
HETATM    2  O3  UNK     1      18.481   5.212  32.509  1.00  0.00    -0.314 OA
HETATM    3  O4  UNK     1      18.100   0.542  37.828  1.00  0.00    -0.259 OA
HETATM    4  C8  UNK     1      18.208  -0.356  35.624  1.00  0.00     0.025 A 
HETATM    5  C9  UNK     1      18.246  -0.105  34.297  1.00  0.00    -0.037 A 
HETATM    6  C10 UNK     1      18.305   1.294  33.818  1.00  0.00     0.005 A 
HETATM    7  C11 UNK     1      18.453   2.997  32.071  1.00  0.00     0.007 A 
HETATM    8  C12 UNK     1      18.281   2.327  34.754  1.00  0.00     0.093 A 
HETATM    9  C13 UNK     1      18.398   1.640  32.454  1.00  0.00     0.029 A 
HETATM   10  C14 UNK     1      18.417   3.969  33.062  1.00  0.00     0.089 A 
HETATM   11  C15 UNK     1      18.169   0.753  36.621  1.00  0.00     0.295 A 
HETATM   12  C16 UNK     1      18.545   3.702  30.842  1.00  0.00    -0.020 A 
HETATM   13  C17 UNK     1      18.333   3.688  34.420  1.00  0.00     0.076 A 
HETATM   14  C18 UNK     1      18.214  -1.188  33.246  1.00  0.00     0.050 C 
HETATM   15  C19 UNK     1      18.557   5.040  31.163  1.00  0.00     0.056 A 
HETATM   16  C20 UNK     1      18.612   3.119  29.488  1.00  0.00     0.052 C 
HETATM   17  C21 UNK     1      18.636   6.269  30.359  1.00  0.00     0.077 C 
ENDROOT
BRANCH   4  18
HETATM   18  C7  UNK     1      18.210  -1.731  36.242  1.00  0.00     0.055 C 
BRANCH  18  19
HETATM   19  C6  UNK     1      19.498  -2.481  35.955  1.00  0.00     0.108 C 
BRANCH  19  20
HETATM   20  C5  UNK     1      19.938  -3.285  37.151  1.00  0.00     0.220 C 
HETATM   21  O2  UNK     1      20.149  -2.732  38.232  1.00  0.00    -0.273 OA
HETATM   22  N1  UNK     1      20.083  -4.644  36.935  1.00  0.00    -0.352 N 
HETATM   23  C3  UNK     1      20.508  -5.556  37.987  1.00  0.00     0.126 C 
HETATM   24  C4  UNK     1      19.847  -5.358  35.685  1.00  0.00     0.126 C 
HETATM   25  C1  UNK     1      20.221  -6.941  37.427  1.00  0.00     0.021 C 
HETATM   26  C2  UNK     1      20.419  -6.748  35.929  1.00  0.00     0.021 C 
ENDBRANCH  19  20
ENDBRANCH  18  19
ENDBRANCH   4  18
TORSDOF 3
ENDMDL
MODEL 8
REMARK VINA RESULT:      -8.2     16.080     18.163
REMARK  3 active torsions:
REMARK  status: ('A' for Active; 'I' for Inactive)
REMARK       I    between atoms: C5_10  and  N1_5 
REMARK    1  A    between atoms: C5_10  and  C6_11 
REMARK    2  A    between atoms: C6_11  and  C7_12 
REMARK    3  A    between atoms: C7_12  and  C8_13 
ROOT
HETATM    1  O1  UNK     1      19.877   8.293  33.704  1.00  0.00    -0.274 OA
HETATM    2  O3  UNK     1      18.125  12.693  34.594  1.00  0.00    -0.314 OA
HETATM    3  O4  UNK     1      20.689   6.221  33.256  1.00  0.00    -0.259 OA
HETATM    4  C8  UNK     1      18.331   6.499  33.054  1.00  0.00     0.025 A 
HETATM    5  C9  UNK     1      17.271   7.326  33.183  1.00  0.00    -0.037 A 
HETATM    6  C10 UNK     1      17.488   8.741  33.557  1.00  0.00     0.005 A 
HETATM    7  C11 UNK     1      16.725  11.016  34.023  1.00  0.00     0.007 A 
HETATM    8  C12 UNK     1      18.788   9.179  33.807  1.00  0.00     0.093 A 
HETATM    9  C13 UNK     1      16.442   9.682  33.663  1.00  0.00     0.029 A 
HETATM   10  C14 UNK     1      18.045  11.374  34.263  1.00  0.00     0.089 A 
HETATM   11  C15 UNK     1      19.718   6.968  33.335  1.00  0.00     0.295 A 
HETATM   12  C16 UNK     1      15.962  12.197  34.222  1.00  0.00    -0.020 A 
HETATM   13  C17 UNK     1      19.116  10.494  34.168  1.00  0.00     0.076 A 
HETATM   14  C18 UNK     1      15.842   6.883  32.981  1.00  0.00     0.050 C 
HETATM   15  C19 UNK     1      16.858  13.183  34.568  1.00  0.00     0.056 A 
HETATM   16  C20 UNK     1      14.500  12.342  34.089  1.00  0.00     0.052 C 
HETATM   17  C21 UNK     1      16.711  14.608  34.898  1.00  0.00     0.077 C 
ENDROOT
BRANCH   4  18
HETATM   18  C7  UNK     1      18.252   5.058  32.618  1.00  0.00     0.055 C 
BRANCH  18  19
HETATM   19  C6  UNK     1      18.284   4.104  33.799  1.00  0.00     0.108 C 
BRANCH  19  20
HETATM   20  C5  UNK     1      18.117   2.675  33.350  1.00  0.00     0.220 C 
HETATM   21  O2  UNK     1      17.856   2.418  32.173  1.00  0.00    -0.273 OA
HETATM   22  N1  UNK     1      18.271   1.718  34.336  1.00  0.00    -0.352 N 
HETATM   23  C3  UNK     1      18.134   0.295  34.065  1.00  0.00     0.126 C 
HETATM   24  C4  UNK     1      18.582   1.957  35.742  1.00  0.00     0.126 C 
HETATM   25  C1  UNK     1      18.691  -0.384  35.308  1.00  0.00     0.021 C 
HETATM   26  C2  UNK     1      18.357   0.609  36.414  1.00  0.00     0.021 C 
ENDBRANCH  19  20
ENDBRANCH  18  19
ENDBRANCH   4  18
TORSDOF 3
ENDMDL
MODEL 9
REMARK VINA RESULT:      -8.2     33.606     35.506
REMARK  3 active torsions:
REMARK  status: ('A' for Active; 'I' for Inactive)
REMARK       I    between atoms: C5_10  and  N1_5 
REMARK    1  A    between atoms: C5_10  and  C6_11 
REMARK    2  A    between atoms: C6_11  and  C7_12 
REMARK    3  A    between atoms: C7_12  and  C8_13 
ROOT
HETATM    1  O1  UNK     1      15.974   6.740  10.226  1.00  0.00    -0.274 OA
HETATM    2  O3  UNK     1      18.487  10.770   9.409  1.00  0.00    -0.314 OA
HETATM    3  O4  UNK     1      14.783   4.841  10.581  1.00  0.00    -0.259 OA
HETATM    4  C8  UNK     1      13.614   6.647   9.557  1.00  0.00     0.025 A 
HETATM    5  C9  UNK     1      13.654   7.927   9.128  1.00  0.00    -0.037 A 
HETATM    6  C10 UNK     1      14.924   8.684   9.201  1.00  0.00     0.005 A 
HETATM    7  C11 UNK     1      16.307  10.664   8.831  1.00  0.00     0.007 A 
HETATM    8  C12 UNK     1      16.045   8.064   9.751  1.00  0.00     0.093 A 
HETATM    9  C13 UNK     1      15.064  10.006   8.730  1.00  0.00     0.029 A 
HETATM   10  C14 UNK     1      17.376   9.982   9.397  1.00  0.00     0.089 A 
HETATM   11  C15 UNK     1      14.812   5.993  10.155  1.00  0.00     0.295 A 
HETATM   12  C16 UNK     1      16.809  11.945   8.479  1.00  0.00    -0.020 A 
HETATM   13  C17 UNK     1      17.299   8.679   9.872  1.00  0.00     0.076 A 
HETATM   14  C18 UNK     1      12.452   8.659   8.581  1.00  0.00     0.050 C 
HETATM   15  C19 UNK     1      18.134  11.957   8.852  1.00  0.00     0.056 A 
HETATM   16  C20 UNK     1      16.061  13.047   7.843  1.00  0.00     0.052 C 
HETATM   17  C21 UNK     1      19.196  12.971   8.764  1.00  0.00     0.077 C 
ENDROOT
BRANCH   4  18
HETATM   18  C7  UNK     1      12.405   5.749   9.478  1.00  0.00     0.055 C 
BRANCH  18  19
HETATM   19  C6  UNK     1      12.367   4.959   8.183  1.00  0.00     0.108 C 
BRANCH  19  20
HETATM   20  C5  UNK     1      11.651   5.723   7.099  1.00  0.00     0.220 C 
HETATM   21  O2  UNK     1      12.242   6.040   6.064  1.00  0.00    -0.273 OA
HETATM   22  N1  UNK     1      10.327   6.029   7.360  1.00  0.00    -0.352 N 
HETATM   23  C3  UNK     1       9.501   6.769   6.417  1.00  0.00     0.126 C 
HETATM   24  C4  UNK     1       9.572   5.681   8.559  1.00  0.00     0.126 C 
HETATM   25  C1  UNK     1       8.083   6.597   6.940  1.00  0.00     0.021 C 
HETATM   26  C2  UNK     1       8.287   6.491   8.445  1.00  0.00     0.021 C 
ENDBRANCH  19  20
ENDBRANCH  18  19
ENDBRANCH   4  18
TORSDOF 3
ENDMDL
MODEL 10
REMARK VINA RESULT:      -8.1     34.098     35.657
REMARK  3 active torsions:
REMARK  status: ('A' for Active; 'I' for Inactive)
REMARK       I    between atoms: C5_10  and  N1_5 
REMARK    1  A    between atoms: C5_10  and  C6_11 
REMARK    2  A    between atoms: C6_11  and  C7_12 
REMARK    3  A    between atoms: C7_12  and  C8_13 
ROOT
HETATM    1  O1  UNK     1      14.555  10.648   8.721  1.00  0.00    -0.274 OA
HETATM    2  O3  UNK     1      18.141  13.590   7.416  1.00  0.00    -0.314 OA
HETATM    3  O4  UNK     1      12.877   9.262   9.365  1.00  0.00    -0.259 OA
HETATM    4  C8  UNK     1      15.093   8.527   9.835  1.00  0.00     0.025 A 
HETATM    5  C9  UNK     1      16.417   8.772   9.726  1.00  0.00    -0.037 A 
HETATM    6  C10 UNK     1      16.880  10.039   9.115  1.00  0.00     0.005 A 
HETATM    7  C11 UNK     1      18.607  11.620   8.416  1.00  0.00     0.007 A 
HETATM    8  C12 UNK     1      15.930  10.937   8.631  1.00  0.00     0.093 A 
HETATM    9  C13 UNK     1      18.241  10.393   9.009  1.00  0.00     0.029 A 
HETATM   10  C14 UNK     1      17.602  12.459   7.951  1.00  0.00     0.089 A 
HETATM   11  C15 UNK     1      14.082   9.485   9.304  1.00  0.00     0.295 A 
HETATM   12  C16 UNK     1      19.828  12.292   8.144  1.00  0.00    -0.020 A 
HETATM   13  C17 UNK     1      16.247  12.166   8.035  1.00  0.00     0.076 A 
HETATM   14  C18 UNK     1      17.482   7.804  10.181  1.00  0.00     0.050 C 
HETATM   15  C19 UNK     1      19.490  13.479   7.536  1.00  0.00     0.056 A 
HETATM   16  C20 UNK     1      21.190  11.813   8.448  1.00  0.00     0.052 C 
HETATM   17  C21 UNK     1      20.279  14.606   7.016  1.00  0.00     0.077 C 
ENDROOT
BRANCH   4  18
HETATM   18  C7  UNK     1      14.493   7.310  10.491  1.00  0.00     0.055 C 
BRANCH  18  19
HETATM   19  C6  UNK     1      14.176   6.220   9.484  1.00  0.00     0.108 C 
BRANCH  19  20
HETATM   20  C5  UNK     1      12.710   5.871   9.502  1.00  0.00     0.220 C 
HETATM   21  O2  UNK     1      12.183   5.443  10.530  1.00  0.00    -0.273 OA
HETATM   22  N1  UNK     1      12.037   6.061   8.308  1.00  0.00    -0.352 N 
HETATM   23  C3  UNK     1      10.620   5.764   8.160  1.00  0.00     0.126 C 
HETATM   24  C4  UNK     1      12.601   6.565   7.060  1.00  0.00     0.126 C 
HETATM   25  C1  UNK     1      10.233   6.409   6.838  1.00  0.00     0.021 C 
HETATM   26  C2  UNK     1      11.516   6.306   6.023  1.00  0.00     0.021 C 
ENDBRANCH  19  20
ENDBRANCH  18  19
ENDBRANCH   4  18
TORSDOF 3
ENDMDL
