MODEL 1
REMARK VINA RESULT:     -10.1      0.000      0.000
REMARK  6 active torsions:
REMARK  status: ('A' for Active; 'I' for Inactive)
REMARK    1  A    between atoms: C5_12  and  S1_1 
REMARK    2  A    between atoms: O1_2  and  S1_1 
REMARK    3  A    between atoms: C19_26  and  O1_2 
REMARK    4  A    between atoms: C3_10  and  N1_5 
REMARK    5  A    between atoms: C15_22  and  C8_15 
REMARK    6  A    between atoms: C18_25  and  C20_27 
ROOT
HETATM    1  C3  UNK     1      26.314  -7.459  37.986  1.00  0.00     0.080 A 
HETATM    2  C5  UNK     1      28.345  -8.139  36.886  1.00  0.00     0.099 A 
HETATM    3  C7  UNK     1      26.976  -8.302  37.101  1.00  0.00     0.060 A 
HETATM    4  C8  UNK     1      29.041  -7.134  37.557  1.00  0.00    -0.012 A 
HETATM    5  C9  UNK     1      27.001  -6.455  38.659  1.00  0.00     0.034 A 
HETATM    6  C12 UNK     1      28.369  -6.292  38.443  1.00  0.00     0.015 A 
ENDROOT
BRANCH   1   7
HETATM    7  N1  UNK     1      24.947  -7.621  38.202  1.00  0.00    -0.150 N 
HETATM    8  N2  UNK     1      24.275  -8.583  37.567  1.00  0.00    -0.147 NA
HETATM    9  C1  UNK     1      23.025  -8.413  38.033  1.00  0.00     0.120 A 
HETATM   10  C4  UNK     1      23.042  -7.286  38.975  1.00  0.00     0.110 A 
HETATM   11  C2  UNK     1      21.826  -9.129  37.740  1.00  0.00     0.007 A 
HETATM   12  C10 UNK     1      21.886  -6.846  39.642  1.00  0.00     0.037 A 
HETATM   13  N3  UNK     1      24.298  -6.818  39.046  1.00  0.00    -0.147 NA
HETATM   14  C11 UNK     1      20.716  -7.569  39.336  1.00  0.00     0.015 A 
HETATM   15  C6  UNK     1      20.664  -8.668  38.426  1.00  0.00    -0.023 A 
HETATM   16  C14 UNK     1      19.458  -9.338  38.175  1.00  0.00     0.012 A 
HETATM   17  C17 UNK     1      19.400 -10.416  37.284  1.00  0.00     0.001 A 
HETATM   18  C16 UNK     1      20.546 -10.853  36.622  1.00  0.00     0.001 A 
HETATM   19  C13 UNK     1      21.765 -10.215  36.844  1.00  0.00     0.015 A 
ENDBRANCH   1   7
BRANCH   2  20
HETATM   20  S1  UNK     1      29.141  -9.221  35.759  1.00  0.00     0.304 S 
HETATM   21  O2  UNK     1      30.268  -9.793  36.479  1.00  0.00    -0.193 OA
HETATM   22  O3  UNK     1      28.110 -10.067  35.177  1.00  0.00    -0.193 OA
BRANCH  20  23
HETATM   23  O1  UNK     1      29.705  -8.237  34.581  1.00  0.00    -0.229 OA
BRANCH  23  24
HETATM   24  C19 UNK     1      28.918  -7.729  33.577  1.00  0.00     0.089 A 
HETATM   25  C21 UNK     1      28.345  -6.473  33.723  1.00  0.00     0.038 A 
HETATM   26  C25 UNK     1      27.545  -5.957  32.703  1.00  0.00     0.003 A 
HETATM   27  C29 UNK     1      27.325  -6.704  31.545  1.00  0.00     0.000 A 
HETATM   28  C26 UNK     1      27.904  -7.965  31.408  1.00  0.00     0.003 A 
HETATM   29  C22 UNK     1      28.704  -8.480  32.428  1.00  0.00     0.038 A 
ENDBRANCH  23  24
ENDBRANCH  20  23
ENDBRANCH   2  20
BRANCH   4  30
HETATM   30  C15 UNK     1      30.470  -6.927  37.361  1.00  0.00     0.014 C 
HETATM   31  C18 UNK     1      31.019  -5.930  36.631  1.00  0.00     0.012 C 
BRANCH  31  32
HETATM   32  C20 UNK     1      32.464  -5.709  36.450  1.00  0.00    -0.036 A 
HETATM   33  C23 UNK     1      33.364  -6.450  37.198  1.00  0.00     0.011 A 
HETATM   34  C27 UNK     1      34.732  -6.242  37.024  1.00  0.00     0.001 A 
HETATM   35  C30 UNK     1      35.182  -5.296  36.103  1.00  0.00     0.000 A 
HETATM   36  C28 UNK     1      34.263  -4.557  35.357  1.00  0.00     0.001 A 
HETATM   37  C24 UNK     1      32.895  -4.765  35.531  1.00  0.00     0.011 A 
ENDBRANCH  31  32
ENDBRANCH   4  30
TORSDOF 6
ENDMDL
MODEL 2
REMARK VINA RESULT:      -9.9     16.985     19.087
REMARK  6 active torsions:
REMARK  status: ('A' for Active; 'I' for Inactive)
REMARK    1  A    between atoms: C5_12  and  S1_1 
REMARK    2  A    between atoms: O1_2  and  S1_1 
REMARK    3  A    between atoms: C19_26  and  O1_2 
REMARK    4  A    between atoms: C3_10  and  N1_5 
REMARK    5  A    between atoms: C15_22  and  C8_15 
REMARK    6  A    between atoms: C18_25  and  C20_27 
ROOT
HETATM    1  C3  UNK     1      18.103   5.095  32.965  1.00  0.00     0.080 A 
HETATM    2  C5  UNK     1      16.689   7.025  32.703  1.00  0.00     0.099 A 
HETATM    3  C7  UNK     1      16.890   5.651  32.577  1.00  0.00     0.060 A 
HETATM    4  C8  UNK     1      17.702   7.834  33.217  1.00  0.00    -0.012 A 
HETATM    5  C9  UNK     1      19.118   5.894  33.479  1.00  0.00     0.034 A 
HETATM    6  C12 UNK     1      18.917   7.269  33.604  1.00  0.00     0.015 A 
ENDROOT
BRANCH   1   7
HETATM    7  N1  UNK     1      18.305   3.722  32.840  1.00  0.00    -0.150 N 
HETATM    8  N2  UNK     1      18.795   3.214  31.707  1.00  0.00    -0.147 NA
HETATM    9  C1  UNK     1      18.839   1.898  31.980  1.00  0.00     0.120 A 
HETATM   10  C4  UNK     1      18.337   1.702  33.347  1.00  0.00     0.110 A 
HETATM   11  C2  UNK     1      19.270   0.803  31.173  1.00  0.00     0.007 A 
HETATM   12  C10 UNK     1      18.253   0.431  33.941  1.00  0.00     0.037 A 
HETATM   13  N3  UNK     1      18.012   2.903  33.851  1.00  0.00    -0.147 NA
HETATM   14  C11 UNK     1      18.684  -0.633  33.125  1.00  0.00     0.015 A 
HETATM   15  C6  UNK     1      19.175  -0.477  31.793  1.00  0.00    -0.023 A 
HETATM   16  C14 UNK     1      19.587  -1.588  31.044  1.00  0.00     0.012 A 
HETATM   17  C17 UNK     1      20.071  -1.444  29.738  1.00  0.00     0.001 A 
HETATM   18  C16 UNK     1      20.155  -0.183  29.148  1.00  0.00     0.001 A 
HETATM   19  C13 UNK     1      19.757   0.947  29.858  1.00  0.00     0.015 A 
ENDBRANCH   1   7
BRANCH   2  20
HETATM   20  S1  UNK     1      15.143   7.686  32.204  1.00  0.00     0.304 S 
HETATM   21  O2  UNK     1      15.447   8.868  31.413  1.00  0.00    -0.193 OA
HETATM   22  O3  UNK     1      14.367   6.587  31.650  1.00  0.00    -0.193 OA
BRANCH  20  23
HETATM   23  O1  UNK     1      14.429   8.148  33.601  1.00  0.00    -0.229 OA
BRANCH  23  24
HETATM   24  C19 UNK     1      14.146   9.457  33.910  1.00  0.00     0.089 A 
HETATM   25  C21 UNK     1      13.519  10.262  32.970  1.00  0.00     0.038 A 
HETATM   26  C25 UNK     1      13.232  11.591  33.284  1.00  0.00     0.003 A 
HETATM   27  C29 UNK     1      13.575  12.102  34.536  1.00  0.00     0.000 A 
HETATM   28  C26 UNK     1      14.206  11.284  35.473  1.00  0.00     0.003 A 
HETATM   29  C22 UNK     1      14.493   9.955  35.159  1.00  0.00     0.038 A 
ENDBRANCH  23  24
ENDBRANCH  20  23
ENDBRANCH   2  20
BRANCH   4  30
HETATM   30  C15 UNK     1      17.535   9.274  33.366  1.00  0.00     0.014 C 
HETATM   31  C18 UNK     1      18.461  10.115  33.879  1.00  0.00     0.012 C 
BRANCH  31  32
HETATM   32  C20 UNK     1      18.299  11.574  34.011  1.00  0.00    -0.036 A 
HETATM   33  C23 UNK     1      19.008  12.415  33.170  1.00  0.00     0.011 A 
HETATM   34  C27 UNK     1      18.852  13.796  33.295  1.00  0.00     0.001 A 
HETATM   35  C30 UNK     1      17.990  14.316  34.260  1.00  0.00     0.000 A 
HETATM   36  C28 UNK     1      17.284  13.455  35.101  1.00  0.00     0.001 A 
HETATM   37  C24 UNK     1      17.439  12.075  34.976  1.00  0.00     0.011 A 
ENDBRANCH  31  32
ENDBRANCH   4  30
TORSDOF 6
ENDMDL
MODEL 3
REMARK VINA RESULT:      -9.7      2.213      3.773
REMARK  6 active torsions:
REMARK  status: ('A' for Active; 'I' for Inactive)
REMARK    1  A    between atoms: C5_12  and  S1_1 
REMARK    2  A    between atoms: O1_2  and  S1_1 
REMARK    3  A    between atoms: C19_26  and  O1_2 
REMARK    4  A    between atoms: C3_10  and  N1_5 
REMARK    5  A    between atoms: C15_22  and  C8_15 
REMARK    6  A    between atoms: C18_25  and  C20_27 
ROOT
HETATM    1  C3  UNK     1      26.689  -8.168  37.244  1.00  0.00     0.080 A 
HETATM    2  C5  UNK     1      28.937  -7.314  37.348  1.00  0.00     0.099 A 
HETATM    3  C7  UNK     1      27.623  -7.313  37.817  1.00  0.00     0.060 A 
HETATM    4  C8  UNK     1      29.307  -8.170  36.311  1.00  0.00    -0.012 A 
HETATM    5  C9  UNK     1      27.050  -9.025  36.210  1.00  0.00     0.034 A 
HETATM    6  C12 UNK     1      28.364  -9.025  35.743  1.00  0.00     0.015 A 
ENDROOT
BRANCH   1   7
HETATM    7  N1  UNK     1      25.376  -8.168  37.711  1.00  0.00    -0.150 N 
HETATM    8  N2  UNK     1      24.466  -8.973  37.160  1.00  0.00    -0.147 NA
HETATM    9  C1  UNK     1      23.361  -8.682  37.869  1.00  0.00     0.120 A 
HETATM   10  C4  UNK     1      23.715  -7.655  38.858  1.00  0.00     0.110 A 
HETATM   11  C2  UNK     1      22.037  -9.206  37.771  1.00  0.00     0.007 A 
HETATM   12  C10 UNK     1      22.778  -7.128  39.763  1.00  0.00     0.037 A 
HETATM   13  N3  UNK     1      25.018  -7.364  38.713  1.00  0.00    -0.147 NA
HETATM   14  C11 UNK     1      21.479  -7.662  39.646  1.00  0.00     0.015 A 
HETATM   15  C6  UNK     1      21.101  -8.659  38.697  1.00  0.00    -0.023 A 
HETATM   16  C14 UNK     1      19.785  -9.140  38.643  1.00  0.00     0.012 A 
HETATM   17  C17 UNK     1      19.407 -10.118  37.716  1.00  0.00     0.001 A 
HETATM   18  C16 UNK     1      20.337 -10.640  36.818  1.00  0.00     0.001 A 
HETATM   19  C13 UNK     1      21.655 -10.191  36.838  1.00  0.00     0.015 A 
ENDBRANCH   1   7
BRANCH   2  20
HETATM   20  S1  UNK     1      30.085  -6.222  38.100  1.00  0.00     0.304 S 
HETATM   21  O2  UNK     1      29.328  -5.449  39.072  1.00  0.00    -0.193 OA
HETATM   22  O3  UNK     1      31.234  -7.020  38.501  1.00  0.00    -0.193 OA
BRANCH  20  23
HETATM   23  O1  UNK     1      30.561  -5.234  36.887  1.00  0.00    -0.229 OA
BRANCH  23  24
HETATM   24  C19 UNK     1      31.868  -5.104  36.484  1.00  0.00     0.089 A 
HETATM   25  C21 UNK     1      32.155  -4.478  35.279  1.00  0.00     0.038 A 
HETATM   26  C25 UNK     1      33.482  -4.347  34.870  1.00  0.00     0.003 A 
HETATM   27  C29 UNK     1      34.511  -4.844  35.671  1.00  0.00     0.000 A 
HETATM   28  C26 UNK     1      34.212  -5.473  36.880  1.00  0.00     0.003 A 
HETATM   29  C22 UNK     1      32.884  -5.604  37.288  1.00  0.00     0.038 A 
ENDBRANCH  23  24
ENDBRANCH  20  23
ENDBRANCH   2  20
BRANCH   4  30
HETATM   30  C15 UNK     1      30.669  -8.204  35.792  1.00  0.00     0.014 C 
HETATM   31  C18 UNK     1      31.030  -7.862  34.535  1.00  0.00     0.012 C 
BRANCH  31  32
HETATM   32  C20 UNK     1      32.409  -7.877  34.016  1.00  0.00    -0.036 A 
HETATM   33  C23 UNK     1      32.672  -7.332  32.770  1.00  0.00     0.011 A 
HETATM   34  C27 UNK     1      33.978  -7.345  32.281  1.00  0.00     0.001 A 
HETATM   35  C30 UNK     1      35.003  -7.903  33.044  1.00  0.00     0.000 A 
HETATM   36  C28 UNK     1      34.722  -8.449  34.297  1.00  0.00     0.001 A 
HETATM   37  C24 UNK     1      33.416  -8.436  34.786  1.00  0.00     0.011 A 
ENDBRANCH  31  32
ENDBRANCH   4  30
TORSDOF 6
ENDMDL
MODEL 4
REMARK VINA RESULT:      -9.5      1.780      2.578
REMARK  6 active torsions:
REMARK  status: ('A' for Active; 'I' for Inactive)
REMARK    1  A    between atoms: C5_12  and  S1_1 
REMARK    2  A    between atoms: O1_2  and  S1_1 
REMARK    3  A    between atoms: C19_26  and  O1_2 
REMARK    4  A    between atoms: C3_10  and  N1_5 
REMARK    5  A    between atoms: C15_22  and  C8_15 
REMARK    6  A    between atoms: C18_25  and  C20_27 
ROOT
HETATM    1  C3  UNK     1      26.357  -7.559  37.963  1.00  0.00     0.080 A 
HETATM    2  C5  UNK     1      28.314  -8.059  36.654  1.00  0.00     0.099 A 
HETATM    3  C7  UNK     1      26.948  -8.214  36.890  1.00  0.00     0.060 A 
HETATM    4  C8  UNK     1      29.078  -7.248  37.493  1.00  0.00    -0.012 A 
HETATM    5  C9  UNK     1      27.112  -6.748  38.804  1.00  0.00     0.034 A 
HETATM    6  C12 UNK     1      28.477  -6.593  38.567  1.00  0.00     0.015 A 
ENDROOT
BRANCH   1   7
HETATM    7  N1  UNK     1      24.993  -7.714  38.200  1.00  0.00    -0.150 N 
HETATM    8  N2  UNK     1      24.299  -8.652  37.553  1.00  0.00    -0.147 NA
HETATM    9  C1  UNK     1      23.059  -8.482  38.045  1.00  0.00     0.120 A 
HETATM   10  C4  UNK     1      23.105  -7.381  39.016  1.00  0.00     0.110 A 
HETATM   11  C2  UNK     1      21.848  -9.179  37.756  1.00  0.00     0.007 A 
HETATM   12  C10 UNK     1      21.966  -6.947  39.716  1.00  0.00     0.037 A 
HETATM   13  N3  UNK     1      24.367  -6.926  39.076  1.00  0.00    -0.147 NA
HETATM   14  C11 UNK     1      20.783  -7.651  39.413  1.00  0.00     0.015 A 
HETATM   15  C6  UNK     1      20.704  -8.725  38.475  1.00  0.00    -0.023 A 
HETATM   16  C14 UNK     1      19.487  -9.377  38.229  1.00  0.00     0.012 A 
HETATM   17  C17 UNK     1      19.402 -10.431  37.312  1.00  0.00     0.001 A 
HETATM   18  C16 UNK     1      20.532 -10.861  36.618  1.00  0.00     0.001 A 
HETATM   19  C13 UNK     1      21.760 -10.241  36.833  1.00  0.00     0.015 A 
ENDBRANCH   1   7
BRANCH   2  20
HETATM   20  S1  UNK     1      29.020  -8.901  35.288  1.00  0.00     0.304 S 
HETATM   21  O2  UNK     1      28.117 -10.000  34.982  1.00  0.00    -0.193 OA
HETATM   22  O3  UNK     1      29.349  -7.896  34.289  1.00  0.00    -0.193 OA
BRANCH  20  23
HETATM   23  O1  UNK     1      30.424  -9.510  35.866  1.00  0.00    -0.229 OA
BRANCH  23  24
HETATM   24  C19 UNK     1      31.487  -9.852  35.067  1.00  0.00     0.089 A 
HETATM   25  C21 UNK     1      32.572  -8.993  34.964  1.00  0.00     0.038 A 
HETATM   26  C25 UNK     1      33.652  -9.341  34.152  1.00  0.00     0.003 A 
HETATM   27  C29 UNK     1      33.635 -10.547  33.450  1.00  0.00     0.000 A 
HETATM   28  C26 UNK     1      32.540 -11.403  33.559  1.00  0.00     0.003 A 
HETATM   29  C22 UNK     1      31.460 -11.054  34.371  1.00  0.00     0.038 A 
ENDBRANCH  23  24
ENDBRANCH  20  23
ENDBRANCH   2  20
BRANCH   4  30
HETATM   30  C15 UNK     1      30.508  -7.056  37.282  1.00  0.00     0.014 C 
HETATM   31  C18 UNK     1      31.069  -5.976  36.694  1.00  0.00     0.012 C 
BRANCH  31  32
HETATM   32  C20 UNK     1      32.515  -5.773  36.499  1.00  0.00    -0.036 A 
HETATM   33  C23 UNK     1      32.956  -4.996  35.440  1.00  0.00     0.011 A 
HETATM   34  C27 UNK     1      34.325  -4.803  35.259  1.00  0.00     0.001 A 
HETATM   35  C30 UNK     1      35.235  -5.389  36.138  1.00  0.00     0.000 A 
HETATM   36  C28 UNK     1      34.776  -6.169  37.199  1.00  0.00     0.001 A 
HETATM   37  C24 UNK     1      33.407  -6.363  37.381  1.00  0.00     0.011 A 
ENDBRANCH  31  32
ENDBRANCH   4  30
TORSDOF 6
ENDMDL
MODEL 5
REMARK VINA RESULT:      -9.5      0.908      2.249
REMARK  6 active torsions:
REMARK  status: ('A' for Active; 'I' for Inactive)
REMARK    1  A    between atoms: C5_12  and  S1_1 
REMARK    2  A    between atoms: O1_2  and  S1_1 
REMARK    3  A    between atoms: C19_26  and  O1_2 
REMARK    4  A    between atoms: C3_10  and  N1_5 
REMARK    5  A    between atoms: C15_22  and  C8_15 
REMARK    6  A    between atoms: C18_25  and  C20_27 
ROOT
HETATM    1  C3  UNK     1      26.426  -8.703  36.998  1.00  0.00     0.080 A 
HETATM    2  C5  UNK     1      28.615  -8.975  36.035  1.00  0.00     0.099 A 
HETATM    3  C7  UNK     1      27.259  -9.299  36.059  1.00  0.00     0.060 A 
HETATM    4  C8  UNK     1      29.128  -8.056  36.950  1.00  0.00    -0.012 A 
HETATM    5  C9  UNK     1      26.929  -7.786  37.914  1.00  0.00     0.034 A 
HETATM    6  C12 UNK     1      28.285  -7.462  37.889  1.00  0.00     0.015 A 
ENDROOT
BRANCH   1   7
HETATM    7  N1  UNK     1      25.071  -9.027  37.023  1.00  0.00    -0.150 N 
HETATM    8  N2  UNK     1      24.210  -8.269  37.704  1.00  0.00    -0.147 NA
HETATM    9  C1  UNK     1      23.041  -8.897  37.485  1.00  0.00     0.120 A 
HETATM   10  C4  UNK     1      23.307 -10.063  36.633  1.00  0.00     0.110 A 
HETATM   11  C2  UNK     1      21.726  -8.584  37.942  1.00  0.00     0.007 A 
HETATM   12  C10 UNK     1      22.288 -10.938  36.217  1.00  0.00     0.037 A 
HETATM   13  N3  UNK     1      24.622 -10.098  36.367  1.00  0.00    -0.147 NA
HETATM   14  C11 UNK     1      20.999 -10.607  36.681  1.00  0.00     0.015 A 
HETATM   15  C6  UNK     1      20.707  -9.483  37.510  1.00  0.00    -0.023 A 
HETATM   16  C14 UNK     1      19.395  -9.220  37.931  1.00  0.00     0.012 A 
HETATM   17  C17 UNK     1      19.100  -8.119  38.743  1.00  0.00     0.001 A 
HETATM   18  C16 UNK     1      20.111  -7.251  39.156  1.00  0.00     0.001 A 
HETATM   19  C13 UNK     1      21.427  -7.475  38.760  1.00  0.00     0.015 A 
ENDBRANCH   1   7
BRANCH   2  20
HETATM   20  S1  UNK     1      29.631  -9.747  34.833  1.00  0.00     0.304 S 
HETATM   21  O2  UNK     1      30.838 -10.160  35.531  1.00  0.00    -0.193 OA
HETATM   22  O3  UNK     1      28.801 -10.711  34.127  1.00  0.00    -0.193 OA
BRANCH  20  23
HETATM   23  O1  UNK     1      30.006  -8.547  33.786  1.00  0.00    -0.229 OA
BRANCH  23  24
HETATM   24  C19 UNK     1      29.071  -7.881  33.032  1.00  0.00     0.089 A 
HETATM   25  C21 UNK     1      28.587  -8.464  31.870  1.00  0.00     0.038 A 
HETATM   26  C25 UNK     1      27.637  -7.787  31.103  1.00  0.00     0.003 A 
HETATM   27  C29 UNK     1      27.181  -6.532  31.508  1.00  0.00     0.000 A 
HETATM   28  C26 UNK     1      27.675  -5.954  32.678  1.00  0.00     0.003 A 
HETATM   29  C22 UNK     1      28.625  -6.631  33.443  1.00  0.00     0.038 A 
ENDBRANCH  23  24
ENDBRANCH  20  23
ENDBRANCH   2  20
BRANCH   4  30
HETATM   30  C15 UNK     1      30.538  -7.687  36.960  1.00  0.00     0.014 C 
HETATM   31  C18 UNK     1      31.060  -6.594  36.359  1.00  0.00     0.012 C 
BRANCH  31  32
HETATM   32  C20 UNK     1      32.482  -6.210  36.386  1.00  0.00    -0.036 A 
HETATM   33  C23 UNK     1      32.961  -5.313  35.445  1.00  0.00     0.011 A 
HETATM   34  C27 UNK     1      34.307  -4.948  35.473  1.00  0.00     0.001 A 
HETATM   35  C30 UNK     1      35.156  -5.486  36.441  1.00  0.00     0.000 A 
HETATM   36  C28 UNK     1      34.658  -6.388  37.382  1.00  0.00     0.001 A 
HETATM   37  C24 UNK     1      33.312  -6.753  37.354  1.00  0.00     0.011 A 
ENDBRANCH  31  32
ENDBRANCH   4  30
TORSDOF 6
ENDMDL
MODEL 6
REMARK VINA RESULT:      -9.3      2.568      3.411
REMARK  6 active torsions:
REMARK  status: ('A' for Active; 'I' for Inactive)
REMARK    1  A    between atoms: C5_12  and  S1_1 
REMARK    2  A    between atoms: O1_2  and  S1_1 
REMARK    3  A    between atoms: C19_26  and  O1_2 
REMARK    4  A    between atoms: C3_10  and  N1_5 
REMARK    5  A    between atoms: C15_22  and  C8_15 
REMARK    6  A    between atoms: C18_25  and  C20_27 
ROOT
HETATM    1  C3  UNK     1      26.389  -8.656  37.231  1.00  0.00     0.080 A 
HETATM    2  C5  UNK     1      28.709  -8.026  37.106  1.00  0.00     0.099 A 
HETATM    3  C7  UNK     1      27.421  -7.798  37.592  1.00  0.00     0.060 A 
HETATM    4  C8  UNK     1      28.955  -9.111  36.264  1.00  0.00    -0.012 A 
HETATM    5  C9  UNK     1      26.626  -9.740  36.393  1.00  0.00     0.034 A 
HETATM    6  C12 UNK     1      27.913  -9.967  35.907  1.00  0.00     0.015 A 
ENDROOT
BRANCH   1   7
HETATM    7  N1  UNK     1      25.102  -8.429  37.715  1.00  0.00    -0.150 N 
HETATM    8  N2  UNK     1      24.065  -9.101  37.212  1.00  0.00    -0.147 NA
HETATM    9  C1  UNK     1      23.034  -8.610  37.923  1.00  0.00     0.120 A 
HETATM   10  C4  UNK     1      23.567  -7.614  38.862  1.00  0.00     0.110 A 
HETATM   11  C2  UNK     1      21.643  -8.921  37.865  1.00  0.00     0.007 A 
HETATM   12  C10 UNK     1      22.743  -6.909  39.757  1.00  0.00     0.037 A 
HETATM   13  N3  UNK     1      24.895  -7.539  38.687  1.00  0.00    -0.147 NA
HETATM   14  C11 UNK     1      21.374  -7.234  39.680  1.00  0.00     0.015 A 
HETATM   15  C6  UNK     1      20.824  -8.196  38.779  1.00  0.00    -0.023 A 
HETATM   16  C14 UNK     1      19.448  -8.464  38.765  1.00  0.00     0.012 A 
HETATM   17  C17 UNK     1      18.902  -9.406  37.885  1.00  0.00     0.001 A 
HETATM   18  C16 UNK     1      19.719 -10.105  36.998  1.00  0.00     0.001 A 
HETATM   19  C13 UNK     1      21.091  -9.870  36.980  1.00  0.00     0.015 A 
ENDBRANCH   1   7
BRANCH   2  20
HETATM   20  S1  UNK     1      29.983  -6.922  37.587  1.00  0.00     0.304 S 
HETATM   21  O2  UNK     1      29.557  -6.342  38.851  1.00  0.00    -0.193 OA
HETATM   22  O3  UNK     1      31.241  -7.646  37.475  1.00  0.00    -0.193 OA
BRANCH  20  23
HETATM   23  O1  UNK     1      29.971  -5.760  36.436  1.00  0.00    -0.229 OA
BRANCH  23  24
HETATM   24  C19 UNK     1      30.326  -5.985  35.128  1.00  0.00     0.089 A 
HETATM   25  C21 UNK     1      29.343  -6.253  34.187  1.00  0.00     0.038 A 
HETATM   26  C25 UNK     1      29.704  -6.481  32.859  1.00  0.00     0.003 A 
HETATM   27  C29 UNK     1      31.048  -6.440  32.485  1.00  0.00     0.000 A 
HETATM   28  C26 UNK     1      32.029  -6.171  33.440  1.00  0.00     0.003 A 
HETATM   29  C22 UNK     1      31.667  -5.943  34.767  1.00  0.00     0.038 A 
ENDBRANCH  23  24
ENDBRANCH  20  23
ENDBRANCH   2  20
BRANCH   4  30
HETATM   30  C15 UNK     1      30.284  -9.387  35.735  1.00  0.00     0.014 C 
HETATM   31  C18 UNK     1      30.540 -10.021  34.569  1.00  0.00     0.012 C 
BRANCH  31  32
HETATM   32  C20 UNK     1      31.884 -10.282  34.024  1.00  0.00    -0.036 A 
HETATM   33  C23 UNK     1      32.919  -9.411  34.320  1.00  0.00     0.011 A 
HETATM   34  C27 UNK     1      34.191  -9.660  33.806  1.00  0.00     0.001 A 
HETATM   35  C30 UNK     1      34.411 -10.778  33.001  1.00  0.00     0.000 A 
HETATM   36  C28 UNK     1      33.359 -11.647  32.711  1.00  0.00     0.001 A 
HETATM   37  C24 UNK     1      32.087 -11.397  33.225  1.00  0.00     0.011 A 
ENDBRANCH  31  32
ENDBRANCH   4  30
TORSDOF 6
ENDMDL
MODEL 7
REMARK VINA RESULT:      -9.3      5.789      8.906
REMARK  6 active torsions:
REMARK  status: ('A' for Active; 'I' for Inactive)
REMARK    1  A    between atoms: C5_12  and  S1_1 
REMARK    2  A    between atoms: O1_2  and  S1_1 
REMARK    3  A    between atoms: C19_26  and  O1_2 
REMARK    4  A    between atoms: C3_10  and  N1_5 
REMARK    5  A    between atoms: C15_22  and  C8_15 
REMARK    6  A    between atoms: C18_25  and  C20_27 
ROOT
HETATM    1  C3  UNK     1      20.334  -4.841  36.902  1.00  0.00     0.080 A 
HETATM    2  C5  UNK     1      21.952  -6.343  37.862  1.00  0.00     0.099 A 
HETATM    3  C7  UNK     1      21.353  -5.084  37.815  1.00  0.00     0.060 A 
HETATM    4  C8  UNK     1      21.525  -7.350  36.997  1.00  0.00    -0.012 A 
HETATM    5  C9  UNK     1      19.903  -5.840  36.036  1.00  0.00     0.034 A 
HETATM    6  C12 UNK     1      20.502  -7.098  36.084  1.00  0.00     0.015 A 
ENDROOT
BRANCH   1   7
HETATM    7  N1  UNK     1      19.736  -3.583  36.854  1.00  0.00    -0.150 N 
HETATM    8  N2  UNK     1      19.671  -2.913  35.702  1.00  0.00    -0.147 NA
HETATM    9  C1  UNK     1      19.042  -1.781  36.065  1.00  0.00     0.120 A 
HETATM   10  C4  UNK     1      18.758  -1.863  37.504  1.00  0.00     0.110 A 
HETATM   11  C2  UNK     1      18.666  -0.644  35.289  1.00  0.00     0.007 A 
HETATM   12  C10 UNK     1      18.103  -0.834  38.201  1.00  0.00     0.037 A 
HETATM   13  N3  UNK     1      19.223  -3.038  37.958  1.00  0.00    -0.147 NA
HETATM   14  C11 UNK     1      17.742   0.277  37.413  1.00  0.00     0.015 A 
HETATM   15  C6  UNK     1      18.004   0.389  36.014  1.00  0.00    -0.023 A 
HETATM   16  C14 UNK     1      17.612   1.530  35.298  1.00  0.00     0.012 A 
HETATM   17  C17 UNK     1      17.864   1.647  33.926  1.00  0.00     0.001 A 
HETATM   18  C16 UNK     1      18.513   0.625  33.234  1.00  0.00     0.001 A 
HETATM   19  C13 UNK     1      18.918  -0.525  33.907  1.00  0.00     0.015 A 
ENDBRANCH   1   7
BRANCH   2  20
HETATM   20  S1  UNK     1      23.232  -6.609  39.031  1.00  0.00     0.304 S 
HETATM   21  O2  UNK     1      23.721  -5.289  39.398  1.00  0.00    -0.193 OA
HETATM   22  O3  UNK     1      22.713  -7.526  40.033  1.00  0.00    -0.193 OA
BRANCH  20  23
HETATM   23  O1  UNK     1      24.395  -7.393  38.189  1.00  0.00    -0.229 OA
BRANCH  23  24
HETATM   24  C19 UNK     1      25.623  -7.714  38.713  1.00  0.00     0.089 A 
HETATM   25  C21 UNK     1      25.810  -8.953  39.311  1.00  0.00     0.038 A 
HETATM   26  C25 UNK     1      27.058  -9.279  39.843  1.00  0.00     0.003 A 
HETATM   27  C29 UNK     1      28.107  -8.362  39.773  1.00  0.00     0.000 A 
HETATM   28  C26 UNK     1      27.908  -7.120  39.170  1.00  0.00     0.003 A 
HETATM   29  C22 UNK     1      26.660  -6.794  38.638  1.00  0.00     0.038 A 
ENDBRANCH  23  24
ENDBRANCH  20  23
ENDBRANCH   2  20
BRANCH   4  30
HETATM   30  C15 UNK     1      22.122  -8.680  37.013  1.00  0.00     0.014 C 
HETATM   31  C18 UNK     1      22.977  -9.160  36.083  1.00  0.00     0.012 C 
BRANCH  31  32
HETATM   32  C20 UNK     1      23.595 -10.497  36.109  1.00  0.00    -0.036 A 
HETATM   33  C23 UNK     1      22.844 -11.601  35.739  1.00  0.00     0.011 A 
HETATM   34  C27 UNK     1      23.431 -12.865  35.762  1.00  0.00     0.001 A 
HETATM   35  C30 UNK     1      24.762 -13.010  36.156  1.00  0.00     0.000 A 
HETATM   36  C28 UNK     1      25.505 -11.889  36.527  1.00  0.00     0.001 A 
HETATM   37  C24 UNK     1      24.918 -10.624  36.504  1.00  0.00     0.011 A 
ENDBRANCH  31  32
ENDBRANCH   4  30
TORSDOF 6
ENDMDL
MODEL 8
REMARK VINA RESULT:      -9.3     33.234     35.829
REMARK  6 active torsions:
REMARK  status: ('A' for Active; 'I' for Inactive)
REMARK    1  A    between atoms: C5_12  and  S1_1 
REMARK    2  A    between atoms: O1_2  and  S1_1 
REMARK    3  A    between atoms: C19_26  and  O1_2 
REMARK    4  A    between atoms: C3_10  and  N1_5 
REMARK    5  A    between atoms: C15_22  and  C8_15 
REMARK    6  A    between atoms: C18_25  and  C20_27 
ROOT
HETATM    1  C3  UNK     1      14.951   9.802   9.020  1.00  0.00     0.080 A 
HETATM    2  C5  UNK     1      16.586  11.455   8.396  1.00  0.00     0.099 A 
HETATM    3  C7  UNK     1      15.281  10.966   8.337  1.00  0.00     0.060 A 
HETATM    4  C8  UNK     1      17.552  10.776   9.139  1.00  0.00    -0.012 A 
HETATM    5  C9  UNK     1      15.908   9.119   9.764  1.00  0.00     0.034 A 
HETATM    6  C12 UNK     1      17.212   9.608   9.822  1.00  0.00     0.015 A 
ENDROOT
BRANCH   1   7
HETATM    7  N1  UNK     1      13.648   9.313   8.962  1.00  0.00    -0.150 N 
HETATM    8  N2  UNK     1      13.278   8.499   7.971  1.00  0.00    -0.147 NA
HETATM    9  C1  UNK     1      11.988   8.259   8.265  1.00  0.00     0.120 A 
HETATM   10  C4  UNK     1      11.658   8.997   9.491  1.00  0.00     0.110 A 
HETATM   11  C2  UNK     1      11.022   7.457   7.588  1.00  0.00     0.007 A 
HETATM   12  C10 UNK     1      10.378   8.959  10.070  1.00  0.00     0.037 A 
HETATM   13  N3  UNK     1      12.758   9.653   9.895  1.00  0.00    -0.147 NA
HETATM   14  C11 UNK     1       9.443   8.160   9.384  1.00  0.00     0.015 A 
HETATM   15  C6  UNK     1       9.730   7.431   8.190  1.00  0.00    -0.023 A 
HETATM   16  C14 UNK     1       8.742   6.657   7.564  1.00  0.00     0.012 A 
HETATM   17  C17 UNK     1       9.016   5.939   6.394  1.00  0.00     0.001 A 
HETATM   18  C16 UNK     1      10.286   5.976   5.820  1.00  0.00     0.001 A 
HETATM   19  C13 UNK     1      11.296   6.733   6.410  1.00  0.00     0.015 A 
ENDBRANCH   1   7
BRANCH   2  20
HETATM   20  S1  UNK     1      16.960  12.928   7.522  1.00  0.00     0.304 S 
HETATM   21  O2  UNK     1      17.303  13.918   8.531  1.00  0.00    -0.193 OA
HETATM   22  O3  UNK     1      17.895  12.573   6.466  1.00  0.00    -0.193 OA
BRANCH  20  23
HETATM   23  O1  UNK     1      15.546  13.353   6.818  1.00  0.00    -0.229 OA
BRANCH  23  24
HETATM   24  C19 UNK     1      14.838  14.479   7.161  1.00  0.00     0.089 A 
HETATM   25  C21 UNK     1      15.045  15.658   6.459  1.00  0.00     0.038 A 
HETATM   26  C25 UNK     1      14.326  16.802   6.808  1.00  0.00     0.003 A 
HETATM   27  C29 UNK     1      13.406  16.755   7.856  1.00  0.00     0.000 A 
HETATM   28  C26 UNK     1      13.206  15.565   8.555  1.00  0.00     0.003 A 
HETATM   29  C22 UNK     1      13.925  14.422   8.206  1.00  0.00     0.038 A 
ENDBRANCH  23  24
ENDBRANCH  20  23
ENDBRANCH   2  20
BRANCH   4  30
HETATM   30  C15 UNK     1      18.927  11.251   9.229  1.00  0.00     0.014 C 
HETATM   31  C18 UNK     1      19.480  11.825  10.321  1.00  0.00     0.012 C 
BRANCH  31  32
HETATM   32  C20 UNK     1      20.876  12.288  10.419  1.00  0.00    -0.036 A 
HETATM   33  C23 UNK     1      21.378  13.142   9.450  1.00  0.00     0.011 A 
HETATM   34  C27 UNK     1      22.698  13.581   9.546  1.00  0.00     0.001 A 
HETATM   35  C30 UNK     1      23.499  13.160  10.608  1.00  0.00     0.000 A 
HETATM   36  C28 UNK     1      22.979  12.299  11.575  1.00  0.00     0.001 A 
HETATM   37  C24 UNK     1      21.658  11.860  11.480  1.00  0.00     0.011 A 
ENDBRANCH  31  32
ENDBRANCH   4  30
TORSDOF 6
ENDMDL
MODEL 9
REMARK VINA RESULT:      -9.2     32.120     35.352
REMARK  6 active torsions:
REMARK  status: ('A' for Active; 'I' for Inactive)
REMARK    1  A    between atoms: C5_12  and  S1_1 
REMARK    2  A    between atoms: O1_2  and  S1_1 
REMARK    3  A    between atoms: C19_26  and  O1_2 
REMARK    4  A    between atoms: C3_10  and  N1_5 
REMARK    5  A    between atoms: C15_22  and  C8_15 
REMARK    6  A    between atoms: C18_25  and  C20_27 
ROOT
HETATM    1  C3  UNK     1      17.150  10.820   9.147  1.00  0.00     0.080 A 
HETATM    2  C5  UNK     1      15.700   8.963   9.639  1.00  0.00     0.099 A 
HETATM    3  C7  UNK     1      16.981   9.514   9.590  1.00  0.00     0.060 A 
HETATM    4  C8  UNK     1      14.598   9.723   9.247  1.00  0.00    -0.012 A 
HETATM    5  C9  UNK     1      16.057  11.584   8.754  1.00  0.00     0.034 A 
HETATM    6  C12 UNK     1      14.777  11.033   8.804  1.00  0.00     0.015 A 
ENDROOT
BRANCH   1   7
HETATM    7  N1  UNK     1      18.429  11.371   9.096  1.00  0.00    -0.150 N 
HETATM    8  N2  UNK     1      19.185  11.418  10.194  1.00  0.00    -0.147 NA
HETATM    9  C1  UNK     1      20.309  12.004   9.743  1.00  0.00     0.120 A 
HETATM   10  C4  UNK     1      20.129  12.283   8.312  1.00  0.00     0.110 A 
HETATM   11  C2  UNK     1      21.513  12.341  10.429  1.00  0.00     0.007 A 
HETATM   12  C10 UNK     1      21.127  12.896   7.535  1.00  0.00     0.037 A 
HETATM   13  N3  UNK     1      18.908  11.857   7.950  1.00  0.00    -0.147 NA
HETATM   14  C11 UNK     1      22.306  13.219   8.235  1.00  0.00     0.015 A 
HETATM   15  C6  UNK     1      22.513  12.962   9.624  1.00  0.00    -0.023 A 
HETATM   16  C14 UNK     1      23.718  13.314  10.250  1.00  0.00     0.012 A 
HETATM   17  C17 UNK     1      23.928  13.065  11.611  1.00  0.00     0.001 A 
HETATM   18  C16 UNK     1      22.938  12.456  12.382  1.00  0.00     0.001 A 
HETATM   19  C13 UNK     1      21.727  12.090  11.800  1.00  0.00     0.015 A 
ENDBRANCH   1   7
BRANCH   2  20
HETATM   20  S1  UNK     1      15.529   7.313  10.207  1.00  0.00     0.304 S 
HETATM   21  O2  UNK     1      16.794   6.972  10.839  1.00  0.00    -0.193 OA
HETATM   22  O3  UNK     1      14.276   7.241  10.942  1.00  0.00    -0.193 OA
BRANCH  20  23
HETATM   23  O1  UNK     1      15.361   6.428   8.841  1.00  0.00    -0.229 OA
BRANCH  23  24
HETATM   24  C19 UNK     1      14.143   6.077   8.313  1.00  0.00     0.089 A 
HETATM   25  C21 UNK     1      13.440   5.013   8.860  1.00  0.00     0.038 A 
HETATM   26  C25 UNK     1      12.202   4.656   8.323  1.00  0.00     0.003 A 
HETATM   27  C29 UNK     1      11.681   5.367   7.242  1.00  0.00     0.000 A 
HETATM   28  C26 UNK     1      12.396   6.434   6.698  1.00  0.00     0.003 A 
HETATM   29  C22 UNK     1      13.633   6.790   7.236  1.00  0.00     0.038 A 
ENDBRANCH  23  24
ENDBRANCH  20  23
ENDBRANCH   2  20
BRANCH   4  30
HETATM   30  C15 UNK     1      13.243   9.187   9.283  1.00  0.00     0.014 C 
HETATM   31  C18 UNK     1      12.166   9.833   9.783  1.00  0.00     0.012 C 
BRANCH  31  32
HETATM   32  C20 UNK     1      10.792   9.301   9.802  1.00  0.00    -0.036 A 
HETATM   33  C23 UNK     1      10.501   8.147   9.092  1.00  0.00     0.011 A 
HETATM   34  C27 UNK     1       9.201   7.642   9.113  1.00  0.00     0.001 A 
HETATM   35  C30 UNK     1       8.210   8.298   9.844  1.00  0.00     0.000 A 
HETATM   36  C28 UNK     1       8.519   9.459  10.553  1.00  0.00     0.001 A 
HETATM   37  C24 UNK     1       9.818   9.964  10.532  1.00  0.00     0.011 A 
ENDBRANCH  31  32
ENDBRANCH   4  30
TORSDOF 6
ENDMDL
MODEL 10
REMARK VINA RESULT:      -9.2     33.206     35.624
REMARK  6 active torsions:
REMARK  status: ('A' for Active; 'I' for Inactive)
REMARK    1  A    between atoms: C5_12  and  S1_1 
REMARK    2  A    between atoms: O1_2  and  S1_1 
REMARK    3  A    between atoms: C19_26  and  O1_2 
REMARK    4  A    between atoms: C3_10  and  N1_5 
REMARK    5  A    between atoms: C15_22  and  C8_15 
REMARK    6  A    between atoms: C18_25  and  C20_27 
ROOT
HETATM    1  C3  UNK     1      15.051   9.963   9.067  1.00  0.00     0.080 A 
HETATM    2  C5  UNK     1      16.658  11.647   8.454  1.00  0.00     0.099 A 
HETATM    3  C7  UNK     1      15.362  11.134   8.387  1.00  0.00     0.060 A 
HETATM    4  C8  UNK     1      17.631  10.987   9.203  1.00  0.00    -0.012 A 
HETATM    5  C9  UNK     1      16.015   9.299   9.817  1.00  0.00     0.034 A 
HETATM    6  C12 UNK     1      17.310   9.813   9.884  1.00  0.00     0.015 A 
ENDROOT
BRANCH   1   7
HETATM    7  N1  UNK     1      13.757   9.449   9.000  1.00  0.00    -0.150 N 
HETATM    8  N2  UNK     1      13.420   8.600   8.028  1.00  0.00    -0.147 NA
HETATM    9  C1  UNK     1      12.129   8.346   8.305  1.00  0.00     0.120 A 
HETATM   10  C4  UNK     1      11.764   9.113   9.503  1.00  0.00     0.110 A 
HETATM   11  C2  UNK     1      11.189   7.507   7.635  1.00  0.00     0.007 A 
HETATM   12  C10 UNK     1      10.474   9.069  10.061  1.00  0.00     0.037 A 
HETATM   13  N3  UNK     1      12.845   9.801   9.907  1.00  0.00    -0.147 NA
HETATM   14  C11 UNK     1       9.566   8.234   9.381  1.00  0.00     0.015 A 
HETATM   15  C6  UNK     1       9.887   7.476   8.215  1.00  0.00    -0.023 A 
HETATM   16  C14 UNK     1       8.925   6.666   7.595  1.00  0.00     0.012 A 
HETATM   17  C17 UNK     1       9.232   5.919   6.452  1.00  0.00     0.001 A 
HETATM   18  C16 UNK     1      10.512   5.963   5.900  1.00  0.00     0.001 A 
HETATM   19  C13 UNK     1      11.497   6.754   6.484  1.00  0.00     0.015 A 
ENDBRANCH   1   7
BRANCH   2  20
HETATM   20  S1  UNK     1      17.009  13.128   7.583  1.00  0.00     0.304 S 
HETATM   21  O2  UNK     1      15.786  13.480   6.879  1.00  0.00    -0.193 OA
HETATM   22  O3  UNK     1      17.624  14.045   8.530  1.00  0.00    -0.193 OA
BRANCH  20  23
HETATM   23  O1  UNK     1      18.147  12.697   6.491  1.00  0.00    -0.229 OA
BRANCH  23  24
HETATM   24  C19 UNK     1      19.100  13.561   6.009  1.00  0.00     0.089 A 
HETATM   25  C21 UNK     1      18.711  14.661   5.258  1.00  0.00     0.038 A 
HETATM   26  C25 UNK     1      19.679  15.539   4.769  1.00  0.00     0.003 A 
HETATM   27  C29 UNK     1      21.028  15.307   5.036  1.00  0.00     0.000 A 
HETATM   28  C26 UNK     1      21.410  14.198   5.791  1.00  0.00     0.003 A 
HETATM   29  C22 UNK     1      20.441  13.321   6.280  1.00  0.00     0.038 A 
ENDBRANCH  23  24
ENDBRANCH  20  23
ENDBRANCH   2  20
BRANCH   4  30
HETATM   30  C15 UNK     1      18.996  11.488   9.303  1.00  0.00     0.014 C 
HETATM   31  C18 UNK     1      19.592  11.899  10.444  1.00  0.00     0.012 C 
BRANCH  31  32
HETATM   32  C20 UNK     1      20.978  12.388  10.548  1.00  0.00    -0.036 A 
HETATM   33  C23 UNK     1      21.446  13.308   9.624  1.00  0.00     0.011 A 
HETATM   34  C27 UNK     1      22.757  13.771   9.725  1.00  0.00     0.001 A 
HETATM   35  C30 UNK     1      23.584  13.308  10.749  1.00  0.00     0.000 A 
HETATM   36  C28 UNK     1      23.099  12.381  11.672  1.00  0.00     0.001 A 
HETATM   37  C24 UNK     1      21.787  11.917  11.570  1.00  0.00     0.011 A 
ENDBRANCH  31  32
ENDBRANCH   4  30
TORSDOF 6
ENDMDL
