MODEL 1
REMARK VINA RESULT:      -9.1      0.000      0.000
REMARK  6 active torsions:
REMARK  status: ('A' for Active; 'I' for Inactive)
REMARK    1  A    between atoms: C2_8  and  O1_2 
REMARK    2  A    between atoms: C3_9  and  O1_2 
REMARK    3  A    between atoms: C16_22  and  N1_5 
REMARK    4  A    between atoms: C1_7  and  C8_14 
REMARK    5  A    between atoms: C2_8  and  C4_10 
REMARK    6  A    between atoms: C11_17  and  C5_11 
ROOT
HETATM    1  N2  UNK     1      16.842  -6.463  36.394  1.00  0.00    -0.191 NA
HETATM    2  C5  UNK     1      19.985  -5.042  37.129  1.00  0.00    -0.015 A 
HETATM    3  C12 UNK     1      19.222  -6.185  37.376  1.00  0.00     0.057 A 
HETATM    4  C13 UNK     1      21.263  -4.926  37.675  1.00  0.00     0.015 A 
HETATM    5  C16 UNK     1      21.017  -7.093  38.714  1.00  0.00     0.104 A 
HETATM    6  C17 UNK     1      19.739  -7.209  38.169  1.00  0.00     0.059 A 
HETATM    7  C18 UNK     1      21.780  -5.951  38.467  1.00  0.00     0.037 A 
HETATM    8  C22 UNK     1      17.906  -6.339  36.832  1.00  0.00     0.100 C 
ENDROOT
BRANCH   2   9
HETATM    9  C11 UNK     1      19.487  -3.944  36.308  1.00  0.00     0.014 C 
HETATM   10  C8  UNK     1      19.546  -2.636  36.643  1.00  0.00     0.012 C 
BRANCH  10  11
HETATM   11  C1  UNK     1      19.063  -1.525  35.805  1.00  0.00    -0.036 A 
HETATM   12  C6  UNK     1      19.129  -1.636  34.426  1.00  0.00     0.014 A 
HETATM   13  C9  UNK     1      18.671  -0.584  33.632  1.00  0.00     0.037 A 
HETATM   14  C3  UNK     1      18.152   0.565  34.229  1.00  0.00     0.069 A 
HETATM   15  C10 UNK     1      18.091   0.662  35.620  1.00  0.00     0.037 A 
HETATM   16  C7  UNK     1      18.550  -0.390  36.413  1.00  0.00     0.014 A 
BRANCH  14  17
HETATM   17  O1  UNK     1      17.704   1.591  33.456  1.00  0.00    -0.347 OA
BRANCH  17  18
HETATM   18  C2  UNK     1      17.927   2.914  33.940  1.00  0.00     0.214 C 
BRANCH  18  19
HETATM   19  C4  UNK     1      18.345   3.790  32.795  1.00  0.00    -0.034 A 
HETATM   20  C14 UNK     1      18.660   5.124  33.029  1.00  0.00     0.012 A 
HETATM   21  C19 UNK     1      19.050   5.938  31.965  1.00  0.00     0.043 A 
HETATM   22  C21 UNK     1      19.120   5.413  30.675  1.00  0.00     0.116 A 
HETATM   23  C20 UNK     1      18.802   4.074  30.448  1.00  0.00     0.043 A 
HETATM   24  F1  UNK     1      19.494   6.195  29.654  1.00  0.00    -0.206 F 
HETATM   25  C15 UNK     1      18.413   3.260  31.512  1.00  0.00     0.012 A 
ENDBRANCH  18  19
ENDBRANCH  17  18
ENDBRANCH  14  17
ENDBRANCH  10  11
ENDBRANCH   2   9
BRANCH   5  26
HETATM   26  N1  UNK     1      21.544  -8.137  39.520  1.00  0.00    -0.116 N 
HETATM   27  O2  UNK     1      22.591  -7.927  40.180  1.00  0.00    -0.532 OA
HETATM   28  O3  UNK     1      20.950  -9.241  39.551  1.00  0.00    -0.532 OA
ENDBRANCH   5  26
TORSDOF 6
ENDMDL
MODEL 2
REMARK VINA RESULT:      -9.0      7.827     13.355
REMARK  6 active torsions:
REMARK  status: ('A' for Active; 'I' for Inactive)
REMARK    1  A    between atoms: C2_8  and  O1_2 
REMARK    2  A    between atoms: C3_9  and  O1_2 
REMARK    3  A    between atoms: C16_22  and  N1_5 
REMARK    4  A    between atoms: C1_7  and  C8_14 
REMARK    5  A    between atoms: C2_8  and  C4_10 
REMARK    6  A    between atoms: C11_17  and  C5_11 
ROOT
HETATM    1  N2  UNK     1      14.083   9.313  34.354  1.00  0.00    -0.191 NA
HETATM    2  C5  UNK     1      17.539   9.777  33.827  1.00  0.00    -0.015 A 
HETATM    3  C12 UNK     1      16.393  10.476  34.210  1.00  0.00     0.057 A 
HETATM    4  C13 UNK     1      18.767  10.435  33.760  1.00  0.00     0.015 A 
HETATM    5  C16 UNK     1      17.704  12.490  34.455  1.00  0.00     0.104 A 
HETATM    6  C17 UNK     1      16.476  11.832  34.523  1.00  0.00     0.059 A 
HETATM    7  C18 UNK     1      18.850  11.792  34.074  1.00  0.00     0.037 A 
HETATM    8  C22 UNK     1      15.115   9.833  34.290  1.00  0.00     0.100 C 
ENDROOT
BRANCH   2   9
HETATM    9  C11 UNK     1      17.502   8.358  33.489  1.00  0.00     0.014 C 
HETATM   10  C8  UNK     1      18.476   7.693  32.830  1.00  0.00     0.012 C 
BRANCH  10  11
HETATM   11  C1  UNK     1      18.448   6.256  32.505  1.00  0.00    -0.036 A 
HETATM   12  C6  UNK     1      18.748   5.846  31.216  1.00  0.00     0.014 A 
HETATM   13  C9  UNK     1      18.722   4.485  30.908  1.00  0.00     0.037 A 
HETATM   14  C3  UNK     1      18.398   3.553  31.894  1.00  0.00     0.069 A 
HETATM   15  C10 UNK     1      18.099   3.982  33.187  1.00  0.00     0.037 A 
HETATM   16  C7  UNK     1      18.124   5.342  33.495  1.00  0.00     0.014 A 
BRANCH  14  17
HETATM   17  O1  UNK     1      18.374   2.226  31.594  1.00  0.00    -0.347 OA
BRANCH  17  18
HETATM   18  C2  UNK     1      18.816   1.846  30.292  1.00  0.00     0.214 C 
BRANCH  18  19
HETATM   19  C4  UNK     1      19.415   0.472  30.360  1.00  0.00    -0.034 A 
HETATM   20  C14 UNK     1      19.261  -0.290  31.513  1.00  0.00     0.012 A 
HETATM   21  C19 UNK     1      19.817  -1.568  31.575  1.00  0.00     0.043 A 
HETATM   22  C21 UNK     1      20.524  -2.074  30.485  1.00  0.00     0.116 A 
HETATM   23  C20 UNK     1      20.675  -1.305  29.333  1.00  0.00     0.043 A 
HETATM   24  F1  UNK     1      21.058  -3.301  30.546  1.00  0.00    -0.206 F 
HETATM   25  C15 UNK     1      20.118  -0.027  29.270  1.00  0.00     0.012 A 
ENDBRANCH  18  19
ENDBRANCH  17  18
ENDBRANCH  14  17
ENDBRANCH  10  11
ENDBRANCH   2   9
BRANCH   5  26
HETATM   26  N1  UNK     1      17.789  13.871  34.776  1.00  0.00    -0.116 N 
HETATM   27  O2  UNK     1      18.847  14.493  34.510  1.00  0.00    -0.532 OA
HETATM   28  O3  UNK     1      16.806  14.432  35.317  1.00  0.00    -0.532 OA
ENDBRANCH   5  26
TORSDOF 6
ENDMDL
MODEL 3
REMARK VINA RESULT:      -8.8      8.023     12.928
REMARK  6 active torsions:
REMARK  status: ('A' for Active; 'I' for Inactive)
REMARK    1  A    between atoms: C2_8  and  O1_2 
REMARK    2  A    between atoms: C3_9  and  O1_2 
REMARK    3  A    between atoms: C16_22  and  N1_5 
REMARK    4  A    between atoms: C1_7  and  C8_14 
REMARK    5  A    between atoms: C2_8  and  C4_10 
REMARK    6  A    between atoms: C11_17  and  C5_11 
ROOT
HETATM    1  N2  UNK     1      13.677   7.334  33.499  1.00  0.00    -0.191 NA
HETATM    2  C5  UNK     1      16.588   9.324  33.540  1.00  0.00    -0.015 A 
HETATM    3  C12 UNK     1      15.290   9.283  34.051  1.00  0.00     0.057 A 
HETATM    4  C13 UNK     1      17.429  10.390  33.858  1.00  0.00     0.015 A 
HETATM    5  C16 UNK     1      15.677  11.375  35.198  1.00  0.00     0.104 A 
HETATM    6  C17 UNK     1      14.835  10.309  34.880  1.00  0.00     0.059 A 
HETATM    7  C18 UNK     1      16.975  11.415  34.687  1.00  0.00     0.037 A 
HETATM    8  C22 UNK     1      14.398   8.205  33.746  1.00  0.00     0.100 C 
ENDROOT
BRANCH   2   9
HETATM    9  C11 UNK     1      17.109   8.275  32.669  1.00  0.00     0.014 C 
HETATM   10  C8  UNK     1      17.453   7.032  33.071  1.00  0.00     0.012 C 
BRANCH  10  11
HETATM   11  C1  UNK     1      17.960   5.967  32.189  1.00  0.00    -0.036 A 
HETATM   12  C6  UNK     1      17.837   4.644  32.583  1.00  0.00     0.014 A 
HETATM   13  C9  UNK     1      18.318   3.635  31.748  1.00  0.00     0.037 A 
HETATM   14  C3  UNK     1      18.913   3.962  30.530  1.00  0.00     0.069 A 
HETATM   15  C10 UNK     1      19.029   5.299  30.147  1.00  0.00     0.037 A 
HETATM   16  C7  UNK     1      18.549   6.308  30.982  1.00  0.00     0.014 A 
BRANCH  14  17
HETATM   17  O1  UNK     1      19.380   2.978  29.714  1.00  0.00    -0.347 OA
BRANCH  17  18
HETATM   18  C2  UNK     1      18.486   1.910  29.408  1.00  0.00     0.214 C 
BRANCH  18  19
HETATM   19  C4  UNK     1      19.157   0.605  29.722  1.00  0.00    -0.034 A 
HETATM   20  C14 UNK     1      19.278   0.194  31.046  1.00  0.00     0.012 A 
HETATM   21  C19 UNK     1      19.901  -1.020  31.337  1.00  0.00     0.043 A 
HETATM   22  C21 UNK     1      20.399  -1.813  30.304  1.00  0.00     0.116 A 
HETATM   23  C20 UNK     1      20.275  -1.395  28.980  1.00  0.00     0.043 A 
HETATM   24  F1  UNK     1      20.997  -2.979  30.585  1.00  0.00    -0.206 F 
HETATM   25  C15 UNK     1      19.651  -0.181  28.688  1.00  0.00     0.012 A 
ENDBRANCH  18  19
ENDBRANCH  17  18
ENDBRANCH  14  17
ENDBRANCH  10  11
ENDBRANCH   2   9
BRANCH   5  26
HETATM   26  N1  UNK     1      15.215  12.418  36.042  1.00  0.00    -0.116 N 
HETATM   27  O2  UNK     1      16.000  12.906  36.892  1.00  0.00    -0.532 OA
HETATM   28  O3  UNK     1      14.034  12.825  35.917  1.00  0.00    -0.532 OA
ENDBRANCH   5  26
TORSDOF 6
ENDMDL
MODEL 4
REMARK VINA RESULT:      -8.8      4.719     11.036
REMARK  6 active torsions:
REMARK  status: ('A' for Active; 'I' for Inactive)
REMARK    1  A    between atoms: C2_8  and  O1_2 
REMARK    2  A    between atoms: C3_9  and  O1_2 
REMARK    3  A    between atoms: C16_22  and  N1_5 
REMARK    4  A    between atoms: C1_7  and  C8_14 
REMARK    5  A    between atoms: C2_8  and  C4_10 
REMARK    6  A    between atoms: C11_17  and  C5_11 
ROOT
HETATM    1  N2  UNK     1      17.909   0.745  38.077  1.00  0.00    -0.191 NA
HETATM    2  C5  UNK     1      18.752  -0.999  35.130  1.00  0.00    -0.015 A 
HETATM    3  C12 UNK     1      18.351   0.263  35.571  1.00  0.00     0.057 A 
HETATM    4  C13 UNK     1      18.981  -1.223  33.772  1.00  0.00     0.015 A 
HETATM    5  C16 UNK     1      18.407   1.075  33.296  1.00  0.00     0.104 A 
HETATM    6  C17 UNK     1      18.178   1.299  34.653  1.00  0.00     0.059 A 
HETATM    7  C18 UNK     1      18.809  -0.187  32.855  1.00  0.00     0.037 A 
HETATM    8  C22 UNK     1      18.106   0.530  36.957  1.00  0.00     0.100 C 
ENDROOT
BRANCH   2   9
HETATM    9  C11 UNK     1      18.945  -2.114  36.051  1.00  0.00     0.014 C 
HETATM   10  C8  UNK     1      19.623  -3.247  35.765  1.00  0.00     0.012 C 
BRANCH  10  11
HETATM   11  C1  UNK     1      19.835  -4.365  36.701  1.00  0.00    -0.036 A 
HETATM   12  C6  UNK     1      20.943  -4.352  37.534  1.00  0.00     0.014 A 
HETATM   13  C9  UNK     1      21.144  -5.411  38.420  1.00  0.00     0.037 A 
HETATM   14  C3  UNK     1      20.235  -6.467  38.462  1.00  0.00     0.069 A 
HETATM   15  C10 UNK     1      19.124  -6.466  37.617  1.00  0.00     0.037 A 
HETATM   16  C7  UNK     1      18.924  -5.408  36.731  1.00  0.00     0.014 A 
BRANCH  14  17
HETATM   17  O1  UNK     1      20.430  -7.500  39.327  1.00  0.00    -0.347 OA
BRANCH  17  18
HETATM   18  C2  UNK     1      21.662  -8.211  39.222  1.00  0.00     0.214 C 
BRANCH  18  19
HETATM   19  C4  UNK     1      21.606  -9.110  38.021  1.00  0.00    -0.034 A 
HETATM   20  C14 UNK     1      22.533  -8.949  36.997  1.00  0.00     0.012 A 
HETATM   21  C19 UNK     1      22.482  -9.785  35.882  1.00  0.00     0.043 A 
HETATM   22  C21 UNK     1      21.504 -10.776  35.799  1.00  0.00     0.116 A 
HETATM   23  C20 UNK     1      20.578 -10.932  36.829  1.00  0.00     0.043 A 
HETATM   24  F1  UNK     1      21.455 -11.580  34.728  1.00  0.00    -0.206 F 
HETATM   25  C15 UNK     1      20.630 -10.096  37.946  1.00  0.00     0.012 A 
ENDBRANCH  18  19
ENDBRANCH  17  18
ENDBRANCH  14  17
ENDBRANCH  10  11
ENDBRANCH   2   9
BRANCH   5  26
HETATM   26  N1  UNK     1      18.233   2.130  32.362  1.00  0.00    -0.116 N 
HETATM   27  O2  UNK     1      17.913   3.269  32.782  1.00  0.00    -0.532 OA
HETATM   28  O3  UNK     1      18.404   1.896  31.141  1.00  0.00    -0.532 OA
ENDBRANCH   5  26
TORSDOF 6
ENDMDL
MODEL 5
REMARK VINA RESULT:      -8.8      5.282     11.469
REMARK  6 active torsions:
REMARK  status: ('A' for Active; 'I' for Inactive)
REMARK    1  A    between atoms: C2_8  and  O1_2 
REMARK    2  A    between atoms: C3_9  and  O1_2 
REMARK    3  A    between atoms: C16_22  and  N1_5 
REMARK    4  A    between atoms: C1_7  and  C8_14 
REMARK    5  A    between atoms: C2_8  and  C4_10 
REMARK    6  A    between atoms: C11_17  and  C5_11 
ROOT
HETATM    1  N2  UNK     1      18.175   2.356  30.260  1.00  0.00    -0.191 NA
HETATM    2  C5  UNK     1      18.090   4.018  33.370  1.00  0.00    -0.015 A 
HETATM    3  C12 UNK     1      17.955   4.260  32.002  1.00  0.00     0.057 A 
HETATM    4  C13 UNK     1      17.966   5.068  34.279  1.00  0.00     0.015 A 
HETATM    5  C16 UNK     1      17.574   6.603  32.455  1.00  0.00     0.104 A 
HETATM    6  C17 UNK     1      17.698   5.553  31.545  1.00  0.00     0.059 A 
HETATM    7  C18 UNK     1      17.707   6.360  33.822  1.00  0.00     0.037 A 
HETATM    8  C22 UNK     1      18.077   3.207  31.039  1.00  0.00     0.100 C 
ENDROOT
BRANCH   2   9
HETATM    9  C11 UNK     1      18.361   2.684  33.895  1.00  0.00     0.014 C 
HETATM   10  C8  UNK     1      17.909   2.210  35.077  1.00  0.00     0.012 C 
BRANCH  10  11
HETATM   11  C1  UNK     1      18.166   0.857  35.600  1.00  0.00    -0.036 A 
HETATM   12  C6  UNK     1      18.740  -0.094  34.770  1.00  0.00     0.014 A 
HETATM   13  C9  UNK     1      18.983  -1.375  35.265  1.00  0.00     0.037 A 
HETATM   14  C3  UNK     1      18.649  -1.689  36.582  1.00  0.00     0.069 A 
HETATM   15  C10 UNK     1      18.072  -0.722  37.405  1.00  0.00     0.037 A 
HETATM   16  C7  UNK     1      17.829   0.560  36.910  1.00  0.00     0.014 A 
BRANCH  14  17
HETATM   17  O1  UNK     1      18.887  -2.939  37.065  1.00  0.00    -0.347 OA
BRANCH  17  18
HETATM   18  C2  UNK     1      20.234  -3.255  37.414  1.00  0.00     0.214 C 
BRANCH  18  19
HETATM   19  C4  UNK     1      20.496  -4.698  37.097  1.00  0.00    -0.034 A 
HETATM   20  C14 UNK     1      21.330  -5.443  37.924  1.00  0.00     0.012 A 
HETATM   21  C19 UNK     1      21.573  -6.785  37.630  1.00  0.00     0.043 A 
HETATM   22  C21 UNK     1      20.981  -7.372  36.511  1.00  0.00     0.116 A 
HETATM   23  C20 UNK     1      20.147  -6.618  35.687  1.00  0.00     0.043 A 
HETATM   24  F1  UNK     1      21.215  -8.660  36.229  1.00  0.00    -0.206 F 
HETATM   25  C15 UNK     1      19.903  -5.276  35.981  1.00  0.00     0.012 A 
ENDBRANCH  18  19
ENDBRANCH  17  18
ENDBRANCH  14  17
ENDBRANCH  10  11
ENDBRANCH   2   9
BRANCH   5  26
HETATM   26  N1  UNK     1      17.309   7.918  31.990  1.00  0.00    -0.116 N 
HETATM   27  O2  UNK     1      16.778   8.070  30.863  1.00  0.00    -0.532 OA
HETATM   28  O3  UNK     1      17.614   8.894  32.719  1.00  0.00    -0.532 OA
ENDBRANCH   5  26
TORSDOF 6
ENDMDL
MODEL 6
REMARK VINA RESULT:      -8.6      6.943      9.744
REMARK  6 active torsions:
REMARK  status: ('A' for Active; 'I' for Inactive)
REMARK    1  A    between atoms: C2_8  and  O1_2 
REMARK    2  A    between atoms: C3_9  and  O1_2 
REMARK    3  A    between atoms: C16_22  and  N1_5 
REMARK    4  A    between atoms: C1_7  and  C8_14 
REMARK    5  A    between atoms: C2_8  and  C4_10 
REMARK    6  A    between atoms: C11_17  and  C5_11 
ROOT
HETATM    1  N2  UNK     1      18.597   0.969  34.323  1.00  0.00    -0.191 NA
HETATM    2  C5  UNK     1      18.345   2.671  31.244  1.00  0.00    -0.015 A 
HETATM    3  C12 UNK     1      18.752   1.450  31.782  1.00  0.00     0.057 A 
HETATM    4  C13 UNK     1      18.443   2.895  29.871  1.00  0.00     0.015 A 
HETATM    5  C16 UNK     1      19.357   0.678  29.574  1.00  0.00     0.104 A 
HETATM    6  C17 UNK     1      19.259   0.454  30.946  1.00  0.00     0.059 A 
HETATM    7  C18 UNK     1      18.948   1.899  29.035  1.00  0.00     0.037 A 
HETATM    8  C22 UNK     1      18.667   1.184  33.187  1.00  0.00     0.100 C 
ENDROOT
BRANCH   2   9
HETATM    9  C11 UNK     1      17.810   3.743  32.077  1.00  0.00     0.014 C 
HETATM   10  C8  UNK     1      18.364   4.967  32.216  1.00  0.00     0.012 C 
BRANCH  10  11
HETATM   11  C1  UNK     1      17.815   6.057  33.041  1.00  0.00    -0.036 A 
HETATM   12  C6  UNK     1      16.508   6.470  32.836  1.00  0.00     0.014 A 
HETATM   13  C9  UNK     1      15.987   7.502  33.618  1.00  0.00     0.037 A 
HETATM   14  C3  UNK     1      16.780   8.105  34.594  1.00  0.00     0.069 A 
HETATM   15  C10 UNK     1      18.093   7.678  34.789  1.00  0.00     0.037 A 
HETATM   16  C7  UNK     1      18.614   6.647  34.007  1.00  0.00     0.014 A 
BRANCH  14  17
HETATM   17  O1  UNK     1      16.271   9.111  35.357  1.00  0.00    -0.347 OA
BRANCH  17  18
HETATM   18  C2  UNK     1      15.549  10.138  34.680  1.00  0.00     0.214 C 
BRANCH  18  19
HETATM   19  C4  UNK     1      16.393  11.378  34.628  1.00  0.00    -0.034 A 
HETATM   20  C14 UNK     1      17.633  11.340  34.000  1.00  0.00     0.012 A 
HETATM   21  C19 UNK     1      18.417  12.492  33.951  1.00  0.00     0.043 A 
HETATM   22  C21 UNK     1      17.957  13.674  34.531  1.00  0.00     0.116 A 
HETATM   23  C20 UNK     1      16.713  13.705  35.160  1.00  0.00     0.043 A 
HETATM   24  F1  UNK     1      18.710  14.781  34.484  1.00  0.00    -0.206 F 
HETATM   25  C15 UNK     1      15.927  12.552  35.208  1.00  0.00     0.012 A 
ENDBRANCH  18  19
ENDBRANCH  17  18
ENDBRANCH  14  17
ENDBRANCH  10  11
ENDBRANCH   2   9
BRANCH   5  26
HETATM   26  N1  UNK     1      19.870  -0.336  28.723  1.00  0.00    -0.116 N 
HETATM   27  O2  UNK     1      20.954  -0.893  29.025  1.00  0.00    -0.532 OA
HETATM   28  O3  UNK     1      19.227  -0.648  27.691  1.00  0.00    -0.532 OA
ENDBRANCH   5  26
TORSDOF 6
ENDMDL
MODEL 7
REMARK VINA RESULT:      -8.6      2.055      2.680
REMARK  6 active torsions:
REMARK  status: ('A' for Active; 'I' for Inactive)
REMARK    1  A    between atoms: C2_8  and  O1_2 
REMARK    2  A    between atoms: C3_9  and  O1_2 
REMARK    3  A    between atoms: C16_22  and  N1_5 
REMARK    4  A    between atoms: C1_7  and  C8_14 
REMARK    5  A    between atoms: C2_8  and  C4_10 
REMARK    6  A    between atoms: C11_17  and  C5_11 
ROOT
HETATM    1  N2  UNK     1      20.890  -7.077  33.064  1.00  0.00    -0.191 NA
HETATM    2  C5  UNK     1      19.576  -6.745  36.320  1.00  0.00    -0.015 A 
HETATM    3  C12 UNK     1      20.157  -7.689  35.472  1.00  0.00     0.057 A 
HETATM    4  C13 UNK     1      19.193  -7.110  37.611  1.00  0.00     0.015 A 
HETATM    5  C16 UNK     1      19.968  -9.361  37.205  1.00  0.00     0.104 A 
HETATM    6  C17 UNK     1      20.352  -8.997  35.915  1.00  0.00     0.059 A 
HETATM    7  C18 UNK     1      19.389  -8.417  38.054  1.00  0.00     0.037 A 
HETATM    8  C22 UNK     1      20.562  -7.351  34.140  1.00  0.00     0.100 C 
ENDROOT
BRANCH   2   9
HETATM    9  C11 UNK     1      19.350  -5.365  35.902  1.00  0.00     0.014 C 
HETATM   10  C8  UNK     1      19.504  -4.280  36.692  1.00  0.00     0.012 C 
BRANCH  10  11
HETATM   11  C1  UNK     1      19.295  -2.886  36.265  1.00  0.00    -0.036 A 
HETATM   12  C6  UNK     1      19.937  -2.421  35.128  1.00  0.00     0.014 A 
HETATM   13  C9  UNK     1      19.739  -1.101  34.723  1.00  0.00     0.037 A 
HETATM   14  C3  UNK     1      18.903  -0.263  35.461  1.00  0.00     0.069 A 
HETATM   15  C10 UNK     1      18.264  -0.745  36.603  1.00  0.00     0.037 A 
HETATM   16  C7  UNK     1      18.462  -2.065  37.008  1.00  0.00     0.014 A 
BRANCH  14  17
HETATM   17  O1  UNK     1      18.709   1.025  35.066  1.00  0.00    -0.347 OA
BRANCH  17  18
HETATM   18  C2  UNK     1      17.922   1.233  33.895  1.00  0.00     0.214 C 
BRANCH  18  19
HETATM   19  C4  UNK     1      18.179   2.617  33.372  1.00  0.00    -0.034 A 
HETATM   20  C14 UNK     1      18.156   2.849  32.001  1.00  0.00     0.012 A 
HETATM   21  C19 UNK     1      18.394   4.135  31.515  1.00  0.00     0.043 A 
HETATM   22  C21 UNK     1      18.654   5.178  32.403  1.00  0.00     0.116 A 
HETATM   23  C20 UNK     1      18.676   4.938  33.777  1.00  0.00     0.043 A 
HETATM   24  F1  UNK     1      18.882   6.413  31.936  1.00  0.00    -0.206 F 
HETATM   25  C15 UNK     1      18.437   3.652  34.263  1.00  0.00     0.012 A 
ENDBRANCH  18  19
ENDBRANCH  17  18
ENDBRANCH  14  17
ENDBRANCH  10  11
ENDBRANCH   2   9
BRANCH   5  26
HETATM   26  N1  UNK     1      20.169 -10.692  37.658  1.00  0.00    -0.116 N 
HETATM   27  O2  UNK     1      21.183 -11.321  37.268  1.00  0.00    -0.532 OA
HETATM   28  O3  UNK     1      19.327 -11.205  38.435  1.00  0.00    -0.532 OA
ENDBRANCH   5  26
TORSDOF 6
ENDMDL
MODEL 8
REMARK VINA RESULT:      -8.5      5.353     11.315
REMARK  6 active torsions:
REMARK  status: ('A' for Active; 'I' for Inactive)
REMARK    1  A    between atoms: C2_8  and  O1_2 
REMARK    2  A    between atoms: C3_9  and  O1_2 
REMARK    3  A    between atoms: C16_22  and  N1_5 
REMARK    4  A    between atoms: C1_7  and  C8_14 
REMARK    5  A    between atoms: C2_8  and  C4_10 
REMARK    6  A    between atoms: C11_17  and  C5_11 
ROOT
HETATM    1  N2  UNK     1      21.270  -2.511  33.184  1.00  0.00    -0.191 NA
HETATM    2  C5  UNK     1      19.264  -2.440  36.083  1.00  0.00    -0.015 A 
HETATM    3  C12 UNK     1      19.369  -1.860  34.818  1.00  0.00     0.057 A 
HETATM    4  C13 UNK     1      18.227  -2.064  36.938  1.00  0.00     0.015 A 
HETATM    5  C16 UNK     1      17.402  -0.530  35.264  1.00  0.00     0.104 A 
HETATM    6  C17 UNK     1      18.438  -0.905  34.410  1.00  0.00     0.059 A 
HETATM    7  C18 UNK     1      17.296  -1.110  36.529  1.00  0.00     0.037 A 
HETATM    8  C22 UNK     1      20.421  -2.220  33.914  1.00  0.00     0.100 C 
ENDROOT
BRANCH   2   9
HETATM    9  C11 UNK     1      20.214  -3.441  36.556  1.00  0.00     0.014 C 
HETATM   10  C8  UNK     1      19.928  -4.746  36.759  1.00  0.00     0.012 C 
BRANCH  10  11
HETATM   11  C1  UNK     1      20.891  -5.762  37.217  1.00  0.00    -0.036 A 
HETATM   12  C6  UNK     1      20.932  -6.993  36.582  1.00  0.00     0.014 A 
HETATM   13  C9  UNK     1      21.844  -7.956  37.016  1.00  0.00     0.037 A 
HETATM   14  C3  UNK     1      22.703  -7.674  38.078  1.00  0.00     0.069 A 
HETATM   15  C10 UNK     1      22.649  -6.431  38.708  1.00  0.00     0.037 A 
HETATM   16  C7  UNK     1      21.737  -5.468  38.275  1.00  0.00     0.014 A 
BRANCH  14  17
HETATM   17  O1  UNK     1      23.593  -8.613  38.501  1.00  0.00    -0.347 OA
BRANCH  17  18
HETATM   18  C2  UNK     1      24.731  -8.149  39.225  1.00  0.00     0.214 C 
BRANCH  18  19
HETATM   19  C4  UNK     1      25.976  -8.529  38.477  1.00  0.00    -0.034 A 
HETATM   20  C14 UNK     1      27.221  -8.192  38.998  1.00  0.00     0.012 A 
HETATM   21  C19 UNK     1      28.377  -8.546  38.303  1.00  0.00     0.043 A 
HETATM   22  C21 UNK     1      28.281  -9.233  37.093  1.00  0.00     0.116 A 
HETATM   23  C20 UNK     1      27.029  -9.566  36.577  1.00  0.00     0.043 A 
HETATM   24  F1  UNK     1      29.392  -9.573  36.426  1.00  0.00    -0.206 F 
HETATM   25  C15 UNK     1      25.872  -9.213  37.272  1.00  0.00     0.012 A 
ENDBRANCH  18  19
ENDBRANCH  17  18
ENDBRANCH  14  17
ENDBRANCH  10  11
ENDBRANCH   2   9
BRANCH   5  26
HETATM   26  N1  UNK     1      16.453   0.441  34.848  1.00  0.00    -0.116 N 
HETATM   27  O2  UNK     1      15.331   0.475  35.410  1.00  0.00    -0.532 OA
HETATM   28  O3  UNK     1      16.761   1.238  33.929  1.00  0.00    -0.532 OA
ENDBRANCH   5  26
TORSDOF 6
ENDMDL
MODEL 9
REMARK VINA RESULT:      -8.4      6.913      9.856
REMARK  6 active torsions:
REMARK  status: ('A' for Active; 'I' for Inactive)
REMARK    1  A    between atoms: C2_8  and  O1_2 
REMARK    2  A    between atoms: C3_9  and  O1_2 
REMARK    3  A    between atoms: C16_22  and  N1_5 
REMARK    4  A    between atoms: C1_7  and  C8_14 
REMARK    5  A    between atoms: C2_8  and  C4_10 
REMARK    6  A    between atoms: C11_17  and  C5_11 
ROOT
HETATM    1  N2  UNK     1      18.500   1.114  34.546  1.00  0.00    -0.191 NA
HETATM    2  C5  UNK     1      18.379   2.677  31.388  1.00  0.00    -0.015 A 
HETATM    3  C12 UNK     1      18.743   1.474  31.993  1.00  0.00     0.057 A 
HETATM    4  C13 UNK     1      18.524   2.836  30.009  1.00  0.00     0.015 A 
HETATM    5  C16 UNK     1      19.397   0.589  29.842  1.00  0.00     0.104 A 
HETATM    6  C17 UNK     1      19.253   0.431  31.219  1.00  0.00     0.059 A 
HETATM    7  C18 UNK     1      19.033   1.792  29.236  1.00  0.00     0.037 A 
HETATM    8  C22 UNK     1      18.609   1.275  33.405  1.00  0.00     0.100 C 
ENDROOT
BRANCH   2   9
HETATM    9  C11 UNK     1      17.843   3.797  32.154  1.00  0.00     0.014 C 
HETATM   10  C8  UNK     1      18.398   5.027  32.220  1.00  0.00     0.012 C 
BRANCH  10  11
HETATM   11  C1  UNK     1      17.847   6.164  32.978  1.00  0.00    -0.036 A 
HETATM   12  C6  UNK     1      18.691   6.920  33.776  1.00  0.00     0.014 A 
HETATM   13  C9  UNK     1      18.169   7.997  34.494  1.00  0.00     0.037 A 
HETATM   14  C3  UNK     1      16.811   8.304  34.403  1.00  0.00     0.069 A 
HETATM   15  C10 UNK     1      15.975   7.533  33.595  1.00  0.00     0.037 A 
HETATM   16  C7  UNK     1      16.496   6.456  32.878  1.00  0.00     0.014 A 
BRANCH  14  17
HETATM   17  O1  UNK     1      16.303   9.355  35.102  1.00  0.00    -0.347 OA
BRANCH  17  18
HETATM   18  C2  UNK     1      16.361  10.637  34.480  1.00  0.00     0.214 C 
BRANCH  18  19
HETATM   19  C4  UNK     1      14.964  11.145  34.274  1.00  0.00    -0.034 A 
HETATM   20  C14 UNK     1      14.265  10.789  33.126  1.00  0.00     0.012 A 
HETATM   21  C19 UNK     1      12.966  11.261  32.935  1.00  0.00     0.043 A 
HETATM   22  C21 UNK     1      12.376  12.086  33.893  1.00  0.00     0.116 A 
HETATM   23  C20 UNK     1      13.084  12.439  35.042  1.00  0.00     0.043 A 
HETATM   24  F1  UNK     1      11.129  12.539  33.709  1.00  0.00    -0.206 F 
HETATM   25  C15 UNK     1      14.382  11.966  35.233  1.00  0.00     0.012 A 
ENDBRANCH  18  19
ENDBRANCH  17  18
ENDBRANCH  14  17
ENDBRANCH  10  11
ENDBRANCH   2   9
BRANCH   5  26
HETATM   26  N1  UNK     1      19.914  -0.473  29.054  1.00  0.00    -0.116 N 
HETATM   27  O2  UNK     1      19.472  -0.638  27.890  1.00  0.00    -0.532 OA
HETATM   28  O3  UNK     1      20.797  -1.219  29.541  1.00  0.00    -0.532 OA
ENDBRANCH   5  26
TORSDOF 6
ENDMDL
MODEL 10
REMARK VINA RESULT:      -8.4      9.642     12.545
REMARK  6 active torsions:
REMARK  status: ('A' for Active; 'I' for Inactive)
REMARK    1  A    between atoms: C2_8  and  O1_2 
REMARK    2  A    between atoms: C3_9  and  O1_2 
REMARK    3  A    between atoms: C16_22  and  N1_5 
REMARK    4  A    between atoms: C1_7  and  C8_14 
REMARK    5  A    between atoms: C2_8  and  C4_10 
REMARK    6  A    between atoms: C11_17  and  C5_11 
ROOT
HETATM    1  N2  UNK     1      24.329 -12.852  35.148  1.00  0.00    -0.191 NA
HETATM    2  C5  UNK     1      23.758  -9.716  36.658  1.00  0.00    -0.015 A 
HETATM    3  C12 UNK     1      23.076 -10.846  36.203  1.00  0.00     0.057 A 
HETATM    4  C13 UNK     1      23.050  -8.654  37.220  1.00  0.00     0.015 A 
HETATM    5  C16 UNK     1      20.979  -9.849  36.873  1.00  0.00     0.104 A 
HETATM    6  C17 UNK     1      21.686 -10.911  36.310  1.00  0.00     0.059 A 
HETATM    7  C18 UNK     1      21.661  -8.720  37.328  1.00  0.00     0.037 A 
HETATM    8  C22 UNK     1      23.769 -11.956  35.619  1.00  0.00     0.100 C 
ENDROOT
BRANCH   2   9
HETATM    9  C11 UNK     1      25.209  -9.601  36.566  1.00  0.00     0.014 C 
HETATM   10  C8  UNK     1      26.021  -9.205  37.570  1.00  0.00     0.012 C 
BRANCH  10  11
HETATM   11  C1  UNK     1      27.488  -9.107  37.485  1.00  0.00    -0.036 A 
HETATM   12  C6  UNK     1      28.257  -9.448  38.586  1.00  0.00     0.014 A 
HETATM   13  C9  UNK     1      29.646  -9.356  38.505  1.00  0.00     0.037 A 
HETATM   14  C3  UNK     1      30.249  -8.924  37.324  1.00  0.00     0.069 A 
HETATM   15  C10 UNK     1      29.462  -8.584  36.223  1.00  0.00     0.037 A 
HETATM   16  C7  UNK     1      28.072  -8.676  36.304  1.00  0.00     0.014 A 
BRANCH  14  17
HETATM   17  O1  UNK     1      31.605  -8.835  37.244  1.00  0.00    -0.347 OA
BRANCH  17  18
HETATM   18  C2  UNK     1      32.256  -7.986  38.188  1.00  0.00     0.214 C 
BRANCH  18  19
HETATM   19  C4  UNK     1      32.102  -6.559  37.750  1.00  0.00    -0.034 A 
HETATM   20  C14 UNK     1      32.934  -6.050  36.759  1.00  0.00     0.012 A 
HETATM   21  C19 UNK     1      32.790  -4.723  36.352  1.00  0.00     0.043 A 
HETATM   22  C21 UNK     1      31.816  -3.915  36.938  1.00  0.00     0.116 A 
HETATM   23  C20 UNK     1      30.985  -4.433  37.932  1.00  0.00     0.043 A 
HETATM   24  F1  UNK     1      31.678  -2.642  36.547  1.00  0.00    -0.206 F 
HETATM   25  C15 UNK     1      31.128  -5.760  38.338  1.00  0.00     0.012 A 
ENDBRANCH  18  19
ENDBRANCH  17  18
ENDBRANCH  14  17
ENDBRANCH  10  11
ENDBRANCH   2   9
BRANCH   5  26
HETATM   26  N1  UNK     1      19.565  -9.916  36.984  1.00  0.00    -0.116 N 
HETATM   27  O2  UNK     1      18.898  -8.855  36.909  1.00  0.00    -0.532 OA
HETATM   28  O3  UNK     1      19.020 -11.033  37.155  1.00  0.00    -0.532 OA
ENDBRANCH   5  26
TORSDOF 6
ENDMDL
