MODEL 1
REMARK VINA RESULT:      -6.9      0.000      0.000
REMARK  3 active torsions:
REMARK  status: ('A' for Active; 'I' for Inactive)
REMARK    1  A    between atoms: C11_15  and  O2_3 
REMARK    2  A    between atoms: C5_9  and  O2_3 
REMARK    3  A    between atoms: C11_15  and  C12_16 
ROOT
HETATM    1 Cl1  UNK     1      20.614  -1.752  29.708  1.00  0.00    -0.081 Cl
HETATM    2  O1  UNK     1      20.642  -3.179  34.576  1.00  0.00    -0.275 OA
HETATM    3  O3  UNK     1      20.726  -3.904  36.743  1.00  0.00    -0.260 OA
HETATM    4  C1  UNK     1      19.198  -1.293  34.002  1.00  0.00     0.007 A 
HETATM    5  C2  UNK     1      18.789  -1.210  35.411  1.00  0.00    -0.043 A 
HETATM    6  C3  UNK     1      20.114  -2.279  33.629  1.00  0.00     0.092 A 
HETATM    7  C4  UNK     1      18.721  -0.437  33.002  1.00  0.00     0.053 A 
HETATM    8  C5  UNK     1      19.154  -0.573  31.677  1.00  0.00     0.091 A 
HETATM    9  C6  UNK     1      20.554  -2.427  32.313  1.00  0.00     0.065 A 
HETATM   10  C7  UNK     1      20.069  -1.567  31.334  1.00  0.00     0.070 A 
HETATM   11  C8  UNK     1      19.307  -2.080  36.289  1.00  0.00     0.090 A 
HETATM   12  C9  UNK     1      17.806  -0.163  35.845  1.00  0.00     0.049 C 
HETATM   13  C10 UNK     1      20.274  -3.124  35.912  1.00  0.00     0.288 A 
ENDROOT
BRANCH   8  14
HETATM   14  O2  UNK     1      18.660   0.285  30.739  1.00  0.00    -0.346 OA
BRANCH  14  15
HETATM   15  C11 UNK     1      19.028   1.656  30.859  1.00  0.00     0.202 C 
BRANCH  15  16
HETATM   16  C12 UNK     1      18.397   2.422  29.743  1.00  0.00    -0.011 C 
HETATM   17  C13 UNK     1      17.870   1.855  28.652  1.00  0.00     0.009 C 
ENDBRANCH  15  16
ENDBRANCH  14  15
ENDBRANCH   8  14
TORSDOF 3
ENDMDL
MODEL 2
REMARK VINA RESULT:      -6.9      6.632      9.189
REMARK  3 active torsions:
REMARK  status: ('A' for Active; 'I' for Inactive)
REMARK    1  A    between atoms: C11_15  and  O2_3 
REMARK    2  A    between atoms: C5_9  and  O2_3 
REMARK    3  A    between atoms: C11_15  and  C12_16 
ROOT
HETATM    1 Cl1  UNK     1      21.210   6.256  32.699  1.00  0.00    -0.081 Cl
HETATM    2  O1  UNK     1      17.329   8.959  34.535  1.00  0.00    -0.275 OA
HETATM    3  O3  UNK     1      15.652  10.230  35.430  1.00  0.00    -0.260 OA
HETATM    4  C1  UNK     1      16.789   7.300  32.825  1.00  0.00     0.007 A 
HETATM    5  C2  UNK     1      15.377   7.694  32.925  1.00  0.00    -0.043 A 
HETATM    6  C3  UNK     1      17.722   7.946  33.636  1.00  0.00     0.092 A 
HETATM    7  C4  UNK     1      17.260   6.305  31.959  1.00  0.00     0.053 A 
HETATM    8  C5  UNK     1      18.621   5.979  31.915  1.00  0.00     0.091 A 
HETATM    9  C6  UNK     1      19.082   7.633  33.605  1.00  0.00     0.065 A 
HETATM   10  C7  UNK     1      19.529   6.642  32.737  1.00  0.00     0.070 A 
HETATM   11  C8  UNK     1      15.032   8.659  33.788  1.00  0.00     0.090 A 
HETATM   12  C9  UNK     1      14.348   7.017  32.068  1.00  0.00     0.049 C 
HETATM   13  C10 UNK     1      16.005   9.351  34.650  1.00  0.00     0.288 A 
ENDROOT
BRANCH   8  14
HETATM   14  O2  UNK     1      19.030   5.003  31.054  1.00  0.00    -0.346 OA
BRANCH  14  15
HETATM   15  C11 UNK     1      18.369   3.744  31.143  1.00  0.00     0.202 C 
BRANCH  15  16
HETATM   16  C12 UNK     1      18.827   2.881  30.015  1.00  0.00    -0.011 C 
HETATM   17  C13 UNK     1      18.003   2.190  29.220  1.00  0.00     0.009 C 
ENDBRANCH  15  16
ENDBRANCH  14  15
ENDBRANCH   8  14
TORSDOF 3
ENDMDL
MODEL 3
REMARK VINA RESULT:      -6.9      4.067      6.873
REMARK  3 active torsions:
REMARK  status: ('A' for Active; 'I' for Inactive)
REMARK    1  A    between atoms: C11_15  and  O2_3 
REMARK    2  A    between atoms: C5_9  and  O2_3 
REMARK    3  A    between atoms: C11_15  and  C12_16 
ROOT
HETATM    1 Cl1  UNK     1      18.182   0.426  33.818  1.00  0.00    -0.081 Cl
HETATM    2  O1  UNK     1      18.107   5.490  34.113  1.00  0.00    -0.275 OA
HETATM    3  O3  UNK     1      18.052   7.763  34.356  1.00  0.00    -0.260 OA
HETATM    4  C1  UNK     1      18.486   4.533  31.897  1.00  0.00     0.007 A 
HETATM    5  C2  UNK     1      18.571   5.895  31.352  1.00  0.00    -0.043 A 
HETATM    6  C3  UNK     1      18.255   4.374  33.264  1.00  0.00     0.092 A 
HETATM    7  C4  UNK     1      18.623   3.375  31.122  1.00  0.00     0.053 A 
HETATM    8  C5  UNK     1      18.531   2.106  31.708  1.00  0.00     0.091 A 
HETATM    9  C6  UNK     1      18.161   3.117  33.863  1.00  0.00     0.065 A 
HETATM   10  C7  UNK     1      18.300   1.979  33.076  1.00  0.00     0.070 A 
HETATM   11  C8  UNK     1      18.425   6.937  32.182  1.00  0.00     0.090 A 
HETATM   12  C9  UNK     1      18.816   6.101  29.886  1.00  0.00     0.049 C 
HETATM   13  C10 UNK     1      18.182   6.785  33.626  1.00  0.00     0.288 A 
ENDROOT
BRANCH   8  14
HETATM   14  O2  UNK     1      18.671   1.009  30.910  1.00  0.00    -0.346 OA
BRANCH  14  15
HETATM   15  C11 UNK     1      18.952   1.242  29.533  1.00  0.00     0.202 C 
BRANCH  15  16
HETATM   16  C12 UNK     1      19.848   0.156  29.036  1.00  0.00    -0.011 C 
HETATM   17  C13 UNK     1      20.658  -0.563  29.820  1.00  0.00     0.009 C 
ENDBRANCH  15  16
ENDBRANCH  14  15
ENDBRANCH   8  14
TORSDOF 3
ENDMDL
MODEL 4
REMARK VINA RESULT:      -6.7     24.304     26.322
REMARK  3 active torsions:
REMARK  status: ('A' for Active; 'I' for Inactive)
REMARK    1  A    between atoms: C11_15  and  O2_3 
REMARK    2  A    between atoms: C5_9  and  O2_3 
REMARK    3  A    between atoms: C11_15  and  C12_16 
ROOT
HETATM    1 Cl1  UNK     1      15.584   4.373   9.813  1.00  0.00    -0.081 Cl
HETATM    2  O1  UNK     1      11.187   5.299   7.459  1.00  0.00    -0.275 OA
HETATM    3  O3  UNK     1       9.218   5.621   6.342  1.00  0.00    -0.260 OA
HETATM    4  C1  UNK     1      11.938   6.981   9.065  1.00  0.00     0.007 A 
HETATM    5  C2  UNK     1      10.732   7.767   8.767  1.00  0.00    -0.043 A 
HETATM    6  C3  UNK     1      12.127   5.769   8.399  1.00  0.00     0.092 A 
HETATM    7  C4  UNK     1      12.918   7.377   9.984  1.00  0.00     0.053 A 
HETATM    8  C5  UNK     1      14.043   6.578  10.219  1.00  0.00     0.091 A 
HETATM    9  C6  UNK     1      13.243   4.961   8.622  1.00  0.00     0.065 A 
HETATM   10  C7  UNK     1      14.205   5.372   9.538  1.00  0.00     0.070 A 
HETATM   11  C8  UNK     1       9.856   7.296   7.869  1.00  0.00     0.090 A 
HETATM   12  C9  UNK     1      10.500   9.075   9.464  1.00  0.00     0.049 C 
HETATM   13  C10 UNK     1      10.041   6.020   7.159  1.00  0.00     0.288 A 
ENDROOT
BRANCH   8  14
HETATM   14  O2  UNK     1      14.970   7.007  11.123  1.00  0.00    -0.346 OA
BRANCH  14  15
HETATM   15  C11 UNK     1      15.416   8.355  11.001  1.00  0.00     0.202 C 
BRANCH  15  16
HETATM   16  C12 UNK     1      16.659   8.375  10.175  1.00  0.00    -0.011 C 
HETATM   17  C13 UNK     1      17.602   7.428  10.219  1.00  0.00     0.009 C 
ENDBRANCH  15  16
ENDBRANCH  14  15
ENDBRANCH   8  14
TORSDOF 3
ENDMDL
MODEL 5
REMARK VINA RESULT:      -6.6     24.688     26.563
REMARK  3 active torsions:
REMARK  status: ('A' for Active; 'I' for Inactive)
REMARK    1  A    between atoms: C11_15  and  O2_3 
REMARK    2  A    between atoms: C5_9  and  O2_3 
REMARK    3  A    between atoms: C11_15  and  C12_16 
ROOT
HETATM    1 Cl1  UNK     1      12.024   4.300   8.323  1.00  0.00    -0.081 Cl
HETATM    2  O1  UNK     1      16.271   6.561   9.932  1.00  0.00    -0.275 OA
HETATM    3  O3  UNK     1      18.224   7.479  10.689  1.00  0.00    -0.260 OA
HETATM    4  C1  UNK     1      14.552   8.018   8.988  1.00  0.00     0.007 A 
HETATM    5  C2  UNK     1      15.429   9.171   9.236  1.00  0.00    -0.043 A 
HETATM    6  C3  UNK     1      15.003   6.746   9.346  1.00  0.00     0.092 A 
HETATM    7  C4  UNK     1      13.280   8.117   8.410  1.00  0.00     0.053 A 
HETATM    8  C5  UNK     1      12.497   6.976   8.203  1.00  0.00     0.091 A 
HETATM    9  C6  UNK     1      14.234   5.599   9.145  1.00  0.00     0.065 A 
HETATM   10  C7  UNK     1      12.974   5.719   8.570  1.00  0.00     0.070 A 
HETATM   11  C8  UNK     1      16.629   8.964   9.795  1.00  0.00     0.090 A 
HETATM   12  C9  UNK     1      14.973  10.551   8.865  1.00  0.00     0.049 C 
HETATM   13  C10 UNK     1      17.119   7.630  10.177  1.00  0.00     0.288 A 
ENDROOT
BRANCH   8  14
HETATM   14  O2  UNK     1      11.265   7.125   7.637  1.00  0.00    -0.346 OA
BRANCH  14  15
HETATM   15  C11 UNK     1      11.171   6.925   6.229  1.00  0.00     0.202 C 
BRANCH  15  16
HETATM   16  C12 UNK     1       9.915   6.174   5.934  1.00  0.00    -0.011 C 
HETATM   17  C13 UNK     1       8.859   6.132   6.754  1.00  0.00     0.009 C 
ENDBRANCH  15  16
ENDBRANCH  14  15
ENDBRANCH   8  14
TORSDOF 3
ENDMDL
MODEL 6
REMARK VINA RESULT:      -6.6      2.927      3.884
REMARK  3 active torsions:
REMARK  status: ('A' for Active; 'I' for Inactive)
REMARK    1  A    between atoms: C11_15  and  O2_3 
REMARK    2  A    between atoms: C5_9  and  O2_3 
REMARK    3  A    between atoms: C11_15  and  C12_16 
ROOT
HETATM    1 Cl1  UNK     1      18.346   2.521  31.800  1.00  0.00    -0.081 Cl
HETATM    2  O1  UNK     1      17.915   1.783  36.801  1.00  0.00    -0.275 OA
HETATM    3  O3  UNK     1      17.710   1.561  39.067  1.00  0.00    -0.260 OA
HETATM    4  C1  UNK     1      18.277  -0.209  35.433  1.00  0.00     0.007 A 
HETATM    5  C2  UNK     1      18.242  -1.024  36.655  1.00  0.00    -0.043 A 
HETATM    6  C3  UNK     1      18.112   1.172  35.545  1.00  0.00     0.092 A 
HETATM    7  C4  UNK     1      18.467  -0.738  34.150  1.00  0.00     0.053 A 
HETATM    8  C5  UNK     1      18.489   0.098  33.027  1.00  0.00     0.091 A 
HETATM    9  C6  UNK     1      18.132   2.019  34.435  1.00  0.00     0.065 A 
HETATM   10  C7  UNK     1      18.322   1.474  33.170  1.00  0.00     0.070 A 
HETATM   11  C8  UNK     1      18.054  -0.416  37.834  1.00  0.00     0.090 A 
HETATM   12  C9  UNK     1      18.418  -2.511  36.569  1.00  0.00     0.049 C 
HETATM   13  C10 UNK     1      17.879   1.039  37.970  1.00  0.00     0.288 A 
ENDROOT
BRANCH   8  14
HETATM   14  O2  UNK     1      18.677  -0.466  31.799  1.00  0.00    -0.346 OA
BRANCH  14  15
HETATM   15  C11 UNK     1      19.940  -1.079  31.555  1.00  0.00     0.202 C 
BRANCH  15  16
HETATM   16  C12 UNK     1      20.633  -0.333  30.463  1.00  0.00    -0.011 C 
HETATM   17  C13 UNK     1      20.002   0.239  29.432  1.00  0.00     0.009 C 
ENDBRANCH  15  16
ENDBRANCH  14  15
ENDBRANCH   8  14
TORSDOF 3
ENDMDL
MODEL 7
REMARK VINA RESULT:      -6.5      7.334     10.112
REMARK  3 active torsions:
REMARK  status: ('A' for Active; 'I' for Inactive)
REMARK    1  A    between atoms: C11_15  and  O2_3 
REMARK    2  A    between atoms: C5_9  and  O2_3 
REMARK    3  A    between atoms: C11_15  and  C12_16 
ROOT
HETATM    1 Cl1  UNK     1      20.536   6.817  33.400  1.00  0.00    -0.081 Cl
HETATM    2  O1  UNK     1      16.681  10.110  33.590  1.00  0.00    -0.275 OA
HETATM    3  O3  UNK     1      15.016  11.673  33.706  1.00  0.00    -0.260 OA
HETATM    4  C1  UNK     1      16.121   7.810  32.981  1.00  0.00     0.007 A 
HETATM    5  C2  UNK     1      14.711   8.211  32.867  1.00  0.00    -0.043 A 
HETATM    6  C3  UNK     1      17.063   8.775  33.340  1.00  0.00     0.092 A 
HETATM    7  C4  UNK     1      16.581   6.508  32.750  1.00  0.00     0.053 A 
HETATM    8  C5  UNK     1      17.940   6.196  32.878  1.00  0.00     0.091 A 
HETATM    9  C6  UNK     1      18.420   8.480  33.471  1.00  0.00     0.065 A 
HETATM   10  C7  UNK     1      18.857   7.181  33.238  1.00  0.00     0.070 A 
HETATM   11  C8  UNK     1      14.378   9.486  33.111  1.00  0.00     0.090 A 
HETATM   12  C9  UNK     1      13.674   7.197  32.485  1.00  0.00     0.049 C 
HETATM   13  C10 UNK     1      15.359  10.515  33.490  1.00  0.00     0.288 A 
ENDROOT
BRANCH   8  14
HETATM   14  O2  UNK     1      18.338   4.912  32.642  1.00  0.00    -0.346 OA
BRANCH  14  15
HETATM   15  C11 UNK     1      18.192   4.424  31.311  1.00  0.00     0.202 C 
BRANCH  15  16
HETATM   16  C12 UNK     1      19.419   4.770  30.535  1.00  0.00    -0.011 C 
HETATM   17  C13 UNK     1      19.576   5.910  29.854  1.00  0.00     0.009 C 
ENDBRANCH  15  16
ENDBRANCH  14  15
ENDBRANCH   8  14
TORSDOF 3
ENDMDL
MODEL 8
REMARK VINA RESULT:      -6.4      2.948      5.884
REMARK  3 active torsions:
REMARK  status: ('A' for Active; 'I' for Inactive)
REMARK    1  A    between atoms: C11_15  and  O2_3 
REMARK    2  A    between atoms: C5_9  and  O2_3 
REMARK    3  A    between atoms: C11_15  and  C12_16 
ROOT
HETATM    1 Cl1  UNK     1      18.473  -1.193  35.119  1.00  0.00    -0.081 Cl
HETATM    2  O1  UNK     1      17.964   3.680  33.803  1.00  0.00    -0.275 OA
HETATM    3  O3  UNK     1      17.712   5.900  33.316  1.00  0.00    -0.260 OA
HETATM    4  C1  UNK     1      18.488   2.114  32.002  1.00  0.00     0.007 A 
HETATM    5  C2  UNK     1      18.474   3.237  31.055  1.00  0.00    -0.043 A 
HETATM    6  C3  UNK     1      18.231   2.372  33.349  1.00  0.00     0.092 A 
HETATM    7  C4  UNK     1      18.744   0.788  31.632  1.00  0.00     0.053 A 
HETATM    8  C5  UNK     1      18.741  -0.236  32.588  1.00  0.00     0.091 A 
HETATM    9  C6  UNK     1      18.224   1.363  34.313  1.00  0.00     0.065 A 
HETATM   10  C7  UNK     1      18.481   0.053  33.926  1.00  0.00     0.070 A 
HETATM   11  C8  UNK     1      18.217   4.470  31.514  1.00  0.00     0.090 A 
HETATM   12  C9  UNK     1      18.744   2.993  29.599  1.00  0.00     0.049 C 
HETATM   13  C10 UNK     1      17.945   4.759  32.932  1.00  0.00     0.288 A 
ENDROOT
BRANCH   8  14
HETATM   14  O2  UNK     1      18.997  -1.511  32.177  1.00  0.00    -0.346 OA
BRANCH  14  15
HETATM   15  C11 UNK     1      20.362  -1.861  31.966  1.00  0.00     0.202 C 
BRANCH  15  16
HETATM   16  C12 UNK     1      20.508  -2.414  30.587  1.00  0.00    -0.011 C 
HETATM   17  C13 UNK     1      20.435  -1.676  29.475  1.00  0.00     0.009 C 
ENDBRANCH  15  16
ENDBRANCH  14  15
ENDBRANCH   8  14
TORSDOF 3
ENDMDL
MODEL 9
REMARK VINA RESULT:      -6.4      4.311      5.675
REMARK  3 active torsions:
REMARK  status: ('A' for Active; 'I' for Inactive)
REMARK    1  A    between atoms: C11_15  and  O2_3 
REMARK    2  A    between atoms: C5_9  and  O2_3 
REMARK    3  A    between atoms: C11_15  and  C12_16 
ROOT
HETATM    1 Cl1  UNK     1      18.828   5.604  29.991  1.00  0.00    -0.081 Cl
HETATM    2  O1  UNK     1      18.539   0.858  31.761  1.00  0.00    -0.275 OA
HETATM    3  O3  UNK     1      18.421  -1.318  32.453  1.00  0.00    -0.260 OA
HETATM    4  C1  UNK     1      18.320   2.650  33.407  1.00  0.00     0.007 A 
HETATM    5  C2  UNK     1      18.162   1.633  34.456  1.00  0.00    -0.043 A 
HETATM    6  C3  UNK     1      18.503   2.229  32.089  1.00  0.00     0.092 A 
HETATM    7  C4  UNK     1      18.296   4.029  33.651  1.00  0.00     0.053 A 
HETATM    8  C5  UNK     1      18.453   4.944  32.603  1.00  0.00     0.091 A 
HETATM    9  C6  UNK     1      18.660   3.128  31.034  1.00  0.00     0.065 A 
HETATM   10  C7  UNK     1      18.634   4.493  31.297  1.00  0.00     0.070 A 
HETATM   11  C8  UNK     1      18.200   0.337  34.114  1.00  0.00     0.090 A 
HETATM   12  C9  UNK     1      17.962   2.052  35.882  1.00  0.00     0.049 C 
HETATM   13  C10 UNK     1      18.393  -0.123  32.729  1.00  0.00     0.288 A 
ENDROOT
BRANCH   8  14
HETATM   14  O2  UNK     1      18.422   6.277  32.892  1.00  0.00    -0.346 OA
BRANCH  14  15
HETATM   15  C11 UNK     1      19.646   6.876  33.310  1.00  0.00     0.202 C 
BRANCH  15  16
HETATM   16  C12 UNK     1      19.356   7.840  34.412  1.00  0.00    -0.011 C 
HETATM   17  C13 UNK     1      19.278   9.165  34.244  1.00  0.00     0.009 C 
ENDBRANCH  15  16
ENDBRANCH  14  15
ENDBRANCH   8  14
TORSDOF 3
ENDMDL
MODEL 10
REMARK VINA RESULT:      -6.3      8.192     10.828
REMARK  3 active torsions:
REMARK  status: ('A' for Active; 'I' for Inactive)
REMARK    1  A    between atoms: C11_15  and  O2_3 
REMARK    2  A    between atoms: C5_9  and  O2_3 
REMARK    3  A    between atoms: C11_15  and  C12_16 
ROOT
HETATM    1 Cl1  UNK     1      14.152   6.898  31.905  1.00  0.00    -0.081 Cl
HETATM    2  O1  UNK     1      16.517  11.024  33.672  1.00  0.00    -0.275 OA
HETATM    3  O3  UNK     1      17.488  12.942  34.450  1.00  0.00    -0.260 OA
HETATM    4  C1  UNK     1      17.837   8.970  33.574  1.00  0.00     0.007 A 
HETATM    5  C2  UNK     1      18.983   9.711  34.117  1.00  0.00    -0.043 A 
HETATM    6  C3  UNK     1      16.637   9.652  33.368  1.00  0.00     0.092 A 
HETATM    7  C4  UNK     1      17.874   7.608  33.248  1.00  0.00     0.053 A 
HETATM    8  C5  UNK     1      16.742   6.964  32.733  1.00  0.00     0.091 A 
HETATM    9  C6  UNK     1      15.500   9.025  32.856  1.00  0.00     0.065 A 
HETATM   10  C7  UNK     1      15.558   7.672  32.538  1.00  0.00     0.070 A 
HETATM   11  C8  UNK     1      18.840  11.014  34.396  1.00  0.00     0.090 A 
HETATM   12  C9  UNK     1      20.288   9.007  34.349  1.00  0.00     0.049 C 
HETATM   13  C10 UNK     1      17.582  11.748  34.185  1.00  0.00     0.288 A 
ENDROOT
BRANCH   8  14
HETATM   14  O2  UNK     1      16.829   5.637  32.431  1.00  0.00    -0.346 OA
BRANCH  14  15
HETATM   15  C11 UNK     1      18.118   5.036  32.524  1.00  0.00     0.202 C 
BRANCH  15  16
HETATM   16  C12 UNK     1      18.624   4.770  31.144  1.00  0.00    -0.011 C 
HETATM   17  C13 UNK     1      19.465   5.577  30.489  1.00  0.00     0.009 C 
ENDBRANCH  15  16
ENDBRANCH  14  15
ENDBRANCH   8  14
TORSDOF 3
ENDMDL
