MODEL 1
REMARK VINA RESULT:      -7.4      0.000      0.000
REMARK  3 active torsions:
REMARK  status: ('A' for Active; 'I' for Inactive)
REMARK    1  A    between atoms: C7_8  and  N1_1 
REMARK    2  A    between atoms: C1_2  and  C3_4 
REMARK    3  A    between atoms: C2_3  and  C6_7 
ROOT
HETATM    1  C1  UNK     1      18.589   2.668  30.468  1.00  0.00    -0.036 A 
HETATM    2  C4  UNK     1      17.987   2.676  29.221  1.00  0.00     0.013 A 
HETATM    3  C5  UNK     1      19.332   1.583  30.904  1.00  0.00     0.013 A 
HETATM    4  C7  UNK     1      18.875   0.466  28.810  1.00  0.00     0.025 A 
HETATM    5  C8  UNK     1      18.131   1.567  28.387  1.00  0.00     0.030 A 
HETATM    6  C9  UNK     1      19.476   0.474  30.069  1.00  0.00     0.030 A 
ENDROOT
BRANCH   1   7
HETATM    7  C3  UNK     1      18.439   3.840  31.349  1.00  0.00     0.012 C 
HETATM    8  C6  UNK     1      19.078   5.022  31.191  1.00  0.00     0.012 C 
BRANCH   8   9
HETATM    9  C2  UNK     1      18.914   6.186  32.049  1.00  0.00    -0.036 A 
HETATM   10  C10 UNK     1      17.758   6.962  31.960  1.00  0.00     0.011 A 
HETATM   11  C12 UNK     1      17.601   8.076  32.782  1.00  0.00     0.001 A 
HETATM   12  C14 UNK     1      18.599   8.416  33.696  1.00  0.00     0.000 A 
HETATM   13  C13 UNK     1      19.756   7.640  33.785  1.00  0.00     0.001 A 
HETATM   14  C11 UNK     1      19.913   6.526  32.962  1.00  0.00     0.011 A 
ENDBRANCH   8   9
ENDBRANCH   1   7
BRANCH   4  15
HETATM   15  N1  UNK     1      19.021  -0.654  27.967  1.00  0.00    -0.399 N 
HETATM   16  H12 UNK     1      19.678  -0.627  27.198  1.00  0.00     0.156 HD
HETATM   17  H13 UNK     1      18.471  -1.486  28.131  1.00  0.00     0.156 HD
ENDBRANCH   4  15
TORSDOF 3
ENDMDL
MODEL 2
REMARK VINA RESULT:      -7.4      0.026      1.248
REMARK  3 active torsions:
REMARK  status: ('A' for Active; 'I' for Inactive)
REMARK    1  A    between atoms: C7_8  and  N1_1 
REMARK    2  A    between atoms: C1_2  and  C3_4 
REMARK    3  A    between atoms: C2_3  and  C6_7 
ROOT
HETATM    1  C1  UNK     1      18.579   2.680  30.451  1.00  0.00    -0.036 A 
HETATM    2  C4  UNK     1      17.953   2.675  29.215  1.00  0.00     0.013 A 
HETATM    3  C5  UNK     1      19.348   1.608  30.874  1.00  0.00     0.013 A 
HETATM    4  C7  UNK     1      18.871   0.480  28.791  1.00  0.00     0.025 A 
HETATM    5  C8  UNK     1      18.100   1.568  28.380  1.00  0.00     0.030 A 
HETATM    6  C9  UNK     1      19.495   0.500  30.038  1.00  0.00     0.030 A 
ENDROOT
BRANCH   1   7
HETATM    7  C3  UNK     1      18.425   3.850  31.333  1.00  0.00     0.012 C 
HETATM    8  C6  UNK     1      19.091   5.021  31.199  1.00  0.00     0.012 C 
BRANCH   8   9
HETATM    9  C2  UNK     1      18.924   6.183  32.058  1.00  0.00    -0.036 A 
HETATM   10  C10 UNK     1      19.915   6.516  32.982  1.00  0.00     0.011 A 
HETATM   11  C12 UNK     1      19.755   7.630  33.805  1.00  0.00     0.001 A 
HETATM   12  C14 UNK     1      18.605   8.413  33.705  1.00  0.00     0.000 A 
HETATM   13  C13 UNK     1      17.614   8.080  32.781  1.00  0.00     0.001 A 
HETATM   14  C11 UNK     1      17.774   6.966  31.958  1.00  0.00     0.011 A 
ENDBRANCH   8   9
ENDBRANCH   1   7
BRANCH   4  15
HETATM   15  N1  UNK     1      19.020  -0.638  27.946  1.00  0.00    -0.399 N 
HETATM   16  H12 UNK     1      19.023  -0.518  26.942  1.00  0.00     0.156 HD
HETATM   17  H13 UNK     1      19.125  -1.562  28.343  1.00  0.00     0.156 HD
ENDBRANCH   4  15
TORSDOF 3
ENDMDL
MODEL 3
REMARK VINA RESULT:      -7.1      3.055      6.861
REMARK  3 active torsions:
REMARK  status: ('A' for Active; 'I' for Inactive)
REMARK    1  A    between atoms: C7_8  and  N1_1 
REMARK    2  A    between atoms: C1_2  and  C3_4 
REMARK    3  A    between atoms: C2_3  and  C6_7 
ROOT
HETATM    1  C1  UNK     1      18.451   4.918  31.402  1.00  0.00    -0.036 A 
HETATM    2  C4  UNK     1      18.397   6.157  30.785  1.00  0.00     0.013 A 
HETATM    3  C5  UNK     1      18.040   4.746  32.714  1.00  0.00     0.013 A 
HETATM    4  C7  UNK     1      17.503   7.100  32.822  1.00  0.00     0.025 A 
HETATM    5  C8  UNK     1      17.921   7.255  31.500  1.00  0.00     0.030 A 
HETATM    6  C9  UNK     1      17.563   5.845  33.429  1.00  0.00     0.030 A 
ENDROOT
BRANCH   1   7
HETATM    7  C3  UNK     1      18.953   3.756  30.646  1.00  0.00     0.012 C 
HETATM    8  C6  UNK     1      18.589   2.470  30.859  1.00  0.00     0.012 C 
BRANCH   8   9
HETATM    9  C2  UNK     1      19.070   1.326  30.100  1.00  0.00    -0.036 A 
HETATM   10  C10 UNK     1      18.525   1.040  28.849  1.00  0.00     0.011 A 
HETATM   11  C12 UNK     1      18.986  -0.057  28.121  1.00  0.00     0.001 A 
HETATM   12  C14 UNK     1      19.993  -0.868  28.644  1.00  0.00     0.000 A 
HETATM   13  C13 UNK     1      20.539  -0.582  29.896  1.00  0.00     0.001 A 
HETATM   14  C11 UNK     1      20.078   0.514  30.623  1.00  0.00     0.011 A 
ENDBRANCH   8   9
ENDBRANCH   1   7
BRANCH   4  15
HETATM   15  N1  UNK     1      17.021   8.210  33.545  1.00  0.00    -0.399 N 
HETATM   16  H12 UNK     1      17.307   8.353  34.504  1.00  0.00     0.156 HD
HETATM   17  H13 UNK     1      16.391   8.866  33.104  1.00  0.00     0.156 HD
ENDBRANCH   4  15
TORSDOF 3
ENDMDL
MODEL 4
REMARK VINA RESULT:      -7.1      1.960      2.926
REMARK  3 active torsions:
REMARK  status: ('A' for Active; 'I' for Inactive)
REMARK    1  A    between atoms: C7_8  and  N1_1 
REMARK    2  A    between atoms: C1_2  and  C3_4 
REMARK    3  A    between atoms: C2_3  and  C6_7 
ROOT
HETATM    1  C1  UNK     1      19.424   0.739  30.273  1.00  0.00    -0.036 A 
HETATM    2  C4  UNK     1      19.367  -0.022  31.429  1.00  0.00     0.013 A 
HETATM    3  C5  UNK     1      19.929   0.221  29.091  1.00  0.00     0.013 A 
HETATM    4  C7  UNK     1      20.341  -1.875  30.221  1.00  0.00     0.025 A 
HETATM    5  C8  UNK     1      19.829  -1.337  31.403  1.00  0.00     0.030 A 
HETATM    6  C9  UNK     1      20.391  -1.095  29.066  1.00  0.00     0.030 A 
ENDROOT
BRANCH   1   7
HETATM    7  C3  UNK     1      18.935   2.130  30.299  1.00  0.00     0.012 C 
HETATM    8  C6  UNK     1      18.969   2.948  31.377  1.00  0.00     0.012 C 
BRANCH   8   9
HETATM    9  C2  UNK     1      18.505   4.327  31.398  1.00  0.00    -0.036 A 
HETATM   10  C10 UNK     1      18.897   5.210  30.392  1.00  0.00     0.011 A 
HETATM   11  C12 UNK     1      18.452   6.532  30.412  1.00  0.00     0.001 A 
HETATM   12  C14 UNK     1      17.614   6.970  31.437  1.00  0.00     0.000 A 
HETATM   13  C13 UNK     1      17.222   6.087  32.443  1.00  0.00     0.001 A 
HETATM   14  C11 UNK     1      17.667   4.766  32.423  1.00  0.00     0.011 A 
ENDBRANCH   8   9
ENDBRANCH   1   7
BRANCH   4  15
HETATM   15  N1  UNK     1      20.807  -3.205  30.195  1.00  0.00    -0.399 N 
HETATM   16  H12 UNK     1      20.426  -3.862  29.528  1.00  0.00     0.156 HD
HETATM   17  H13 UNK     1      21.525  -3.503  30.842  1.00  0.00     0.156 HD
ENDBRANCH   4  15
TORSDOF 3
ENDMDL
MODEL 5
REMARK VINA RESULT:      -7.0      3.061      7.058
REMARK  3 active torsions:
REMARK  status: ('A' for Active; 'I' for Inactive)
REMARK    1  A    between atoms: C7_8  and  N1_1 
REMARK    2  A    between atoms: C1_2  and  C3_4 
REMARK    3  A    between atoms: C2_3  and  C6_7 
ROOT
HETATM    1  C1  UNK     1      18.438   4.963  31.647  1.00  0.00    -0.036 A 
HETATM    2  C4  UNK     1      18.174   4.752  32.991  1.00  0.00     0.013 A 
HETATM    3  C5  UNK     1      18.290   6.214  31.070  1.00  0.00     0.013 A 
HETATM    4  C7  UNK     1      17.596   7.088  33.213  1.00  0.00     0.025 A 
HETATM    5  C8  UNK     1      17.750   5.822  33.779  1.00  0.00     0.030 A 
HETATM    6  C9  UNK     1      17.866   7.284  31.859  1.00  0.00     0.030 A 
ENDROOT
BRANCH   1   7
HETATM    7  C3  UNK     1      18.887   3.833  30.815  1.00  0.00     0.012 C 
HETATM    8  C6  UNK     1      18.566   2.534  31.023  1.00  0.00     0.012 C 
BRANCH   8   9
HETATM    9  C2  UNK     1      18.993   1.421  30.189  1.00  0.00    -0.036 A 
HETATM   10  C10 UNK     1      19.963   0.533  30.654  1.00  0.00     0.011 A 
HETATM   11  C12 UNK     1      20.371  -0.534  29.855  1.00  0.00     0.001 A 
HETATM   12  C14 UNK     1      19.810  -0.715  28.590  1.00  0.00     0.000 A 
HETATM   13  C13 UNK     1      18.840   0.174  28.126  1.00  0.00     0.001 A 
HETATM   14  C11 UNK     1      18.431   1.241  28.925  1.00  0.00     0.011 A 
ENDBRANCH   8   9
ENDBRANCH   1   7
BRANCH   4  15
HETATM   15  N1  UNK     1      17.169   8.169  34.010  1.00  0.00    -0.399 N 
HETATM   16  H12 UNK     1      16.521   8.013  34.771  1.00  0.00     0.156 HD
HETATM   17  H13 UNK     1      17.511   9.103  33.824  1.00  0.00     0.156 HD
ENDBRANCH   4  15
TORSDOF 3
ENDMDL
MODEL 6
REMARK VINA RESULT:      -7.0      3.054      6.981
REMARK  3 active torsions:
REMARK  status: ('A' for Active; 'I' for Inactive)
REMARK    1  A    between atoms: C7_8  and  N1_1 
REMARK    2  A    between atoms: C1_2  and  C3_4 
REMARK    3  A    between atoms: C2_3  and  C6_7 
ROOT
HETATM    1  C1  UNK     1      18.867   5.887  31.727  1.00  0.00    -0.036 A 
HETATM    2  C4  UNK     1      19.832   6.256  32.650  1.00  0.00     0.013 A 
HETATM    3  C5  UNK     1      17.695   6.611  31.579  1.00  0.00     0.013 A 
HETATM    4  C7  UNK     1      18.445   8.121  33.311  1.00  0.00     0.025 A 
HETATM    5  C8  UNK     1      19.619   7.380  33.447  1.00  0.00     0.030 A 
HETATM    6  C9  UNK     1      17.483   7.736  32.377  1.00  0.00     0.030 A 
ENDROOT
BRANCH   1   7
HETATM    7  C3  UNK     1      19.091   4.699  30.883  1.00  0.00     0.012 C 
HETATM    8  C6  UNK     1      18.459   3.511  31.025  1.00  0.00     0.012 C 
BRANCH   8   9
HETATM    9  C2  UNK     1      18.666   2.345  30.180  1.00  0.00    -0.036 A 
HETATM   10  C10 UNK     1      17.937   2.201  28.999  1.00  0.00     0.011 A 
HETATM   11  C12 UNK     1      18.136   1.083  28.189  1.00  0.00     0.001 A 
HETATM   12  C14 UNK     1      19.064   0.109  28.559  1.00  0.00     0.000 A 
HETATM   13  C13 UNK     1      19.793   0.253  29.739  1.00  0.00     0.001 A 
HETATM   14  C11 UNK     1      19.594   1.371  30.550  1.00  0.00     0.011 A 
ENDBRANCH   8   9
ENDBRANCH   1   7
BRANCH   4  15
HETATM   15  N1  UNK     1      18.230   9.257  34.116  1.00  0.00    -0.399 N 
HETATM   16  H12 UNK     1      19.012   9.712  34.569  1.00  0.00     0.156 HD
HETATM   17  H13 UNK     1      17.295   9.621  34.241  1.00  0.00     0.156 HD
ENDBRANCH   4  15
TORSDOF 3
ENDMDL
MODEL 7
REMARK VINA RESULT:      -6.7      4.534      6.164
REMARK  3 active torsions:
REMARK  status: ('A' for Active; 'I' for Inactive)
REMARK    1  A    between atoms: C7_8  and  N1_1 
REMARK    2  A    between atoms: C1_2  and  C3_4 
REMARK    3  A    between atoms: C2_3  and  C6_7 
ROOT
HETATM    1  C1  UNK     1      18.319   3.192  32.359  1.00  0.00    -0.036 A 
HETATM    2  C4  UNK     1      18.255   4.528  32.718  1.00  0.00     0.013 A 
HETATM    3  C5  UNK     1      18.582   2.806  31.055  1.00  0.00     0.013 A 
HETATM    4  C7  UNK     1      18.725   5.135  30.427  1.00  0.00     0.025 A 
HETATM    5  C8  UNK     1      18.459   5.506  31.745  1.00  0.00     0.030 A 
HETATM    6  C9  UNK     1      18.787   3.785  30.082  1.00  0.00     0.030 A 
ENDROOT
BRANCH   1   7
HETATM    7  C3  UNK     1      18.104   2.158  33.387  1.00  0.00     0.012 C 
HETATM    8  C6  UNK     1      18.373   2.301  34.706  1.00  0.00     0.012 C 
BRANCH   8   9
HETATM    9  C2  UNK     1      18.142   1.288  35.724  1.00  0.00    -0.036 A 
HETATM   10  C10 UNK     1      17.853   1.668  37.035  1.00  0.00     0.011 A 
HETATM   11  C12 UNK     1      17.632   0.697  38.010  1.00  0.00     0.001 A 
HETATM   12  C14 UNK     1      17.698  -0.656  37.675  1.00  0.00     0.000 A 
HETATM   13  C13 UNK     1      17.987  -1.037  36.365  1.00  0.00     0.001 A 
HETATM   14  C11 UNK     1      18.208  -0.065  35.390  1.00  0.00     0.011 A 
ENDBRANCH   8   9
ENDBRANCH   1   7
BRANCH   4  15
HETATM   15  N1  UNK     1      18.932   6.124  29.444  1.00  0.00    -0.399 N 
HETATM   16  H12 UNK     1      19.351   7.010  29.696  1.00  0.00     0.156 HD
HETATM   17  H13 UNK     1      18.665   5.949  28.485  1.00  0.00     0.156 HD
ENDBRANCH   4  15
TORSDOF 3
ENDMDL
MODEL 8
REMARK VINA RESULT:      -6.6      4.471      5.479
REMARK  3 active torsions:
REMARK  status: ('A' for Active; 'I' for Inactive)
REMARK    1  A    between atoms: C7_8  and  N1_1 
REMARK    2  A    between atoms: C1_2  and  C3_4 
REMARK    3  A    between atoms: C2_3  and  C6_7 
ROOT
HETATM    1  C1  UNK     1      18.130   1.526  35.184  1.00  0.00    -0.036 A 
HETATM    2  C4  UNK     1      17.970   1.670  36.552  1.00  0.00     0.013 A 
HETATM    3  C5  UNK     1      18.135   0.277  34.585  1.00  0.00     0.013 A 
HETATM    4  C7  UNK     1      17.812  -0.733  36.756  1.00  0.00     0.025 A 
HETATM    5  C8  UNK     1      17.810   0.532  37.344  1.00  0.00     0.030 A 
HETATM    6  C9  UNK     1      17.975  -0.861  35.377  1.00  0.00     0.030 A 
ENDROOT
BRANCH   1   7
HETATM    7  C3  UNK     1      18.298   2.728  34.347  1.00  0.00     0.012 C 
HETATM    8  C6  UNK     1      18.166   2.765  33.000  1.00  0.00     0.012 C 
BRANCH   8   9
HETATM    9  C2  UNK     1      18.312   3.955  32.176  1.00  0.00    -0.036 A 
HETATM   10  C10 UNK     1      17.896   5.195  32.661  1.00  0.00     0.011 A 
HETATM   11  C12 UNK     1      18.036   6.335  31.871  1.00  0.00     0.001 A 
HETATM   12  C14 UNK     1      18.593   6.237  30.595  1.00  0.00     0.000 A 
HETATM   13  C13 UNK     1      19.008   4.996  30.110  1.00  0.00     0.001 A 
HETATM   14  C11 UNK     1      18.868   3.856  30.900  1.00  0.00     0.011 A 
ENDBRANCH   8   9
ENDBRANCH   1   7
BRANCH   4  15
HETATM   15  N1  UNK     1      17.650  -1.882  37.556  1.00  0.00    -0.399 N 
HETATM   16  H12 UNK     1      16.728  -2.271  37.704  1.00  0.00     0.156 HD
HETATM   17  H13 UNK     1      18.455  -2.321  37.982  1.00  0.00     0.156 HD
ENDBRANCH   4  15
TORSDOF 3
ENDMDL
MODEL 9
REMARK VINA RESULT:      -6.6      4.468      5.462
REMARK  3 active torsions:
REMARK  status: ('A' for Active; 'I' for Inactive)
REMARK    1  A    between atoms: C7_8  and  N1_1 
REMARK    2  A    between atoms: C1_2  and  C3_4 
REMARK    3  A    between atoms: C2_3  and  C6_7 
ROOT
HETATM    1  C1  UNK     1      18.137   1.556  35.181  1.00  0.00    -0.036 A 
HETATM    2  C4  UNK     1      18.076   0.308  34.583  1.00  0.00     0.013 A 
HETATM    3  C5  UNK     1      18.045   1.703  36.556  1.00  0.00     0.013 A 
HETATM    4  C7  UNK     1      17.823  -0.694  36.768  1.00  0.00     0.025 A 
HETATM    5  C8  UNK     1      17.917  -0.824  35.382  1.00  0.00     0.030 A 
HETATM    6  C9  UNK     1      17.886   0.570  37.354  1.00  0.00     0.030 A 
ENDROOT
BRANCH   1   7
HETATM    7  C3  UNK     1      18.305   2.753  34.338  1.00  0.00     0.012 C 
HETATM    8  C6  UNK     1      18.169   2.784  32.991  1.00  0.00     0.012 C 
BRANCH   8   9
HETATM    9  C2  UNK     1      18.315   3.970  32.160  1.00  0.00    -0.036 A 
HETATM   10  C10 UNK     1      18.890   3.867  30.894  1.00  0.00     0.011 A 
HETATM   11  C12 UNK     1      19.030   5.003  30.098  1.00  0.00     0.001 A 
HETATM   12  C14 UNK     1      18.594   6.243  30.567  1.00  0.00     0.000 A 
HETATM   13  C13 UNK     1      18.019   6.345  31.834  1.00  0.00     0.001 A 
HETATM   14  C11 UNK     1      17.879   5.209  32.630  1.00  0.00     0.011 A 
ENDBRANCH   8   9
ENDBRANCH   1   7
BRANCH   4  15
HETATM   15  N1  UNK     1      17.663  -1.838  37.575  1.00  0.00    -0.399 N 
HETATM   16  H12 UNK     1      16.898  -1.891  38.234  1.00  0.00     0.156 HD
HETATM   17  H13 UNK     1      18.313  -2.609  37.494  1.00  0.00     0.156 HD
ENDBRANCH   4  15
TORSDOF 3
ENDMDL
MODEL 10
REMARK VINA RESULT:      -6.5      1.440      2.447
REMARK  3 active torsions:
REMARK  status: ('A' for Active; 'I' for Inactive)
REMARK    1  A    between atoms: C7_8  and  N1_1 
REMARK    2  A    between atoms: C1_2  and  C3_4 
REMARK    3  A    between atoms: C2_3  and  C6_7 
ROOT
HETATM    1  C1  UNK     1      18.707   4.813  31.329  1.00  0.00    -0.036 A 
HETATM    2  C4  UNK     1      18.967   4.505  30.004  1.00  0.00     0.013 A 
HETATM    3  C5  UNK     1      18.304   3.841  32.231  1.00  0.00     0.013 A 
HETATM    4  C7  UNK     1      18.412   2.198  30.463  1.00  0.00     0.025 A 
HETATM    5  C8  UNK     1      18.818   3.189  29.568  1.00  0.00     0.030 A 
HETATM    6  C9  UNK     1      18.155   2.525  31.794  1.00  0.00     0.030 A 
ENDROOT
BRANCH   1   7
HETATM    7  C3  UNK     1      18.866   6.204  31.791  1.00  0.00     0.012 C 
HETATM    8  C6  UNK     1      18.782   6.612  33.079  1.00  0.00     0.012 C 
BRANCH   8   9
HETATM    9  C2  UNK     1      18.958   7.982  33.537  1.00  0.00    -0.036 A 
HETATM   10  C10 UNK     1      17.909   8.895  33.428  1.00  0.00     0.011 A 
HETATM   11  C12 UNK     1      18.078  10.207  33.867  1.00  0.00     0.001 A 
HETATM   12  C14 UNK     1      19.296  10.608  34.417  1.00  0.00     0.000 A 
HETATM   13  C13 UNK     1      20.345   9.695  34.527  1.00  0.00     0.001 A 
HETATM   14  C11 UNK     1      20.177   8.383  34.087  1.00  0.00     0.011 A 
ENDBRANCH   8   9
ENDBRANCH   1   7
BRANCH   4  15
HETATM   15  N1  UNK     1      18.262   0.868  30.022  1.00  0.00    -0.399 N 
HETATM   16  H12 UNK     1      19.063   0.250  29.994  1.00  0.00     0.156 HD
HETATM   17  H13 UNK     1      17.354   0.528  29.734  1.00  0.00     0.156 HD
ENDBRANCH   4  15
TORSDOF 3
ENDMDL
