MODEL 1
REMARK VINA RESULT:      -8.5      0.000      0.000
REMARK  4 active torsions:
REMARK  status: ('A' for Active; 'I' for Inactive)
REMARK    1  A    between atoms: C5_10  and  O2_2 
REMARK    2  A    between atoms: C13_18  and  O3_3 
REMARK    3  A    between atoms: C14_19  and  O4_4 
REMARK    4  A    between atoms: C2_7  and  C4_9 
ROOT
HETATM    1  O1  UNK     1      16.917   7.485  32.308  1.00  0.00    -0.306 OA
HETATM    2  O5  UNK     1      19.746   9.388  34.538  1.00  0.00    -0.284 OA
HETATM    3  C1  UNK     1      17.542   9.372  33.701  1.00  0.00     0.051 A 
HETATM    4  C2  UNK     1      18.184   6.951  32.477  1.00  0.00     0.123 A 
HETATM    5  C3  UNK     1      16.620   8.673  32.924  1.00  0.00     0.090 A 
HETATM    6  C5  UNK     1      19.166   7.528  33.193  1.00  0.00     0.152 A 
HETATM    7  C6  UNK     1      18.893   8.818  33.873  1.00  0.00     0.220 A 
HETATM    8  C7  UNK     1      17.183  10.581  34.303  1.00  0.00     0.025 A 
HETATM    9  C8  UNK     1      15.895  11.085  34.123  1.00  0.00    -0.061 A 
HETATM   10  C9  UNK     1      15.333   9.180  32.744  1.00  0.00     0.039 A 
HETATM   11  C11 UNK     1      14.972  10.386  33.344  1.00  0.00     0.009 A 
HETATM   12  C16 UNK     1      15.503  12.374  34.762  1.00  0.00     0.048 C 
ENDROOT
BRANCH   4  13
HETATM   13  C4  UNK     1      18.370   5.675  31.763  1.00  0.00     0.004 A 
HETATM   14  C10 UNK     1      18.007   4.474  32.375  1.00  0.00     0.054 A 
HETATM   15  C13 UNK     1      18.183   3.267  31.700  1.00  0.00     0.102 A 
HETATM   16  C14 UNK     1      18.721   3.259  30.413  1.00  0.00     0.101 A 
HETATM   17  C15 UNK     1      19.085   4.459  29.802  1.00  0.00     0.040 A 
HETATM   18  C12 UNK     1      18.909   5.667  30.478  1.00  0.00     0.017 A 
BRANCH  15  19
HETATM   19  O3  UNK     1      17.824   2.102  32.308  1.00  0.00    -0.353 OA
HETATM   20  C17 UNK     1      18.121   1.977  33.698  1.00  0.00     0.210 C 
ENDBRANCH  15  19
BRANCH  16  21
HETATM   21  O4  UNK     1      18.898   2.086  29.744  1.00  0.00    -0.353 OA
HETATM   22  C18 UNK     1      17.961   1.782  28.713  1.00  0.00     0.210 C 
ENDBRANCH  16  21
ENDBRANCH   4  13
BRANCH   6  23
HETATM   23  O2  UNK     1      20.428   6.986  33.314  1.00  0.00    -0.355 OA
HETATM   24  H10 UNK     1      20.433   6.082  32.960  1.00  0.00     0.218 HD
ENDBRANCH   6  23
TORSDOF 4
ENDMDL
MODEL 2
REMARK VINA RESULT:      -7.9      1.330      2.478
REMARK  4 active torsions:
REMARK  status: ('A' for Active; 'I' for Inactive)
REMARK    1  A    between atoms: C5_10  and  O2_2 
REMARK    2  A    between atoms: C13_18  and  O3_3 
REMARK    3  A    between atoms: C14_19  and  O4_4 
REMARK    4  A    between atoms: C2_7  and  C4_9 
ROOT
HETATM    1  O1  UNK     1      16.554   5.851  32.570  1.00  0.00    -0.306 OA
HETATM    2  O5  UNK     1      19.308   8.558  33.867  1.00  0.00    -0.284 OA
HETATM    3  C1  UNK     1      17.065   8.110  33.294  1.00  0.00     0.051 A 
HETATM    4  C2  UNK     1      17.881   5.499  32.757  1.00  0.00     0.123 A 
HETATM    5  C3  UNK     1      16.173   7.138  32.846  1.00  0.00     0.090 A 
HETATM    6  C5  UNK     1      18.842   6.342  33.176  1.00  0.00     0.152 A 
HETATM    7  C6  UNK     1      18.478   7.747  33.482  1.00  0.00     0.220 A 
HETATM    8  C7  UNK     1      16.620   9.408  33.559  1.00  0.00     0.025 A 
HETATM    9  C8  UNK     1      15.274   9.726  33.371  1.00  0.00    -0.061 A 
HETATM   10  C9  UNK     1      14.829   7.459  32.659  1.00  0.00     0.039 A 
HETATM   11  C11 UNK     1      14.380   8.753  32.921  1.00  0.00     0.009 A 
HETATM   12  C16 UNK     1      14.790  11.108  33.651  1.00  0.00     0.048 C 
ENDROOT
BRANCH   4  13
HETATM   13  C4  UNK     1      18.154   4.089  32.423  1.00  0.00     0.004 A 
HETATM   14  C10 UNK     1      18.448   3.728  31.108  1.00  0.00     0.054 A 
HETATM   15  C13 UNK     1      18.706   2.394  30.792  1.00  0.00     0.102 A 
HETATM   16  C14 UNK     1      18.672   1.422  31.792  1.00  0.00     0.101 A 
HETATM   17  C15 UNK     1      18.377   1.783  33.107  1.00  0.00     0.040 A 
HETATM   18  C12 UNK     1      18.119   3.117  33.422  1.00  0.00     0.017 A 
BRANCH  15  19
HETATM   19  O3  UNK     1      18.992   2.054  29.505  1.00  0.00    -0.353 OA
HETATM   20  C17 UNK     1      17.887   1.884  28.618  1.00  0.00     0.210 C 
ENDBRANCH  15  19
BRANCH  16  21
HETATM   21  O4  UNK     1      18.922   0.116  31.496  1.00  0.00    -0.353 OA
HETATM   22  C18 UNK     1      18.841  -0.818  32.572  1.00  0.00     0.210 C 
ENDBRANCH  16  21
ENDBRANCH   4  13
BRANCH   6  23
HETATM   23  O2  UNK     1      20.161   5.968  33.320  1.00  0.00    -0.355 OA
HETATM   24  H10 UNK     1      20.317   5.126  32.862  1.00  0.00     0.218 HD
ENDBRANCH   6  23
TORSDOF 4
ENDMDL
MODEL 3
REMARK VINA RESULT:      -7.8      2.008      7.783
REMARK  4 active torsions:
REMARK  status: ('A' for Active; 'I' for Inactive)
REMARK    1  A    between atoms: C5_10  and  O2_2 
REMARK    2  A    between atoms: C13_18  and  O3_3 
REMARK    3  A    between atoms: C14_19  and  O4_4 
REMARK    4  A    between atoms: C2_7  and  C4_9 
ROOT
HETATM    1  O1  UNK     1      18.557   3.518  31.028  1.00  0.00    -0.306 OA
HETATM    2  O5  UNK     1      18.689   0.853  34.107  1.00  0.00    -0.284 OA
HETATM    3  C1  UNK     1      18.959   1.253  31.798  1.00  0.00     0.051 A 
HETATM    4  C2  UNK     1      18.281   3.904  32.329  1.00  0.00     0.123 A 
HETATM    5  C3  UNK     1      18.894   2.211  30.790  1.00  0.00     0.090 A 
HETATM    6  C5  UNK     1      18.300   3.077  33.391  1.00  0.00     0.152 A 
HETATM    7  C6  UNK     1      18.654   1.651  33.181  1.00  0.00     0.220 A 
HETATM    8  C7  UNK     1      19.307  -0.066  31.496  1.00  0.00     0.025 A 
HETATM    9  C8  UNK     1      19.591  -0.419  30.176  1.00  0.00    -0.061 A 
HETATM   10  C9  UNK     1      19.177   1.857  29.471  1.00  0.00     0.039 A 
HETATM   11  C11 UNK     1      19.526   0.541  29.165  1.00  0.00     0.009 A 
HETATM   12  C16 UNK     1      19.963  -1.824  29.844  1.00  0.00     0.048 C 
ENDROOT
BRANCH   4  13
HETATM   13  C4  UNK     1      17.933   5.332  32.445  1.00  0.00     0.004 A 
HETATM   14  C10 UNK     1      16.721   5.798  31.934  1.00  0.00     0.054 A 
HETATM   15  C13 UNK     1      16.392   7.149  32.042  1.00  0.00     0.102 A 
HETATM   16  C14 UNK     1      17.275   8.034  32.662  1.00  0.00     0.101 A 
HETATM   17  C15 UNK     1      18.487   7.568  33.172  1.00  0.00     0.040 A 
HETATM   18  C12 UNK     1      18.815   6.216  33.063  1.00  0.00     0.017 A 
BRANCH  15  19
HETATM   19  O3  UNK     1      15.206   7.591  31.541  1.00  0.00    -0.353 OA
HETATM   20  C17 UNK     1      14.029   7.274  32.284  1.00  0.00     0.210 C 
ENDBRANCH  15  19
BRANCH  16  21
HETATM   21  O4  UNK     1      16.965   9.355  32.774  1.00  0.00    -0.353 OA
HETATM   22  C18 UNK     1      16.704   9.850  34.087  1.00  0.00     0.210 C 
ENDBRANCH  16  21
ENDBRANCH   4  13
BRANCH   6  23
HETATM   23  O2  UNK     1      17.988   3.486  34.669  1.00  0.00    -0.355 OA
HETATM   24  H10 UNK     1      18.776   3.433  35.234  1.00  0.00     0.218 HD
ENDBRANCH   6  23
TORSDOF 4
ENDMDL
MODEL 4
REMARK VINA RESULT:      -7.7      7.837     11.968
REMARK  4 active torsions:
REMARK  status: ('A' for Active; 'I' for Inactive)
REMARK    1  A    between atoms: C5_10  and  O2_2 
REMARK    2  A    between atoms: C13_18  and  O3_3 
REMARK    3  A    between atoms: C14_19  and  O4_4 
REMARK    4  A    between atoms: C2_7  and  C4_9 
ROOT
HETATM    1  O1  UNK     1      20.347  -3.435  34.638  1.00  0.00    -0.306 OA
HETATM    2  O5  UNK     1      17.827  -0.390  35.629  1.00  0.00    -0.284 OA
HETATM    3  C1  UNK     1      19.215  -1.384  34.003  1.00  0.00     0.051 A 
HETATM    4  C2  UNK     1      19.743  -3.373  35.883  1.00  0.00     0.123 A 
HETATM    5  C3  UNK     1      20.069  -2.450  33.726  1.00  0.00     0.090 A 
HETATM    6  C5  UNK     1      18.907  -2.395  36.278  1.00  0.00     0.152 A 
HETATM    7  C6  UNK     1      18.581  -1.305  35.327  1.00  0.00     0.220 A 
HETATM    8  C7  UNK     1      18.970  -0.408  33.034  1.00  0.00     0.025 A 
HETATM    9  C8  UNK     1      19.586  -0.506  31.785  1.00  0.00    -0.061 A 
HETATM   10  C9  UNK     1      20.683  -2.546  32.478  1.00  0.00     0.039 A 
HETATM   11  C11 UNK     1      20.441  -1.573  31.508  1.00  0.00     0.009 A 
HETATM   12  C16 UNK     1      19.330   0.531  30.745  1.00  0.00     0.048 C 
ENDROOT
BRANCH   4  13
HETATM   13  C4  UNK     1      20.127  -4.490  36.765  1.00  0.00     0.004 A 
HETATM   14  C10 UNK     1      19.302  -5.610  36.871  1.00  0.00     0.054 A 
HETATM   15  C13 UNK     1      19.665  -6.667  37.705  1.00  0.00     0.102 A 
HETATM   16  C14 UNK     1      20.854  -6.604  38.434  1.00  0.00     0.101 A 
HETATM   17  C15 UNK     1      21.678  -5.483  38.328  1.00  0.00     0.040 A 
HETATM   18  C12 UNK     1      21.314  -4.427  37.493  1.00  0.00     0.017 A 
BRANCH  15  19
HETATM   19  O3  UNK     1      18.852  -7.756  37.800  1.00  0.00    -0.353 OA
HETATM   20  C17 UNK     1      18.940  -8.723  36.753  1.00  0.00     0.210 C 
ENDBRANCH  15  19
BRANCH  16  21
HETATM   21  O4  UNK     1      21.219  -7.630  39.252  1.00  0.00    -0.353 OA
HETATM   22  C18 UNK     1      22.547  -7.599  39.774  1.00  0.00     0.210 C 
ENDBRANCH  16  21
ENDBRANCH   4  13
BRANCH   6  23
HETATM   23  O2  UNK     1      18.348  -2.346  37.537  1.00  0.00    -0.355 OA
HETATM   24  H10 UNK     1      17.380  -2.329  37.467  1.00  0.00     0.218 HD
ENDBRANCH   6  23
TORSDOF 4
ENDMDL
MODEL 5
REMARK VINA RESULT:      -7.7      1.745      7.514
REMARK  4 active torsions:
REMARK  status: ('A' for Active; 'I' for Inactive)
REMARK    1  A    between atoms: C5_10  and  O2_2 
REMARK    2  A    between atoms: C13_18  and  O3_3 
REMARK    3  A    between atoms: C14_19  and  O4_4 
REMARK    4  A    between atoms: C2_7  and  C4_9 
ROOT
HETATM    1  O1  UNK     1      18.144   4.225  33.406  1.00  0.00    -0.306 OA
HETATM    2  O5  UNK     1      18.989   2.938  29.634  1.00  0.00    -0.284 OA
HETATM    3  C1  UNK     1      18.587   2.383  31.891  1.00  0.00     0.051 A 
HETATM    4  C2  UNK     1      18.267   5.114  32.350  1.00  0.00     0.123 A 
HETATM    5  C3  UNK     1      18.299   2.887  33.157  1.00  0.00     0.090 A 
HETATM    6  C5  UNK     1      18.550   4.758  31.083  1.00  0.00     0.152 A 
HETATM    7  C6  UNK     1      18.732   3.321  30.767  1.00  0.00     0.220 A 
HETATM    8  C7  UNK     1      18.736   1.007  31.696  1.00  0.00     0.025 A 
HETATM    9  C8  UNK     1      18.594   0.139  32.780  1.00  0.00    -0.061 A 
HETATM   10  C9  UNK     1      18.159   2.017  34.238  1.00  0.00     0.039 A 
HETATM   11  C11 UNK     1      18.307   0.643  34.048  1.00  0.00     0.009 A 
HETATM   12  C16 UNK     1      18.751  -1.330  32.582  1.00  0.00     0.048 C 
ENDROOT
BRANCH   4  13
HETATM   13  C4  UNK     1      18.078   6.518  32.754  1.00  0.00     0.004 A 
HETATM   14  C10 UNK     1      16.929   7.208  32.365  1.00  0.00     0.054 A 
HETATM   15  C13 UNK     1      16.750   8.537  32.747  1.00  0.00     0.102 A 
HETATM   16  C14 UNK     1      17.719   9.177  33.519  1.00  0.00     0.101 A 
HETATM   17  C15 UNK     1      18.869   8.488  33.908  1.00  0.00     0.040 A 
HETATM   18  C12 UNK     1      19.047   7.158  33.526  1.00  0.00     0.017 A 
BRANCH  15  19
HETATM   19  O3  UNK     1      15.624   9.199  32.361  1.00  0.00    -0.353 OA
HETATM   20  C17 UNK     1      14.442   8.968  33.126  1.00  0.00     0.210 C 
ENDBRANCH  15  19
BRANCH  16  21
HETATM   21  O4  UNK     1      17.557  10.475  33.899  1.00  0.00    -0.353 OA
HETATM   22  C18 UNK     1      18.727  11.289  33.940  1.00  0.00     0.210 C 
ENDBRANCH  16  21
ENDBRANCH   4  13
BRANCH   6  23
HETATM   23  O2  UNK     1      18.698   5.671  30.060  1.00  0.00    -0.355 OA
HETATM   24  H10 UNK     1      18.082   5.461  29.340  1.00  0.00     0.218 HD
ENDBRANCH   6  23
TORSDOF 4
ENDMDL
MODEL 6
REMARK VINA RESULT:      -7.7      1.240      2.428
REMARK  4 active torsions:
REMARK  status: ('A' for Active; 'I' for Inactive)
REMARK    1  A    between atoms: C5_10  and  O2_2 
REMARK    2  A    between atoms: C13_18  and  O3_3 
REMARK    3  A    between atoms: C14_19  and  O4_4 
REMARK    4  A    between atoms: C2_7  and  C4_9 
ROOT
HETATM    1  O1  UNK     1      18.281   8.202  32.900  1.00  0.00    -0.306 OA
HETATM    2  O5  UNK     1      14.355   9.276  33.084  1.00  0.00    -0.284 OA
HETATM    3  C1  UNK     1      16.598   9.821  33.562  1.00  0.00     0.051 A 
HETATM    4  C2  UNK     1      17.285   7.390  32.382  1.00  0.00     0.123 A 
HETATM    5  C3  UNK     1      17.922   9.396  33.470  1.00  0.00     0.090 A 
HETATM    6  C5  UNK     1      15.971   7.680  32.414  1.00  0.00     0.152 A 
HETATM    7  C6  UNK     1      15.534   8.958  33.027  1.00  0.00     0.220 A 
HETATM    8  C7  UNK     1      16.292  11.048  34.156  1.00  0.00     0.025 A 
HETATM    9  C8  UNK     1      17.320  11.847  34.658  1.00  0.00    -0.061 A 
HETATM   10  C9  UNK     1      18.948  10.195  33.973  1.00  0.00     0.039 A 
HETATM   11  C11 UNK     1      18.646  11.421  34.567  1.00  0.00     0.009 A 
HETATM   12  C16 UNK     1      17.002  13.158  35.293  1.00  0.00     0.048 C 
ENDROOT
BRANCH   4  13
HETATM   13  C4  UNK     1      17.806   6.141  31.800  1.00  0.00     0.004 A 
HETATM   14  C10 UNK     1      17.568   4.922  32.437  1.00  0.00     0.054 A 
HETATM   15  C13 UNK     1      18.062   3.739  31.887  1.00  0.00     0.102 A 
HETATM   16  C14 UNK     1      18.793   3.775  30.699  1.00  0.00     0.101 A 
HETATM   17  C15 UNK     1      19.031   4.993  30.062  1.00  0.00     0.040 A 
HETATM   18  C12 UNK     1      18.537   6.176  30.613  1.00  0.00     0.017 A 
BRANCH  15  19
HETATM   19  O3  UNK     1      17.823   2.556  32.518  1.00  0.00    -0.353 OA
HETATM   20  C17 UNK     1      18.174   2.476  33.899  1.00  0.00     0.210 C 
ENDBRANCH  15  19
BRANCH  16  21
HETATM   21  O4  UNK     1      19.280   2.627  30.152  1.00  0.00    -0.353 OA
HETATM   22  C18 UNK     1      18.466   1.978  29.177  1.00  0.00     0.210 C 
ENDBRANCH  16  21
ENDBRANCH   4  13
BRANCH   6  23
HETATM   23  O2  UNK     1      15.001   6.834  31.918  1.00  0.00    -0.355 OA
HETATM   24  H10 UNK     1      14.415   6.548  32.637  1.00  0.00     0.218 HD
ENDBRANCH   6  23
TORSDOF 4
ENDMDL
MODEL 7
REMARK VINA RESULT:      -7.6      2.023      7.570
REMARK  4 active torsions:
REMARK  status: ('A' for Active; 'I' for Inactive)
REMARK    1  A    between atoms: C5_10  and  O2_2 
REMARK    2  A    between atoms: C13_18  and  O3_3 
REMARK    3  A    between atoms: C14_19  and  O4_4 
REMARK    4  A    between atoms: C2_7  and  C4_9 
ROOT
HETATM    1  O1  UNK     1      18.280   3.988  34.572  1.00  0.00    -0.306 OA
HETATM    2  O5  UNK     1      18.367   1.643  31.242  1.00  0.00    -0.284 OA
HETATM    3  C1  UNK     1      18.366   1.768  33.596  1.00  0.00     0.051 A 
HETATM    4  C2  UNK     1      18.240   4.537  33.300  1.00  0.00     0.123 A 
HETATM    5  C3  UNK     1      18.336   2.624  34.695  1.00  0.00     0.090 A 
HETATM    6  C5  UNK     1      18.271   3.823  32.160  1.00  0.00     0.152 A 
HETATM    7  C6  UNK     1      18.337   2.344  32.243  1.00  0.00     0.220 A 
HETATM    8  C7  UNK     1      18.425   0.384  33.782  1.00  0.00     0.025 A 
HETATM    9  C8  UNK     1      18.452  -0.136  35.077  1.00  0.00    -0.061 A 
HETATM   10  C9  UNK     1      18.365   2.102  35.987  1.00  0.00     0.039 A 
HETATM   11  C11 UNK     1      18.423   0.721  36.177  1.00  0.00     0.009 A 
HETATM   12  C16 UNK     1      18.514  -1.611  35.285  1.00  0.00     0.048 C 
ENDROOT
BRANCH   4  13
HETATM   13  C4  UNK     1      18.182   6.010  33.311  1.00  0.00     0.004 A 
HETATM   14  C10 UNK     1      17.122   6.670  32.690  1.00  0.00     0.054 A 
HETATM   15  C13 UNK     1      17.067   8.064  32.700  1.00  0.00     0.102 A 
HETATM   16  C14 UNK     1      18.073   8.797  33.330  1.00  0.00     0.101 A 
HETATM   17  C15 UNK     1      19.134   8.136  33.950  1.00  0.00     0.040 A 
HETATM   18  C12 UNK     1      19.188   6.742  33.940  1.00  0.00     0.017 A 
BRANCH  15  19
HETATM   19  O3  UNK     1      16.026   8.698  32.091  1.00  0.00    -0.353 OA
HETATM   20  C17 UNK     1      14.816   8.819  32.838  1.00  0.00     0.210 C 
ENDBRANCH  15  19
BRANCH  16  21
HETATM   21  O4  UNK     1      18.031  10.158  33.347  1.00  0.00    -0.353 OA
HETATM   22  C18 UNK     1      19.025  10.827  34.120  1.00  0.00     0.210 C 
ENDBRANCH  16  21
ENDBRANCH   4  13
BRANCH   6  23
HETATM   23  O2  UNK     1      18.262   4.402  30.909  1.00  0.00    -0.355 OA
HETATM   24  H10 UNK     1      17.842   3.803  30.271  1.00  0.00     0.218 HD
ENDBRANCH   6  23
TORSDOF 4
ENDMDL
MODEL 8
REMARK VINA RESULT:      -7.5     16.736     18.189
REMARK  4 active torsions:
REMARK  status: ('A' for Active; 'I' for Inactive)
REMARK    1  A    between atoms: C5_10  and  O2_2 
REMARK    2  A    between atoms: C13_18  and  O3_3 
REMARK    3  A    between atoms: C14_19  and  O4_4 
REMARK    4  A    between atoms: C2_7  and  C4_9 
ROOT
HETATM    1  O1  UNK     1      25.978  -6.650  38.481  1.00  0.00    -0.306 OA
HETATM    2  O5  UNK     1      28.858  -9.532  38.424  1.00  0.00    -0.284 OA
HETATM    3  C1  UNK     1      28.334  -7.234  38.500  1.00  0.00     0.051 A 
HETATM    4  C2  UNK     1      25.653  -7.997  38.442  1.00  0.00     0.123 A 
HETATM    5  C3  UNK     1      27.302  -6.298  38.515  1.00  0.00     0.090 A 
HETATM    6  C5  UNK     1      26.551  -8.998  38.415  1.00  0.00     0.152 A 
HETATM    7  C6  UNK     1      27.996  -8.665  38.445  1.00  0.00     0.220 A 
HETATM    8  C7  UNK     1      29.666  -6.816  38.535  1.00  0.00     0.025 A 
HETATM    9  C8  UNK     1      29.959  -5.452  38.586  1.00  0.00    -0.061 A 
HETATM   10  C9  UNK     1      27.597  -4.936  38.565  1.00  0.00     0.039 A 
HETATM   11  C11 UNK     1      28.927  -4.514  38.600  1.00  0.00     0.009 A 
HETATM   12  C16 UNK     1      31.378  -4.997  38.623  1.00  0.00     0.048 C 
ENDROOT
BRANCH   4  13
HETATM   13  C4  UNK     1      24.199  -8.236  38.408  1.00  0.00     0.004 A 
HETATM   14  C10 UNK     1      23.598  -8.718  37.244  1.00  0.00     0.054 A 
HETATM   15  C13 UNK     1      22.222  -8.944  37.212  1.00  0.00     0.102 A 
HETATM   16  C14 UNK     1      21.447  -8.689  38.343  1.00  0.00     0.101 A 
HETATM   17  C15 UNK     1      22.047  -8.206  39.506  1.00  0.00     0.040 A 
HETATM   18  C12 UNK     1      23.424  -7.980  39.538  1.00  0.00     0.017 A 
BRANCH  15  19
HETATM   19  O3  UNK     1      21.648  -9.415  36.070  1.00  0.00    -0.353 OA
HETATM   20  C17 UNK     1      22.063 -10.705  35.621  1.00  0.00     0.210 C 
ENDBRANCH  15  19
BRANCH  16  21
HETATM   21  O4  UNK     1      20.102  -8.905  38.324  1.00  0.00    -0.353 OA
HETATM   22  C18 UNK     1      19.642 -10.164  38.814  1.00  0.00     0.210 C 
ENDBRANCH  16  21
ENDBRANCH   4  13
BRANCH   6  23
HETATM   23  O2  UNK     1      26.194 -10.328  38.343  1.00  0.00    -0.355 OA
HETATM   24  H10 UNK     1      25.415 -10.429  37.772  1.00  0.00     0.218 HD
ENDBRANCH   6  23
TORSDOF 4
ENDMDL
MODEL 9
REMARK VINA RESULT:      -7.5      8.263     13.721
REMARK  4 active torsions:
REMARK  status: ('A' for Active; 'I' for Inactive)
REMARK    1  A    between atoms: C5_10  and  O2_2 
REMARK    2  A    between atoms: C13_18  and  O3_3 
REMARK    3  A    between atoms: C14_19  and  O4_4 
REMARK    4  A    between atoms: C2_7  and  C4_9 
ROOT
HETATM    1  O1  UNK     1      21.081  -4.434  37.394  1.00  0.00    -0.306 OA
HETATM    2  O5  UNK     1      18.516  -7.555  37.923  1.00  0.00    -0.284 OA
HETATM    3  C1  UNK     1      20.643  -6.625  38.341  1.00  0.00     0.051 A 
HETATM    4  C2  UNK     1      19.802  -4.415  36.864  1.00  0.00     0.123 A 
HETATM    5  C3  UNK     1      21.472  -5.527  38.122  1.00  0.00     0.090 A 
HETATM    6  C5  UNK     1      18.907  -5.412  36.994  1.00  0.00     0.152 A 
HETATM    7  C6  UNK     1      19.287  -6.618  37.769  1.00  0.00     0.220 A 
HETATM    8  C7  UNK     1      21.096  -7.714  39.091  1.00  0.00     0.025 A 
HETATM    9  C8  UNK     1      22.387  -7.695  39.621  1.00  0.00    -0.061 A 
HETATM   10  C9  UNK     1      22.762  -5.512  38.652  1.00  0.00     0.039 A 
HETATM   11  C11 UNK     1      23.218  -6.597  39.401  1.00  0.00     0.009 A 
HETATM   12  C16 UNK     1      22.879  -8.852  40.422  1.00  0.00     0.048 C 
ENDROOT
BRANCH   4  13
HETATM   13  C4  UNK     1      19.511  -3.185  36.105  1.00  0.00     0.004 A 
HETATM   14  C10 UNK     1      20.064  -3.001  34.838  1.00  0.00     0.054 A 
HETATM   15  C13 UNK     1      19.790  -1.836  34.120  1.00  0.00     0.102 A 
HETATM   16  C14 UNK     1      18.963  -0.857  34.670  1.00  0.00     0.101 A 
HETATM   17  C15 UNK     1      18.410  -1.041  35.938  1.00  0.00     0.040 A 
HETATM   18  C12 UNK     1      18.685  -2.206  36.655  1.00  0.00     0.017 A 
BRANCH  15  19
HETATM   19  O3  UNK     1      20.335  -1.668  32.883  1.00  0.00    -0.353 OA
HETATM   20  C17 UNK     1      20.964  -2.804  32.292  1.00  0.00     0.210 C 
ENDBRANCH  15  19
BRANCH  16  21
HETATM   21  O4  UNK     1      18.687   0.284  33.979  1.00  0.00    -0.353 OA
HETATM   22  C18 UNK     1      18.222   1.402  34.735  1.00  0.00     0.210 C 
ENDBRANCH  16  21
ENDBRANCH   4  13
BRANCH   6  23
HETATM   23  O2  UNK     1      17.652  -5.376  36.426  1.00  0.00    -0.355 OA
HETATM   24  H10 UNK     1      17.025  -5.870  36.979  1.00  0.00     0.218 HD
ENDBRANCH   6  23
TORSDOF 4
ENDMDL
MODEL 10
REMARK VINA RESULT:      -7.4      1.604      3.323
REMARK  4 active torsions:
REMARK  status: ('A' for Active; 'I' for Inactive)
REMARK    1  A    between atoms: C5_10  and  O2_2 
REMARK    2  A    between atoms: C13_18  and  O3_3 
REMARK    3  A    between atoms: C14_19  and  O4_4 
REMARK    4  A    between atoms: C2_7  and  C4_9 
ROOT
HETATM    1  O1  UNK     1      18.979   6.592  33.356  1.00  0.00    -0.306 OA
HETATM    2  O5  UNK     1      15.540   8.592  32.478  1.00  0.00    -0.284 OA
HETATM    3  C1  UNK     1      17.737   8.676  33.330  1.00  0.00     0.051 A 
HETATM    4  C2  UNK     1      17.892   5.946  32.788  1.00  0.00     0.123 A 
HETATM    5  C3  UNK     1      18.883   7.935  33.608  1.00  0.00     0.090 A 
HETATM    6  C5  UNK     1      16.727   6.543  32.478  1.00  0.00     0.152 A 
HETATM    7  C6  UNK     1      16.575   7.995  32.739  1.00  0.00     0.220 A 
HETATM    8  C7  UNK     1      17.696  10.045  33.610  1.00  0.00     0.025 A 
HETATM    9  C8  UNK     1      18.812  10.666  34.172  1.00  0.00    -0.061 A 
HETATM   10  C9  UNK     1      19.997   8.559  34.170  1.00  0.00     0.039 A 
HETATM   11  C11 UNK     1      19.960   9.925  34.452  1.00  0.00     0.009 A 
HETATM   12  C16 UNK     1      18.777  12.126  34.474  1.00  0.00     0.048 C 
ENDROOT
BRANCH   4  13
HETATM   13  C4  UNK     1      18.128   4.508  32.570  1.00  0.00     0.004 A 
HETATM   14  C10 UNK     1      18.438   4.037  31.293  1.00  0.00     0.054 A 
HETATM   15  C13 UNK     1      18.660   2.676  31.087  1.00  0.00     0.102 A 
HETATM   16  C14 UNK     1      18.572   1.785  32.157  1.00  0.00     0.101 A 
HETATM   17  C15 UNK     1      18.261   2.255  33.433  1.00  0.00     0.040 A 
HETATM   18  C12 UNK     1      18.040   3.617  33.639  1.00  0.00     0.017 A 
BRANCH  15  19
HETATM   19  O3  UNK     1      18.962   2.228  29.836  1.00  0.00    -0.353 OA
HETATM   20  C17 UNK     1      17.869   1.997  28.949  1.00  0.00     0.210 C 
ENDBRANCH  15  19
BRANCH  16  21
HETATM   21  O4  UNK     1      18.787   0.453  31.968  1.00  0.00    -0.353 OA
HETATM   22  C18 UNK     1      18.586  -0.401  33.094  1.00  0.00     0.210 C 
ENDBRANCH  16  21
ENDBRANCH   4  13
BRANCH   6  23
HETATM   23  O2  UNK     1      15.652   5.864  31.943  1.00  0.00    -0.355 OA
HETATM   24  H10 UNK     1      14.944   5.795  32.604  1.00  0.00     0.218 HD
ENDBRANCH   6  23
TORSDOF 4
ENDMDL
