MODEL 1
REMARK VINA RESULT:      -8.0      0.000      0.000
REMARK  1 active torsions:
REMARK  status: ('A' for Active; 'I' for Inactive)
REMARK    1  A    between atoms: C1_5  and  C3_7 
ROOT
HETATM    1 Cl1  UNK     1      17.028  -6.941  35.703  1.00  0.00    -0.081 Cl
HETATM    2 Cl2  UNK     1      20.718 -10.502  37.333  1.00  0.00    -0.084 Cl
HETATM    3  O1  UNK     1      18.964  -4.934  36.622  1.00  0.00    -0.307 OA
HETATM    4  O2  UNK     1      22.629  -5.572  38.282  1.00  0.00    -0.287 OA
HETATM    5  C1  UNK     1      19.776  -3.882  37.019  1.00  0.00     0.090 A 
HETATM    6  C2  UNK     1      20.658  -6.504  37.371  1.00  0.00     0.051 A 
HETATM    7  C4  UNK     1      19.416  -6.215  36.808  1.00  0.00     0.112 A 
HETATM    8  C5  UNK     1      20.992  -4.032  37.566  1.00  0.00     0.093 A 
HETATM    9  C6  UNK     1      21.527  -5.391  37.784  1.00  0.00     0.187 A 
HETATM   10  C9  UNK     1      21.067  -7.830  37.536  1.00  0.00     0.042 A 
HETATM   11  C10 UNK     1      18.575  -7.253  36.406  1.00  0.00     0.070 A 
HETATM   12  C14 UNK     1      20.223  -8.865  37.134  1.00  0.00     0.036 A 
HETATM   13  C15 UNK     1      18.980  -8.578  36.569  1.00  0.00     0.050 A 
ENDROOT
BRANCH   5  14
HETATM   14  C3  UNK     1      19.195  -2.548  36.768  1.00  0.00    -0.002 A 
HETATM   15  C7  UNK     1      18.430  -1.919  37.752  1.00  0.00     0.015 A 
HETATM   16  C12 UNK     1      17.881  -0.658  37.514  1.00  0.00     0.007 A 
HETATM   17  C11 UNK     1      18.096  -0.023  36.291  1.00  0.00    -0.062 A 
HETATM   18  C13 UNK     1      18.860  -0.649  35.306  1.00  0.00     0.007 A 
HETATM   19  C16 UNK     1      17.510   1.325  36.038  1.00  0.00     0.048 C 
HETATM   20  C8  UNK     1      19.409  -1.909  35.543  1.00  0.00     0.015 A 
ENDBRANCH   5  14
TORSDOF 1
ENDMDL
MODEL 2
REMARK VINA RESULT:      -7.6      7.098      9.835
REMARK  1 active torsions:
REMARK  status: ('A' for Active; 'I' for Inactive)
REMARK    1  A    between atoms: C1_5  and  C3_7 
ROOT
HETATM    1 Cl1  UNK     1      17.825   1.564  35.474  1.00  0.00    -0.081 Cl
HETATM    2 Cl2  UNK     1      19.494  -1.885  31.696  1.00  0.00    -0.084 Cl
HETATM    3  O1  UNK     1      17.921   3.547  33.312  1.00  0.00    -0.307 OA
HETATM    4  O2  UNK     1      18.990   2.957  29.425  1.00  0.00    -0.287 OA
HETATM    5  C1  UNK     1      17.928   4.586  32.393  1.00  0.00     0.090 A 
HETATM    6  C2  UNK     1      18.674   2.026  31.573  1.00  0.00     0.051 A 
HETATM    7  C4  UNK     1      18.296   2.297  32.888  1.00  0.00     0.112 A 
HETATM    8  C5  UNK     1      18.265   4.449  31.101  1.00  0.00     0.093 A 
HETATM    9  C6  UNK     1      18.672   3.124  30.594  1.00  0.00     0.187 A 
HETATM   10  C9  UNK     1      19.047   0.733  31.198  1.00  0.00     0.042 A 
HETATM   11  C10 UNK     1      18.287   1.274  33.836  1.00  0.00     0.070 A 
HETATM   12  C14 UNK     1      19.037  -0.287  32.148  1.00  0.00     0.036 A 
HETATM   13  C15 UNK     1      18.658  -0.019  33.464  1.00  0.00     0.050 A 
ENDROOT
BRANCH   5  14
HETATM   14  C3  UNK     1      17.502   5.885  32.953  1.00  0.00    -0.002 A 
HETATM   15  C7  UNK     1      18.203   6.453  34.019  1.00  0.00     0.015 A 
HETATM   16  C12 UNK     1      17.801   7.679  34.548  1.00  0.00     0.007 A 
HETATM   17  C11 UNK     1      16.696   8.342  34.012  1.00  0.00    -0.062 A 
HETATM   18  C13 UNK     1      15.993   7.776  32.948  1.00  0.00     0.007 A 
HETATM   19  C16 UNK     1      16.267   9.653  34.578  1.00  0.00     0.048 C 
HETATM   20  C8  UNK     1      16.395   6.550  32.419  1.00  0.00     0.015 A 
ENDBRANCH   5  14
TORSDOF 1
ENDMDL
MODEL 3
REMARK VINA RESULT:      -7.6      2.811      3.685
REMARK  1 active torsions:
REMARK  status: ('A' for Active; 'I' for Inactive)
REMARK    1  A    between atoms: C1_5  and  C3_7 
ROOT
HETATM    1 Cl1  UNK     1      20.502  -7.193  33.969  1.00  0.00    -0.081 Cl
HETATM    2 Cl2  UNK     1      20.366  -7.874  39.305  1.00  0.00    -0.084 Cl
HETATM    3  O1  UNK     1      20.191  -4.344  34.604  1.00  0.00    -0.307 OA
HETATM    4  O2  UNK     1      19.883  -2.622  38.283  1.00  0.00    -0.287 OA
HETATM    5  C1  UNK     1      20.039  -2.974  34.756  1.00  0.00     0.090 A 
HETATM    6  C2  UNK     1      20.125  -4.603  37.018  1.00  0.00     0.051 A 
HETATM    7  C4  UNK     1      20.226  -5.127  35.730  1.00  0.00     0.112 A 
HETATM    8  C5  UNK     1      19.938  -2.352  35.941  1.00  0.00     0.093 A 
HETATM    9  C6  UNK     1      19.974  -3.149  37.183  1.00  0.00     0.187 A 
HETATM   10  C9  UNK     1      20.167  -5.448  38.130  1.00  0.00     0.042 A 
HETATM   11  C10 UNK     1      20.372  -6.502  35.546  1.00  0.00     0.070 A 
HETATM   12  C14 UNK     1      20.312  -6.823  37.942  1.00  0.00     0.036 A 
HETATM   13  C15 UNK     1      20.415  -7.349  36.653  1.00  0.00     0.050 A 
ENDROOT
BRANCH   5  14
HETATM   14  C3  UNK     1      20.020  -2.227  33.482  1.00  0.00    -0.002 A 
HETATM   15  C7  UNK     1      19.081  -1.214  33.277  1.00  0.00     0.015 A 
HETATM   16  C12 UNK     1      19.063  -0.509  32.072  1.00  0.00     0.007 A 
HETATM   17  C11 UNK     1      19.983  -0.816  31.070  1.00  0.00    -0.062 A 
HETATM   18  C13 UNK     1      20.921  -1.829  31.271  1.00  0.00     0.007 A 
HETATM   19  C16 UNK     1      19.963  -0.062  29.783  1.00  0.00     0.048 C 
HETATM   20  C8  UNK     1      20.940  -2.533  32.475  1.00  0.00     0.015 A 
ENDBRANCH   5  14
TORSDOF 1
ENDMDL
MODEL 4
REMARK VINA RESULT:      -7.4     12.779     14.979
REMARK  1 active torsions:
REMARK  status: ('A' for Active; 'I' for Inactive)
REMARK    1  A    between atoms: C1_5  and  C3_7 
ROOT
HETATM    1 Cl1  UNK     1      20.144   8.726  34.728  1.00  0.00    -0.081 Cl
HETATM    2 Cl2  UNK     1      19.741   5.089  30.784  1.00  0.00    -0.084 Cl
HETATM    3  O1  UNK     1      17.341   9.320  34.089  1.00  0.00    -0.307 OA
HETATM    4  O2  UNK     1      15.002   7.576  31.245  1.00  0.00    -0.287 OA
HETATM    5  C1  UNK     1      16.024   9.709  33.890  1.00  0.00     0.090 A 
HETATM    6  C2  UNK     1      17.113   7.691  32.301  1.00  0.00     0.051 A 
HETATM    7  C4  UNK     1      17.857   8.329  33.293  1.00  0.00     0.112 A 
HETATM    8  C5  UNK     1      15.207   9.167  32.973  1.00  0.00     0.093 A 
HETATM    9  C6  UNK     1      15.713   8.094  32.094  1.00  0.00     0.187 A 
HETATM   10  C9  UNK     1      17.691   6.687  31.520  1.00  0.00     0.042 A 
HETATM   11  C10 UNK     1      19.186   7.964  33.510  1.00  0.00     0.070 A 
HETATM   12  C14 UNK     1      19.019   6.325  31.740  1.00  0.00     0.036 A 
HETATM   13  C15 UNK     1      19.766   6.962  32.733  1.00  0.00     0.050 A 
ENDROOT
BRANCH   5  14
HETATM   14  C3  UNK     1      15.570  10.777  34.802  1.00  0.00    -0.002 A 
HETATM   15  C7  UNK     1      14.385  10.625  35.525  1.00  0.00     0.015 A 
HETATM   16  C12 UNK     1      13.955  11.636  36.387  1.00  0.00     0.007 A 
HETATM   17  C11 UNK     1      14.711  12.800  36.529  1.00  0.00    -0.062 A 
HETATM   18  C13 UNK     1      15.894  12.955  35.807  1.00  0.00     0.007 A 
HETATM   19  C16 UNK     1      14.252  13.878  37.451  1.00  0.00     0.048 C 
HETATM   20  C8  UNK     1      16.324  11.945  34.946  1.00  0.00     0.015 A 
ENDBRANCH   5  14
TORSDOF 1
ENDMDL
MODEL 5
REMARK VINA RESULT:      -7.4      5.430      9.017
REMARK  1 active torsions:
REMARK  status: ('A' for Active; 'I' for Inactive)
REMARK    1  A    between atoms: C1_5  and  C3_7 
ROOT
HETATM    1 Cl1  UNK     1      23.157  -6.472  39.015  1.00  0.00    -0.081 Cl
HETATM    2 Cl2  UNK     1      18.716  -8.499  36.753  1.00  0.00    -0.084 Cl
HETATM    3  O1  UNK     1      24.531  -8.658  37.618  1.00  0.00    -0.307 OA
HETATM    4  O2  UNK     1      22.892 -11.506  35.211  1.00  0.00    -0.287 OA
HETATM    5  C1  UNK     1      25.306  -9.643  37.025  1.00  0.00     0.090 A 
HETATM    6  C2  UNK     1      22.553  -9.607  36.575  1.00  0.00     0.051 A 
HETATM    7  C4  UNK     1      23.179  -8.662  37.387  1.00  0.00     0.112 A 
HETATM    8  C5  UNK     1      24.822 -10.602  36.220  1.00  0.00     0.093 A 
HETATM    9  C6  UNK     1      23.373 -10.648  35.936  1.00  0.00     0.187 A 
HETATM   10  C9  UNK     1      21.171  -9.563  36.375  1.00  0.00     0.042 A 
HETATM   11  C10 UNK     1      22.424  -7.663  38.003  1.00  0.00     0.070 A 
HETATM   12  C14 UNK     1      20.420  -8.563  36.993  1.00  0.00     0.036 A 
HETATM   13  C15 UNK     1      21.044  -7.615  37.805  1.00  0.00     0.050 A 
ENDROOT
BRANCH   5  14
HETATM   14  C3  UNK     1      26.746  -9.542  37.335  1.00  0.00    -0.002 A 
HETATM   15  C7  UNK     1      27.196  -9.727  38.644  1.00  0.00     0.015 A 
HETATM   16  C12 UNK     1      28.557  -9.630  38.937  1.00  0.00     0.007 A 
HETATM   17  C11 UNK     1      29.472  -9.350  37.922  1.00  0.00    -0.062 A 
HETATM   18  C13 UNK     1      29.025  -9.164  36.613  1.00  0.00     0.007 A 
HETATM   19  C16 UNK     1      30.926  -9.248  38.236  1.00  0.00     0.048 C 
HETATM   20  C8  UNK     1      27.665  -9.260  36.320  1.00  0.00     0.015 A 
ENDBRANCH   5  14
TORSDOF 1
ENDMDL
MODEL 6
REMARK VINA RESULT:      -7.3     13.269     15.519
REMARK  1 active torsions:
REMARK  status: ('A' for Active; 'I' for Inactive)
REMARK    1  A    between atoms: C1_5  and  C3_7 
ROOT
HETATM    1 Cl1  UNK     1      17.790  11.797  34.243  1.00  0.00    -0.081 Cl
HETATM    2 Cl2  UNK     1      12.428  12.120  34.551  1.00  0.00    -0.084 Cl
HETATM    3  O1  UNK     1      17.289   9.114  33.162  1.00  0.00    -0.307 OA
HETATM    4  O2  UNK     1      13.694   7.305  32.534  1.00  0.00    -0.287 OA
HETATM    5  C1  UNK     1      17.201   7.829  32.648  1.00  0.00     0.090 A 
HETATM    6  C2  UNK     1      14.865   9.215  33.283  1.00  0.00     0.051 A 
HETATM    7  C4  UNK     1      16.127   9.776  33.472  1.00  0.00     0.112 A 
HETATM    8  C5  UNK     1      16.045   7.186  32.416  1.00  0.00     0.093 A 
HETATM    9  C6  UNK     1      14.767   7.856  32.728  1.00  0.00     0.187 A 
HETATM   10  C9  UNK     1      13.715   9.936  33.615  1.00  0.00     0.042 A 
HETATM   11  C10 UNK     1      16.247  11.064  33.994  1.00  0.00     0.070 A 
HETATM   12  C14 UNK     1      13.838  11.223  34.138  1.00  0.00     0.036 A 
HETATM   13  C15 UNK     1      15.101  11.787  34.327  1.00  0.00     0.050 A 
ENDROOT
BRANCH   5  14
HETATM   14  C3  UNK     1      18.508   7.213  32.346  1.00  0.00    -0.002 A 
HETATM   15  C7  UNK     1      18.708   6.550  31.133  1.00  0.00     0.015 A 
HETATM   16  C12 UNK     1      19.943   5.967  30.848  1.00  0.00     0.007 A 
HETATM   17  C11 UNK     1      20.983   6.047  31.775  1.00  0.00    -0.062 A 
HETATM   18  C13 UNK     1      20.786   6.708  32.987  1.00  0.00     0.007 A 
HETATM   19  C16 UNK     1      22.303   5.425  31.469  1.00  0.00     0.048 C 
HETATM   20  C8  UNK     1      19.551   7.291  33.273  1.00  0.00     0.015 A 
ENDBRANCH   5  14
TORSDOF 1
ENDMDL
MODEL 7
REMARK VINA RESULT:      -7.3      1.735      2.177
REMARK  1 active torsions:
REMARK  status: ('A' for Active; 'I' for Inactive)
REMARK    1  A    between atoms: C1_5  and  C3_7 
ROOT
HETATM    1 Cl1  UNK     1      20.700  -7.173  33.246  1.00  0.00    -0.081 Cl
HETATM    2 Cl2  UNK     1      22.040 -11.186  36.571  1.00  0.00    -0.084 Cl
HETATM    3  O1  UNK     1      20.343  -5.620  35.711  1.00  0.00    -0.307 OA
HETATM    4  O2  UNK     1      20.886  -6.868  39.551  1.00  0.00    -0.287 OA
HETATM    5  C1  UNK     1      20.129  -4.773  36.789  1.00  0.00     0.090 A 
HETATM    6  C2  UNK     1      20.941  -7.402  37.251  1.00  0.00     0.051 A 
HETATM    7  C4  UNK     1      20.738  -6.910  35.962  1.00  0.00     0.112 A 
HETATM    8  C5  UNK     1      20.297  -5.128  38.073  1.00  0.00     0.093 A 
HETATM    9  C6  UNK     1      20.725  -6.504  38.395  1.00  0.00     0.187 A 
HETATM   10  C9  UNK     1      21.344  -8.725  37.446  1.00  0.00     0.042 A 
HETATM   11  C10 UNK     1      20.938  -7.740  34.859  1.00  0.00     0.070 A 
HETATM   12  C14 UNK     1      21.542  -9.553  36.341  1.00  0.00     0.036 A 
HETATM   13  C15 UNK     1      21.341  -9.062  35.050  1.00  0.00     0.050 A 
ENDROOT
BRANCH   5  14
HETATM   14  C3  UNK     1      19.713  -3.409  36.407  1.00  0.00    -0.002 A 
HETATM   15  C7  UNK     1      20.016  -2.913  35.137  1.00  0.00     0.015 A 
HETATM   16  C12 UNK     1      19.624  -1.623  34.776  1.00  0.00     0.007 A 
HETATM   17  C11 UNK     1      18.926  -0.827  35.685  1.00  0.00    -0.062 A 
HETATM   18  C13 UNK     1      18.622  -1.320  36.954  1.00  0.00     0.007 A 
HETATM   19  C16 UNK     1      18.506   0.551  35.298  1.00  0.00     0.048 C 
HETATM   20  C8  UNK     1      19.014  -2.608  37.315  1.00  0.00     0.015 A 
ENDBRANCH   5  14
TORSDOF 1
ENDMDL
MODEL 8
REMARK VINA RESULT:      -7.3      9.424     11.771
REMARK  1 active torsions:
REMARK  status: ('A' for Active; 'I' for Inactive)
REMARK    1  A    between atoms: C1_5  and  C3_7 
ROOT
HETATM    1 Cl1  UNK     1      31.162  -9.985  37.594  1.00  0.00    -0.081 Cl
HETATM    2 Cl2  UNK     1      26.574 -10.202  40.398  1.00  0.00    -0.084 Cl
HETATM    3  O1  UNK     1      30.626  -7.101  37.473  1.00  0.00    -0.307 OA
HETATM    4  O2  UNK     1      27.473  -5.075  39.071  1.00  0.00    -0.287 OA
HETATM    5  C1  UNK     1      30.496  -5.727  37.331  1.00  0.00     0.090 A 
HETATM    6  C2  UNK     1      28.551  -7.151  38.734  1.00  0.00     0.051 A 
HETATM    7  C4  UNK     1      29.655  -7.781  38.163  1.00  0.00     0.112 A 
HETATM    8  C5  UNK     1      29.483  -5.008  37.839  1.00  0.00     0.093 A 
HETATM    9  C6  UNK     1      28.414  -5.693  38.594  1.00  0.00     0.187 A 
HETATM   10  C9  UNK     1      27.592  -7.895  39.427  1.00  0.00     0.042 A 
HETATM   11  C10 UNK     1      29.809  -9.163  38.284  1.00  0.00     0.070 A 
HETATM   12  C14 UNK     1      27.749  -9.276  39.545  1.00  0.00     0.036 A 
HETATM   13  C15 UNK     1      28.855  -9.909  38.976  1.00  0.00     0.050 A 
ENDROOT
BRANCH   5  14
HETATM   14  C3  UNK     1      31.597  -5.095  36.577  1.00  0.00    -0.002 A 
HETATM   15  C7  UNK     1      32.432  -5.872  35.771  1.00  0.00     0.015 A 
HETATM   16  C12 UNK     1      33.473  -5.275  35.059  1.00  0.00     0.007 A 
HETATM   17  C11 UNK     1      33.681  -3.898  35.151  1.00  0.00    -0.062 A 
HETATM   18  C13 UNK     1      32.849  -3.120  35.955  1.00  0.00     0.007 A 
HETATM   19  C16 UNK     1      34.793  -3.260  34.389  1.00  0.00     0.048 C 
HETATM   20  C8  UNK     1      31.809  -3.716  36.667  1.00  0.00     0.015 A 
ENDBRANCH   5  14
TORSDOF 1
ENDMDL
MODEL 9
REMARK VINA RESULT:      -7.2      3.376      6.975
REMARK  1 active torsions:
REMARK  status: ('A' for Active; 'I' for Inactive)
REMARK    1  A    between atoms: C1_5  and  C3_7 
ROOT
HETATM    1 Cl1  UNK     1      21.419  -3.777  31.909  1.00  0.00    -0.081 Cl
HETATM    2 Cl2  UNK     1      19.060   0.888  30.635  1.00  0.00    -0.084 Cl
HETATM    3  O1  UNK     1      20.234  -3.334  34.558  1.00  0.00    -0.307 OA
HETATM    4  O2  UNK     1      17.926  -0.204  35.771  1.00  0.00    -0.287 OA
HETATM    5  C1  UNK     1      19.744  -3.250  35.853  1.00  0.00     0.090 A 
HETATM    6  C2  UNK     1      19.151  -1.225  34.028  1.00  0.00     0.051 A 
HETATM    7  C4  UNK     1      19.934  -2.325  33.679  1.00  0.00     0.112 A 
HETATM    8  C5  UNK     1      18.976  -2.247  36.306  1.00  0.00     0.093 A 
HETATM    9  C6  UNK     1      18.621  -1.138  35.398  1.00  0.00     0.187 A 
HETATM   10  C9  UNK     1      18.877  -0.227  33.090  1.00  0.00     0.042 A 
HETATM   11  C10 UNK     1      20.446  -2.433  32.386  1.00  0.00     0.070 A 
HETATM   12  C14 UNK     1      19.392  -0.337  31.799  1.00  0.00     0.036 A 
HETATM   13  C15 UNK     1      20.175  -1.438  31.446  1.00  0.00     0.050 A 
ENDROOT
BRANCH   5  14
HETATM   14  C3  UNK     1      20.121  -4.390  36.712  1.00  0.00    -0.002 A 
HETATM   15  C7  UNK     1      21.291  -4.337  37.474  1.00  0.00     0.015 A 
HETATM   16  C12 UNK     1      21.648  -5.415  38.285  1.00  0.00     0.007 A 
HETATM   17  C11 UNK     1      20.836  -6.548  38.338  1.00  0.00    -0.062 A 
HETATM   18  C13 UNK     1      19.667  -6.604  37.578  1.00  0.00     0.007 A 
HETATM   19  C16 UNK     1      21.217  -7.698  39.206  1.00  0.00     0.048 C 
HETATM   20  C8  UNK     1      19.310  -5.527  36.767  1.00  0.00     0.015 A 
ENDBRANCH   5  14
TORSDOF 1
ENDMDL
MODEL 10
REMARK VINA RESULT:      -7.2      4.112      7.903
REMARK  1 active torsions:
REMARK  status: ('A' for Active; 'I' for Inactive)
REMARK    1  A    between atoms: C1_5  and  C3_7 
ROOT
HETATM    1 Cl1  UNK     1      21.781  -5.021  38.004  1.00  0.00    -0.081 Cl
HETATM    2 Cl2  UNK     1      17.135  -6.864  36.015  1.00  0.00    -0.084 Cl
HETATM    3  O1  UNK     1      22.803  -7.693  37.347  1.00  0.00    -0.307 OA
HETATM    4  O2  UNK     1      20.777 -10.797  35.657  1.00  0.00    -0.287 OA
HETATM    5  C1  UNK     1      23.415  -8.913  37.099  1.00  0.00     0.090 A 
HETATM    6  C2  UNK     1      20.727  -8.569  36.440  1.00  0.00     0.051 A 
HETATM    7  C4  UNK     1      21.479  -7.548  37.020  1.00  0.00     0.112 A 
HETATM    8  C5  UNK     1      22.799  -9.967  36.540  1.00  0.00     0.093 A 
HETATM    9  C6  UNK     1      21.375  -9.860  36.165  1.00  0.00     0.187 A 
HETATM   10  C9  UNK     1      19.380  -8.363  36.127  1.00  0.00     0.042 A 
HETATM   11  C10 UNK     1      20.888  -6.313  37.289  1.00  0.00     0.070 A 
HETATM   12  C14 UNK     1      18.793  -7.128  36.397  1.00  0.00     0.036 A 
HETATM   13  C15 UNK     1      19.544  -6.104  36.977  1.00  0.00     0.050 A 
ENDROOT
BRANCH   5  14
HETATM   14  C3  UNK     1      24.840  -8.958  37.484  1.00  0.00    -0.002 A 
HETATM   15  C7  UNK     1      25.731  -9.771  36.780  1.00  0.00     0.015 A 
HETATM   16  C12 UNK     1      27.078  -9.814  37.145  1.00  0.00     0.007 A 
HETATM   17  C11 UNK     1      27.536  -9.045  38.215  1.00  0.00    -0.062 A 
HETATM   18  C13 UNK     1      26.647  -8.233  38.920  1.00  0.00     0.007 A 
HETATM   19  C16 UNK     1      28.975  -9.091  38.603  1.00  0.00     0.048 C 
HETATM   20  C8  UNK     1      25.302  -8.189  38.555  1.00  0.00     0.015 A 
ENDBRANCH   5  14
TORSDOF 1
ENDMDL
