MODEL 1
REMARK VINA RESULT:      -9.2      0.000      0.000
REMARK  5 active torsions:
REMARK  status: ('A' for Active; 'I' for Inactive)
REMARK    1  A    between atoms: C17_23  and  O2_2 
REMARK    2  A    between atoms: C18_24  and  O2_2 
REMARK    3  A    between atoms: C3_9  and  N1_6 
REMARK       I    between atoms: C7_13  and  N1_6 
REMARK    4  A    between atoms: C2_8  and  C7_13 
REMARK    5  A    between atoms: C17_23  and  C6_12 
ROOT
HETATM    1  O3  UNK     1      17.560   2.075  30.140  1.00  0.00    -0.267 OA
HETATM    2  N1  UNK     1      19.327   1.349  31.518  1.00  0.00    -0.322 N 
HETATM    3  C7  UNK     1      18.305   2.196  31.111  1.00  0.00     0.262 C 
HETATM    4  H2  UNK     1      19.860   1.615  32.341  1.00  0.00     0.169 HD
ENDROOT
BRANCH   2   5
HETATM    5  C3  UNK     1      19.749   0.146  30.901  1.00  0.00     0.051 A 
HETATM    6  C10 UNK     1      20.360   0.223  29.659  1.00  0.00     0.030 A 
HETATM    7  C15 UNK     1      20.783  -0.949  29.032  1.00  0.00     0.002 A 
HETATM    8  C16 UNK     1      20.589  -2.183  29.654  1.00  0.00     0.001 A 
HETATM    9  C12 UNK     1      19.972  -2.243  30.904  1.00  0.00     0.020 A 
HETATM   10  C6  UNK     1      19.549  -1.071  31.531  1.00  0.00     0.066 A 
BRANCH  10  11
HETATM   11  C17 UNK     1      18.910  -1.170  32.837  1.00  0.00     0.295 C 
HETATM   12  O5  UNK     1      17.725  -0.938  33.067  1.00  0.00    -0.259 OA
BRANCH  11  13
HETATM   13  O2  UNK     1      19.808  -1.560  33.796  1.00  0.00    -0.318 OA
BRANCH  13  14
HETATM   14  C18 UNK     1      19.340  -1.532  35.150  1.00  0.00     0.174 C 
HETATM   15  C19 UNK     1      20.115  -2.546  35.962  1.00  0.00     0.034 C 
ENDBRANCH  13  14
ENDBRANCH  11  13
ENDBRANCH  10  11
ENDBRANCH   2   5
BRANCH   3  16
HETATM   16  C2  UNK     1      18.156   3.352  32.003  1.00  0.00     0.108 A 
HETATM   17  C5  UNK     1      17.978   4.538  31.409  1.00  0.00     0.037 A 
HETATM   18  C1  UNK     1      17.822   5.742  32.210  1.00  0.00    -0.001 A 
HETATM   19  C4  UNK     1      17.861   5.639  33.596  1.00  0.00     0.089 A 
HETATM   20  C8  UNK     1      17.634   7.001  31.633  1.00  0.00     0.014 A 
HETATM   21  C11 UNK     1      17.718   6.754  34.420  1.00  0.00     0.038 A 
HETATM   22  O1  UNK     1      18.048   4.388  34.216  1.00  0.00    -0.274 OA
HETATM   23  C14 UNK     1      17.531   8.005  33.836  1.00  0.00     0.003 A 
HETATM   24  C13 UNK     1      17.489   8.129  32.446  1.00  0.00     0.001 A 
HETATM   25  C9  UNK     1      18.200   3.218  33.477  1.00  0.00     0.304 A 
HETATM   26  O4  UNK     1      18.363   2.133  34.026  1.00  0.00    -0.259 OA
ENDBRANCH   3  16
TORSDOF 5
ENDMDL
MODEL 2
REMARK VINA RESULT:      -9.1      5.140      8.386
REMARK  5 active torsions:
REMARK  status: ('A' for Active; 'I' for Inactive)
REMARK    1  A    between atoms: C17_23  and  O2_2 
REMARK    2  A    between atoms: C18_24  and  O2_2 
REMARK    3  A    between atoms: C3_9  and  N1_6 
REMARK       I    between atoms: C7_13  and  N1_6 
REMARK    4  A    between atoms: C2_8  and  C7_13 
REMARK    5  A    between atoms: C17_23  and  C6_12 
ROOT
HETATM    1  O3  UNK     1      21.476  -4.496  37.129  1.00  0.00    -0.267 OA
HETATM    2  N1  UNK     1      19.231  -5.190  37.288  1.00  0.00    -0.322 N 
HETATM    3  C7  UNK     1      20.266  -4.308  37.009  1.00  0.00     0.262 C 
HETATM    4  H2  UNK     1      18.280  -4.861  37.150  1.00  0.00     0.169 HD
ENDROOT
BRANCH   2   5
HETATM    5  C3  UNK     1      19.333  -6.516  37.779  1.00  0.00     0.051 A 
HETATM    6  C10 UNK     1      19.856  -6.708  39.048  1.00  0.00     0.030 A 
HETATM    7  C15 UNK     1      19.967  -8.004  39.551  1.00  0.00     0.002 A 
HETATM    8  C16 UNK     1      19.555  -9.091  38.779  1.00  0.00     0.001 A 
HETATM    9  C12 UNK     1      19.032  -8.880  37.503  1.00  0.00     0.020 A 
HETATM   10  C6  UNK     1      18.921  -7.584  37.000  1.00  0.00     0.066 A 
BRANCH  10  11
HETATM   11  C17 UNK     1      18.367  -7.398  35.664  1.00  0.00     0.295 C 
HETATM   12  O5  UNK     1      17.256  -7.774  35.298  1.00  0.00    -0.259 OA
BRANCH  11  13
HETATM   13  O2  UNK     1      19.254  -6.743  34.851  1.00  0.00    -0.318 OA
BRANCH  13  14
HETATM   14  C18 UNK     1      20.521  -7.382  34.651  1.00  0.00     0.174 C 
HETATM   15  C19 UNK     1      20.930  -7.226  33.202  1.00  0.00     0.034 C 
ENDBRANCH  13  14
ENDBRANCH  11  13
ENDBRANCH  10  11
ENDBRANCH   2   5
BRANCH   3  16
HETATM   16  C2  UNK     1      19.775  -3.017  36.514  1.00  0.00     0.108 A 
HETATM   17  C5  UNK     1      19.061  -2.286  37.377  1.00  0.00     0.037 A 
HETATM   18  C1  UNK     1      18.530  -0.992  36.978  1.00  0.00    -0.001 A 
HETATM   19  C4  UNK     1      18.779  -0.531  35.689  1.00  0.00     0.089 A 
HETATM   20  C8  UNK     1      17.779  -0.194  37.846  1.00  0.00     0.014 A 
HETATM   21  C11 UNK     1      18.299   0.700  35.245  1.00  0.00     0.038 A 
HETATM   22  O1  UNK     1      19.532  -1.305  34.785  1.00  0.00    -0.274 OA
HETATM   23  C14 UNK     1      17.551   1.488  36.116  1.00  0.00     0.003 A 
HETATM   24  C13 UNK     1      17.291   1.042  37.414  1.00  0.00     0.001 A 
HETATM   25  C9  UNK     1      20.052  -2.546  35.138  1.00  0.00     0.304 A 
HETATM   26  O4  UNK     1      20.706  -3.214  34.343  1.00  0.00    -0.259 OA
ENDBRANCH   3  16
TORSDOF 5
ENDMDL
MODEL 3
REMARK VINA RESULT:      -8.9      1.609      2.295
REMARK  5 active torsions:
REMARK  status: ('A' for Active; 'I' for Inactive)
REMARK    1  A    between atoms: C17_23  and  O2_2 
REMARK    2  A    between atoms: C18_24  and  O2_2 
REMARK    3  A    between atoms: C3_9  and  N1_6 
REMARK       I    between atoms: C7_13  and  N1_6 
REMARK    4  A    between atoms: C2_8  and  C7_13 
REMARK    5  A    between atoms: C17_23  and  C6_12 
ROOT
HETATM    1  O3  UNK     1      17.187   2.494  30.522  1.00  0.00    -0.267 OA
HETATM    2  N1  UNK     1      19.350   2.097  31.365  1.00  0.00    -0.322 N 
HETATM    3  C7  UNK     1      18.219   2.853  31.086  1.00  0.00     0.262 C 
HETATM    4  H2  UNK     1      20.127   2.563  31.824  1.00  0.00     0.169 HD
ENDROOT
BRANCH   2   5
HETATM    5  C3  UNK     1      19.574   0.732  31.060  1.00  0.00     0.051 A 
HETATM    6  C10 UNK     1      20.165   0.418  29.846  1.00  0.00     0.030 A 
HETATM    7  C15 UNK     1      20.393  -0.919  29.524  1.00  0.00     0.002 A 
HETATM    8  C16 UNK     1      20.029  -1.926  30.418  1.00  0.00     0.001 A 
HETATM    9  C12 UNK     1      19.434  -1.593  31.636  1.00  0.00     0.020 A 
HETATM   10  C6  UNK     1      19.206  -0.256  31.959  1.00  0.00     0.066 A 
BRANCH  10  11
HETATM   11  C17 UNK     1      18.585   0.057  33.240  1.00  0.00     0.295 C 
HETATM   12  O5  UNK     1      18.954   0.941  34.010  1.00  0.00    -0.259 OA
BRANCH  11  13
HETATM   13  O2  UNK     1      17.521  -0.770  33.486  1.00  0.00    -0.318 OA
BRANCH  13  14
HETATM   14  C18 UNK     1      17.107  -0.878  34.853  1.00  0.00     0.174 C 
HETATM   15  C19 UNK     1      15.873  -0.028  35.065  1.00  0.00     0.034 C 
ENDBRANCH  13  14
ENDBRANCH  11  13
ENDBRANCH  10  11
ENDBRANCH   2   5
BRANCH   3  16
HETATM   16  C2  UNK     1      18.350   4.237  31.555  1.00  0.00     0.108 A 
HETATM   17  C5  UNK     1      17.729   4.534  32.702  1.00  0.00     0.037 A 
HETATM   18  C1  UNK     1      17.800   5.881  33.248  1.00  0.00    -0.001 A 
HETATM   19  C4  UNK     1      18.521   6.849  32.558  1.00  0.00     0.089 A 
HETATM   20  C8  UNK     1      17.167   6.235  34.442  1.00  0.00     0.014 A 
HETATM   21  C11 UNK     1      18.628   8.157  33.026  1.00  0.00     0.038 A 
HETATM   22  O1  UNK     1      19.174   6.531  31.350  1.00  0.00    -0.274 OA
HETATM   23  C14 UNK     1      17.994   8.502  34.217  1.00  0.00     0.003 A 
HETATM   24  C13 UNK     1      17.265   7.543  34.924  1.00  0.00     0.001 A 
HETATM   25  C9  UNK     1      19.124   5.252  30.805  1.00  0.00     0.304 A 
HETATM   26  O4  UNK     1      19.695   4.984  29.752  1.00  0.00    -0.259 OA
ENDBRANCH   3  16
TORSDOF 5
ENDMDL
MODEL 4
REMARK VINA RESULT:      -8.6      1.901      7.452
REMARK  5 active torsions:
REMARK  status: ('A' for Active; 'I' for Inactive)
REMARK    1  A    between atoms: C17_23  and  O2_2 
REMARK    2  A    between atoms: C18_24  and  O2_2 
REMARK    3  A    between atoms: C3_9  and  N1_6 
REMARK       I    between atoms: C7_13  and  N1_6 
REMARK    4  A    between atoms: C2_8  and  C7_13 
REMARK    5  A    between atoms: C17_23  and  C6_12 
ROOT
HETATM    1  O3  UNK     1      18.495   4.472  30.053  1.00  0.00    -0.267 OA
HETATM    2  N1  UNK     1      17.855   4.522  32.319  1.00  0.00    -0.322 N 
HETATM    3  C7  UNK     1      18.327   3.941  31.150  1.00  0.00     0.262 C 
HETATM    4  H2  UNK     1      17.758   3.926  33.136  1.00  0.00     0.169 HD
ENDROOT
BRANCH   2   5
HETATM    5  C3  UNK     1      17.456   5.867  32.516  1.00  0.00     0.051 A 
HETATM    6  C10 UNK     1      16.222   6.265  32.024  1.00  0.00     0.030 A 
HETATM    7  C15 UNK     1      15.810   7.585  32.205  1.00  0.00     0.002 A 
HETATM    8  C16 UNK     1      16.634   8.489  32.875  1.00  0.00     0.001 A 
HETATM    9  C12 UNK     1      17.873   8.072  33.363  1.00  0.00     0.020 A 
HETATM   10  C6  UNK     1      18.286   6.753  33.182  1.00  0.00     0.066 A 
BRANCH  10  11
HETATM   11  C17 UNK     1      19.584   6.349  33.707  1.00  0.00     0.295 C 
HETATM   12  O5  UNK     1      19.767   5.486  34.562  1.00  0.00    -0.259 OA
BRANCH  11  13
HETATM   13  O2  UNK     1      20.596   7.064  33.120  1.00  0.00    -0.318 OA
BRANCH  13  14
HETATM   14  C18 UNK     1      21.662   6.298  32.547  1.00  0.00     0.174 C 
HETATM   15  C19 UNK     1      21.308   5.951  31.117  1.00  0.00     0.034 C 
ENDBRANCH  13  14
ENDBRANCH  11  13
ENDBRANCH  10  11
ENDBRANCH   2   5
BRANCH   3  16
HETATM   16  C2  UNK     1      18.643   2.519  31.327  1.00  0.00     0.108 A 
HETATM   17  C5  UNK     1      19.195   1.901  30.277  1.00  0.00     0.037 A 
HETATM   18  C1  UNK     1      19.544   0.491  30.356  1.00  0.00    -0.001 A 
HETATM   19  C4  UNK     1      19.292  -0.199  31.537  1.00  0.00     0.089 A 
HETATM   20  C8  UNK     1      20.122  -0.196  29.285  1.00  0.00     0.014 A 
HETATM   21  C11 UNK     1      19.602  -1.551  31.678  1.00  0.00     0.038 A 
HETATM   22  O1  UNK     1      18.711   0.457  32.640  1.00  0.00    -0.274 OA
HETATM   23  C14 UNK     1      20.179  -2.227  30.605  1.00  0.00     0.003 A 
HETATM   24  C13 UNK     1      20.438  -1.551  29.411  1.00  0.00     0.001 A 
HETATM   25  C9  UNK     1      18.367   1.805  32.594  1.00  0.00     0.304 A 
HETATM   26  O4  UNK     1      17.860   2.367  33.559  1.00  0.00    -0.259 OA
ENDBRANCH   3  16
TORSDOF 5
ENDMDL
MODEL 5
REMARK VINA RESULT:      -8.6      2.529      8.041
REMARK  5 active torsions:
REMARK  status: ('A' for Active; 'I' for Inactive)
REMARK    1  A    between atoms: C17_23  and  O2_2 
REMARK    2  A    between atoms: C18_24  and  O2_2 
REMARK    3  A    between atoms: C3_9  and  N1_6 
REMARK       I    between atoms: C7_13  and  N1_6 
REMARK    4  A    between atoms: C2_8  and  C7_13 
REMARK    5  A    between atoms: C17_23  and  C6_12 
ROOT
HETATM    1  O3  UNK     1      17.670   4.114  33.331  1.00  0.00    -0.267 OA
HETATM    2  N1  UNK     1      18.949   5.596  32.022  1.00  0.00    -0.322 N 
HETATM    3  C7  UNK     1      18.364   4.381  32.352  1.00  0.00     0.262 C 
HETATM    4  H2  UNK     1      19.513   5.636  31.179  1.00  0.00     0.169 HD
ENDROOT
BRANCH   2   5
HETATM    5  C3  UNK     1      18.878   6.813  32.745  1.00  0.00     0.051 A 
HETATM    6  C10 UNK     1      19.876   7.089  33.667  1.00  0.00     0.030 A 
HETATM    7  C15 UNK     1      19.827   8.280  34.390  1.00  0.00     0.002 A 
HETATM    8  C16 UNK     1      18.781   9.180  34.184  1.00  0.00     0.001 A 
HETATM    9  C12 UNK     1      17.784   8.887  33.253  1.00  0.00     0.020 A 
HETATM   10  C6  UNK     1      17.833   7.696  32.529  1.00  0.00     0.066 A 
BRANCH  10  11
HETATM   11  C17 UNK     1      16.777   7.422  31.562  1.00  0.00     0.295 C 
HETATM   12  O5  UNK     1      16.712   7.894  30.429  1.00  0.00    -0.259 OA
BRANCH  11  13
HETATM   13  O2  UNK     1      15.848   6.559  32.081  1.00  0.00    -0.318 OA
BRANCH  13  14
HETATM   14  C18 UNK     1      14.507   7.055  32.177  1.00  0.00     0.174 C 
HETATM   15  C19 UNK     1      14.265   7.554  33.585  1.00  0.00     0.034 C 
ENDBRANCH  13  14
ENDBRANCH  11  13
ENDBRANCH  10  11
ENDBRANCH   2   5
BRANCH   3  16
HETATM   16  C2  UNK     1      18.657   3.340  31.360  1.00  0.00     0.108 A 
HETATM   17  C5  UNK     1      18.931   2.123  31.843  1.00  0.00     0.037 A 
HETATM   18  C1  UNK     1      19.234   1.026  30.938  1.00  0.00    -0.001 A 
HETATM   19  C4  UNK     1      19.233   1.264  29.567  1.00  0.00     0.089 A 
HETATM   20  C8  UNK     1      19.526  -0.261  31.398  1.00  0.00     0.014 A 
HETATM   21  C11 UNK     1      19.515   0.256  28.647  1.00  0.00     0.038 A 
HETATM   22  O1  UNK     1      18.943   2.547  29.064  1.00  0.00    -0.274 OA
HETATM   23  C14 UNK     1      19.805  -1.024  29.114  1.00  0.00     0.003 A 
HETATM   24  C13 UNK     1      19.811  -1.282  30.487  1.00  0.00     0.001 A 
HETATM   25  C9  UNK     1      18.649   3.616  29.905  1.00  0.00     0.304 A 
HETATM   26  O4  UNK     1      18.398   4.731  29.458  1.00  0.00    -0.259 OA
ENDBRANCH   3  16
TORSDOF 5
ENDMDL
MODEL 6
REMARK VINA RESULT:      -8.4     13.909     16.843
REMARK  5 active torsions:
REMARK  status: ('A' for Active; 'I' for Inactive)
REMARK    1  A    between atoms: C17_23  and  O2_2 
REMARK    2  A    between atoms: C18_24  and  O2_2 
REMARK    3  A    between atoms: C3_9  and  N1_6 
REMARK       I    between atoms: C7_13  and  N1_6 
REMARK    4  A    between atoms: C2_8  and  C7_13 
REMARK    5  A    between atoms: C17_23  and  C6_12 
ROOT
HETATM    1  O3  UNK     1      17.855  -2.110  15.845  1.00  0.00    -0.267 OA
HETATM    2  N1  UNK     1      19.690  -1.241  14.651  1.00  0.00    -0.322 N 
HETATM    3  C7  UNK     1      18.779  -1.313  15.697  1.00  0.00     0.262 C 
HETATM    4  H2  UNK     1      20.383  -0.499  14.679  1.00  0.00     0.169 HD
ENDROOT
BRANCH   2   5
HETATM    5  C3  UNK     1      19.761  -2.076  13.509  1.00  0.00     0.051 A 
HETATM    6  C10 UNK     1      19.257  -1.595  12.310  1.00  0.00     0.030 A 
HETATM    7  C15 UNK     1      19.315  -2.400  11.173  1.00  0.00     0.002 A 
HETATM    8  C16 UNK     1      19.876  -3.675  11.248  1.00  0.00     0.001 A 
HETATM    9  C12 UNK     1      20.379  -4.145  12.462  1.00  0.00     0.020 A 
HETATM   10  C6  UNK     1      20.321  -3.340  13.599  1.00  0.00     0.066 A 
BRANCH  10  11
HETATM   11  C17 UNK     1      20.857  -3.860  14.851  1.00  0.00     0.295 C 
HETATM   12  O5  UNK     1      20.368  -4.778  15.506  1.00  0.00    -0.259 OA
BRANCH  11  13
HETATM   13  O2  UNK     1      21.995  -3.189  15.215  1.00  0.00    -0.318 OA
BRANCH  13  14
HETATM   14  C18 UNK     1      22.788  -3.799  16.240  1.00  0.00     0.174 C 
HETATM   15  C19 UNK     1      22.408  -3.205  17.579  1.00  0.00     0.034 C 
ENDBRANCH  13  14
ENDBRANCH  11  13
ENDBRANCH  10  11
ENDBRANCH   2   5
BRANCH   3  16
HETATM   16  C2  UNK     1      19.017  -0.277  16.709  1.00  0.00     0.108 A 
HETATM   17  C5  UNK     1      19.010  -0.683  17.983  1.00  0.00     0.037 A 
HETATM   18  C1  UNK     1      19.235   0.271  19.058  1.00  0.00    -0.001 A 
HETATM   19  C4  UNK     1      19.457   1.606  18.737  1.00  0.00     0.089 A 
HETATM   20  C8  UNK     1      19.236  -0.108  20.403  1.00  0.00     0.014 A 
HETATM   21  C11 UNK     1      19.680   2.570  19.719  1.00  0.00     0.038 A 
HETATM   22  O1  UNK     1      19.464   2.028  17.393  1.00  0.00    -0.274 OA
HETATM   23  C14 UNK     1      19.679   2.183  21.057  1.00  0.00     0.003 A 
HETATM   24  C13 UNK     1      19.458   0.847  21.399  1.00  0.00     0.001 A 
HETATM   25  C9  UNK     1      19.252   1.139  16.344  1.00  0.00     0.304 A 
HETATM   26  O4  UNK     1      19.259   1.516  15.176  1.00  0.00    -0.259 OA
ENDBRANCH   3  16
TORSDOF 5
ENDMDL
MODEL 7
REMARK VINA RESULT:      -8.3     14.913     18.032
REMARK  5 active torsions:
REMARK  status: ('A' for Active; 'I' for Inactive)
REMARK    1  A    between atoms: C17_23  and  O2_2 
REMARK    2  A    between atoms: C18_24  and  O2_2 
REMARK    3  A    between atoms: C3_9  and  N1_6 
REMARK       I    between atoms: C7_13  and  N1_6 
REMARK    4  A    between atoms: C2_8  and  C7_13 
REMARK    5  A    between atoms: C17_23  and  C6_12 
ROOT
HETATM    1  O3  UNK     1      17.744  -3.033  15.669  1.00  0.00    -0.267 OA
HETATM    2  N1  UNK     1      20.048  -2.949  15.189  1.00  0.00    -0.322 N 
HETATM    3  C7  UNK     1      18.835  -2.465  15.660  1.00  0.00     0.262 C 
HETATM    4  H2  UNK     1      20.854  -2.332  15.241  1.00  0.00     0.169 HD
ENDROOT
BRANCH   2   5
HETATM    5  C3  UNK     1      20.306  -4.214  14.605  1.00  0.00     0.051 A 
HETATM    6  C10 UNK     1      20.706  -5.250  15.433  1.00  0.00     0.030 A 
HETATM    7  C15 UNK     1      20.967  -6.504  14.881  1.00  0.00     0.002 A 
HETATM    8  C16 UNK     1      20.825  -6.705  13.507  1.00  0.00     0.001 A 
HETATM    9  C12 UNK     1      20.422  -5.650  12.687  1.00  0.00     0.020 A 
HETATM   10  C6  UNK     1      20.161  -4.397  13.240  1.00  0.00     0.066 A 
BRANCH  10  11
HETATM   11  C17 UNK     1      19.739  -3.318  12.355  1.00  0.00     0.295 C 
HETATM   12  O5  UNK     1      18.641  -3.237  11.809  1.00  0.00    -0.259 OA
BRANCH  11  13
HETATM   13  O2  UNK     1      20.734  -2.388  12.204  1.00  0.00    -0.318 OA
BRANCH  13  14
HETATM   14  C18 UNK     1      20.766  -1.693  10.952  1.00  0.00     0.174 C 
HETATM   15  C19 UNK     1      21.392  -2.589   9.905  1.00  0.00     0.034 C 
ENDBRANCH  13  14
ENDBRANCH  11  13
ENDBRANCH  10  11
ENDBRANCH   2   5
BRANCH   3  16
HETATM   16  C2  UNK     1      18.953  -1.106  16.200  1.00  0.00     0.108 A 
HETATM   17  C5  UNK     1      18.733  -0.970  17.513  1.00  0.00     0.037 A 
HETATM   18  C1  UNK     1      18.827   0.340  18.140  1.00  0.00    -0.001 A 
HETATM   19  C4  UNK     1      19.148   1.441  17.353  1.00  0.00     0.089 A 
HETATM   20  C8  UNK     1      18.605   0.529  19.507  1.00  0.00     0.014 A 
HETATM   21  C11 UNK     1      19.253   2.722  17.892  1.00  0.00     0.038 A 
HETATM   22  O1  UNK     1      19.379   1.292  15.972  1.00  0.00    -0.274 OA
HETATM   23  C14 UNK     1      19.030   2.902  19.255  1.00  0.00     0.003 A 
HETATM   24  C13 UNK     1      18.707   1.808  20.061  1.00  0.00     0.001 A 
HETATM   25  C9  UNK     1      19.297   0.052  15.344  1.00  0.00     0.304 A 
HETATM   26  O4  UNK     1      19.499  -0.068  14.140  1.00  0.00    -0.259 OA
ENDBRANCH   3  16
TORSDOF 5
ENDMDL
MODEL 8
REMARK VINA RESULT:      -8.2      2.164      2.991
REMARK  5 active torsions:
REMARK  status: ('A' for Active; 'I' for Inactive)
REMARK    1  A    between atoms: C17_23  and  O2_2 
REMARK    2  A    between atoms: C18_24  and  O2_2 
REMARK    3  A    between atoms: C3_9  and  N1_6 
REMARK       I    between atoms: C7_13  and  N1_6 
REMARK    4  A    between atoms: C2_8  and  C7_13 
REMARK    5  A    between atoms: C17_23  and  C6_12 
ROOT
HETATM    1  O3  UNK     1      19.462   4.978  31.028  1.00  0.00    -0.267 OA
HETATM    2  N1  UNK     1      18.125   3.403  32.157  1.00  0.00    -0.322 N 
HETATM    3  C7  UNK     1      18.586   4.671  31.835  1.00  0.00     0.262 C 
HETATM    4  H2  UNK     1      17.403   3.329  32.867  1.00  0.00     0.169 HD
ENDROOT
BRANCH   2   5
HETATM    5  C3  UNK     1      18.561   2.163  31.626  1.00  0.00     0.051 A 
HETATM    6  C10 UNK     1      18.905   2.108  30.284  1.00  0.00     0.030 A 
HETATM    7  C15 UNK     1      19.337   0.899  29.740  1.00  0.00     0.002 A 
HETATM    8  C16 UNK     1      19.419  -0.239  30.543  1.00  0.00     0.001 A 
HETATM    9  C12 UNK     1      19.068  -0.167  31.892  1.00  0.00     0.020 A 
HETATM   10  C6  UNK     1      18.637   1.043  32.436  1.00  0.00     0.066 A 
BRANCH  10  11
HETATM   11  C17 UNK     1      18.281   1.085  33.849  1.00  0.00     0.295 C 
HETATM   12  O5  UNK     1      19.079   1.059  34.783  1.00  0.00    -0.259 OA
BRANCH  11  13
HETATM   13  O2  UNK     1      16.922   1.156  34.012  1.00  0.00    -0.318 OA
BRANCH  13  14
HETATM   14  C18 UNK     1      16.388   0.505  35.171  1.00  0.00     0.174 C 
HETATM   15  C19 UNK     1      16.251  -0.975  34.886  1.00  0.00     0.034 C 
ENDBRANCH  13  14
ENDBRANCH  11  13
ENDBRANCH  10  11
ENDBRANCH   2   5
BRANCH   3  16
HETATM   16  C2  UNK     1      17.893   5.721  32.591  1.00  0.00     0.108 A 
HETATM   17  C5  UNK     1      16.683   6.072  32.142  1.00  0.00     0.037 A 
HETATM   18  C1  UNK     1      15.918   7.104  32.826  1.00  0.00    -0.001 A 
HETATM   19  C4  UNK     1      16.466   7.715  33.948  1.00  0.00     0.089 A 
HETATM   20  C8  UNK     1      14.651   7.502  32.392  1.00  0.00     0.014 A 
HETATM   21  C11 UNK     1      15.786   8.710  34.648  1.00  0.00     0.038 A 
HETATM   22  O1  UNK     1      17.741   7.341  34.417  1.00  0.00    -0.274 OA
HETATM   23  C14 UNK     1      14.523   9.101  34.209  1.00  0.00     0.003 A 
HETATM   24  C13 UNK     1      13.957   8.499  33.083  1.00  0.00     0.001 A 
HETATM   25  C9  UNK     1      18.496   6.357  33.785  1.00  0.00     0.304 A 
HETATM   26  O4  UNK     1      19.606   6.039  34.199  1.00  0.00    -0.259 OA
ENDBRANCH   3  16
TORSDOF 5
ENDMDL
MODEL 9
REMARK VINA RESULT:      -8.1      1.791      4.218
REMARK  5 active torsions:
REMARK  status: ('A' for Active; 'I' for Inactive)
REMARK    1  A    between atoms: C17_23  and  O2_2 
REMARK    2  A    between atoms: C18_24  and  O2_2 
REMARK    3  A    between atoms: C3_9  and  N1_6 
REMARK       I    between atoms: C7_13  and  N1_6 
REMARK    4  A    between atoms: C2_8  and  C7_13 
REMARK    5  A    between atoms: C17_23  and  C6_12 
ROOT
HETATM    1  O3  UNK     1      16.725   0.791  34.210  1.00  0.00    -0.267 OA
HETATM    2  N1  UNK     1      18.970   0.088  34.082  1.00  0.00    -0.322 N 
HETATM    3  C7  UNK     1      17.871   0.877  33.770  1.00  0.00     0.262 C 
HETATM    4  H2  UNK     1      19.844   0.288  33.606  1.00  0.00     0.169 HD
ENDROOT
BRANCH   2   5
HETATM    5  C3  UNK     1      19.021  -1.005  34.982  1.00  0.00     0.051 A 
HETATM    6  C10 UNK     1      18.192  -0.981  36.093  1.00  0.00     0.030 A 
HETATM    7  C15 UNK     1      18.227  -2.045  36.994  1.00  0.00     0.002 A 
HETATM    8  C16 UNK     1      19.089  -3.120  36.773  1.00  0.00     0.001 A 
HETATM    9  C12 UNK     1      19.918  -3.128  35.650  1.00  0.00     0.020 A 
HETATM   10  C6  UNK     1      19.883  -2.064  34.749  1.00  0.00     0.066 A 
BRANCH  10  11
HETATM   11  C17 UNK     1      20.759  -2.106  33.585  1.00  0.00     0.295 C 
HETATM   12  O5  UNK     1      21.987  -2.063  33.619  1.00  0.00    -0.259 OA
BRANCH  11  13
HETATM   13  O2  UNK     1      20.034  -2.200  32.426  1.00  0.00    -0.318 OA
BRANCH  13  14
HETATM   14  C18 UNK     1      20.657  -2.903  31.345  1.00  0.00     0.174 C 
HETATM   15  C19 UNK     1      20.472  -2.110  30.069  1.00  0.00     0.034 C 
ENDBRANCH  13  14
ENDBRANCH  11  13
ENDBRANCH  10  11
ENDBRANCH   2   5
BRANCH   3  16
HETATM   16  C2  UNK     1      18.199   1.920  32.791  1.00  0.00     0.108 A 
HETATM   17  C5  UNK     1      18.050   3.185  33.202  1.00  0.00     0.037 A 
HETATM   18  C1  UNK     1      18.350   4.288  32.303  1.00  0.00    -0.001 A 
HETATM   19  C4  UNK     1      18.792   4.005  31.015  1.00  0.00     0.089 A 
HETATM   20  C8  UNK     1      18.208   5.624  32.689  1.00  0.00     0.014 A 
HETATM   21  C11 UNK     1      19.096   5.015  30.105  1.00  0.00     0.038 A 
HETATM   22  O1  UNK     1      18.947   2.672  30.588  1.00  0.00    -0.274 OA
HETATM   23  C14 UNK     1      18.952   6.344  30.498  1.00  0.00     0.003 A 
HETATM   24  C13 UNK     1      18.509   6.648  31.787  1.00  0.00     0.001 A 
HETATM   25  C9  UNK     1      18.669   1.596  31.425  1.00  0.00     0.304 A 
HETATM   26  O4  UNK     1      18.807   0.438  31.044  1.00  0.00    -0.259 OA
ENDBRANCH   3  16
TORSDOF 5
ENDMDL
MODEL 10
REMARK VINA RESULT:      -8.0      2.227      4.345
REMARK  5 active torsions:
REMARK  status: ('A' for Active; 'I' for Inactive)
REMARK    1  A    between atoms: C17_23  and  O2_2 
REMARK    2  A    between atoms: C18_24  and  O2_2 
REMARK    3  A    between atoms: C3_9  and  N1_6 
REMARK       I    between atoms: C7_13  and  N1_6 
REMARK    4  A    between atoms: C2_8  and  C7_13 
REMARK    5  A    between atoms: C17_23  and  C6_12 
ROOT
HETATM    1  O3  UNK     1      18.543  -0.858  31.883  1.00  0.00    -0.267 OA
HETATM    2  N1  UNK     1      18.694   0.331  33.910  1.00  0.00    -0.322 N 
HETATM    3  C7  UNK     1      18.642   0.182  32.531  1.00  0.00     0.262 C 
HETATM    4  H2  UNK     1      18.798   1.272  34.280  1.00  0.00     0.169 HD
ENDROOT
BRANCH   2   5
HETATM    5  C3  UNK     1      18.647  -0.690  34.892  1.00  0.00     0.051 A 
HETATM    6  C10 UNK     1      19.736  -1.539  35.010  1.00  0.00     0.030 A 
HETATM    7  C15 UNK     1      19.711  -2.552  35.968  1.00  0.00     0.002 A 
HETATM    8  C16 UNK     1      18.598  -2.703  36.796  1.00  0.00     0.001 A 
HETATM    9  C12 UNK     1      17.509  -1.840  36.664  1.00  0.00     0.020 A 
HETATM   10  C6  UNK     1      17.535  -0.827  35.706  1.00  0.00     0.066 A 
BRANCH  10  11
HETATM   11  C17 UNK     1      16.382   0.059  35.596  1.00  0.00     0.295 C 
HETATM   12  O5  UNK     1      15.773   0.305  34.557  1.00  0.00    -0.259 OA
BRANCH  11  13
HETATM   13  O2  UNK     1      16.055   0.594  36.814  1.00  0.00    -0.318 OA
BRANCH  13  14
HETATM   14  C18 UNK     1      16.837   1.715  37.243  1.00  0.00     0.174 C 
HETATM   15  C19 UNK     1      17.674   1.308  38.436  1.00  0.00     0.034 C 
ENDBRANCH  13  14
ENDBRANCH  11  13
ENDBRANCH  10  11
ENDBRANCH   2   5
BRANCH   3  16
HETATM   16  C2  UNK     1      18.717   1.471  31.832  1.00  0.00     0.108 A 
HETATM   17  C5  UNK     1      18.335   2.546  32.531  1.00  0.00     0.037 A 
HETATM   18  C1  UNK     1      18.374   3.867  31.924  1.00  0.00    -0.001 A 
HETATM   19  C4  UNK     1      18.814   3.991  30.610  1.00  0.00     0.089 A 
HETATM   20  C8  UNK     1      17.984   5.017  32.616  1.00  0.00     0.014 A 
HETATM   21  C11 UNK     1      18.875   5.227  29.971  1.00  0.00     0.038 A 
HETATM   22  O1  UNK     1      19.215   2.856  29.879  1.00  0.00    -0.274 OA
HETATM   23  C14 UNK     1      18.484   6.369  30.668  1.00  0.00     0.003 A 
HETATM   24  C13 UNK     1      18.040   6.264  31.988  1.00  0.00     0.001 A 
HETATM   25  C9  UNK     1      19.189   1.580  30.433  1.00  0.00     0.304 A 
HETATM   26  O4  UNK     1      19.540   0.596  29.789  1.00  0.00    -0.259 OA
ENDBRANCH   3  16
TORSDOF 5
ENDMDL
