MODEL 1
REMARK VINA RESULT:      -6.7      0.000      0.000
REMARK  1 active torsions:
REMARK  status: ('A' for Active; 'I' for Inactive)
REMARK    1  A    between atoms: C6_10  and  O2_3 
ROOT
HETATM    1  I1  UNK     1      18.088   1.699  34.657  1.00  0.00    -0.039 I 
HETATM    2  O1  UNK     1      19.418  -0.553  32.876  1.00  0.00    -0.273 OA
HETATM    3  O3  UNK     1      20.282  -2.652  33.150  1.00  0.00    -0.260 OA
HETATM    4  C1  UNK     1      19.412   0.457  30.652  1.00  0.00     0.005 A 
HETATM    5  C2  UNK     1      19.117   0.521  32.015  1.00  0.00     0.109 A 
HETATM    6  C3  UNK     1      20.046  -0.759  30.125  1.00  0.00    -0.043 A 
HETATM    7  C4  UNK     1      19.081   1.566  29.862  1.00  0.00     0.017 A 
HETATM    8  C5  UNK     1      18.515   1.639  32.595  1.00  0.00     0.074 A 
HETATM    9  C6  UNK     1      18.194   2.730  31.795  1.00  0.00     0.087 A 
HETATM   10  C7  UNK     1      18.477   2.693  30.430  1.00  0.00     0.039 A 
HETATM   11  C8  UNK     1      20.321  -1.765  30.969  1.00  0.00     0.090 A 
HETATM   12  C9  UNK     1      20.376  -0.859  28.666  1.00  0.00     0.049 C 
HETATM   13  C10 UNK     1      20.016  -1.712  32.409  1.00  0.00     0.288 A 
ENDROOT
BRANCH   9  14
HETATM   14  O2  UNK     1      17.606   3.853  32.295  1.00  0.00    -0.355 OA
HETATM   15  C11 UNK     1      18.195   5.103  31.946  1.00  0.00     0.210 C 
ENDBRANCH   9  14
TORSDOF 1
ENDMDL
MODEL 2
REMARK VINA RESULT:      -6.5      1.705      4.392
REMARK  1 active torsions:
REMARK  status: ('A' for Active; 'I' for Inactive)
REMARK    1  A    between atoms: C6_10  and  O2_3 
ROOT
HETATM    1  I1  UNK     1      17.690   0.487  34.836  1.00  0.00    -0.039 I 
HETATM    2  O1  UNK     1      18.403   1.078  31.811  1.00  0.00    -0.273 OA
HETATM    3  O3  UNK     1      17.899   2.637  30.216  1.00  0.00    -0.260 OA
HETATM    4  C1  UNK     1      19.906  -0.764  31.249  1.00  0.00     0.005 A 
HETATM    5  C2  UNK     1      19.095  -0.096  32.169  1.00  0.00     0.109 A 
HETATM    6  C3  UNK     1      20.028  -0.217  29.891  1.00  0.00    -0.043 A 
HETATM    7  C4  UNK     1      20.561  -1.924  31.684  1.00  0.00     0.017 A 
HETATM    8  C5  UNK     1      18.926  -0.547  33.479  1.00  0.00     0.074 A 
HETATM    9  C6  UNK     1      19.584  -1.701  33.890  1.00  0.00     0.087 A 
HETATM   10  C7  UNK     1      20.401  -2.388  32.993  1.00  0.00     0.039 A 
HETATM   11  C8  UNK     1      19.358   0.901  29.579  1.00  0.00     0.090 A 
HETATM   12  C9  UNK     1      20.891  -0.912  28.880  1.00  0.00     0.049 C 
HETATM   13  C10 UNK     1      18.497   1.617  30.537  1.00  0.00     0.288 A 
ENDROOT
BRANCH   9  14
HETATM   14  O2  UNK     1      19.463  -2.197  35.154  1.00  0.00    -0.355 OA
HETATM   15  C11 UNK     1      20.659  -2.316  35.921  1.00  0.00     0.210 C 
ENDBRANCH   9  14
TORSDOF 1
ENDMDL
MODEL 3
REMARK VINA RESULT:      -6.3      4.802      9.137
REMARK  1 active torsions:
REMARK  status: ('A' for Active; 'I' for Inactive)
REMARK    1  A    between atoms: C6_10  and  O2_3 
ROOT
HETATM    1  I1  UNK     1      14.966   7.284  32.271  1.00  0.00    -0.039 I 
HETATM    2  O1  UNK     1      16.785   9.592  33.445  1.00  0.00    -0.273 OA
HETATM    3  O3  UNK     1      16.579  11.794  34.026  1.00  0.00    -0.260 OA
HETATM    4  C1  UNK     1      18.944   8.481  33.717  1.00  0.00     0.005 A 
HETATM    5  C2  UNK     1      17.601   8.448  33.338  1.00  0.00     0.109 A 
HETATM    6  C3  UNK     1      19.498   9.739  34.236  1.00  0.00    -0.043 A 
HETATM    7  C4  UNK     1      19.687   7.300  33.581  1.00  0.00     0.017 A 
HETATM    8  C5  UNK     1      16.996   7.293  32.837  1.00  0.00     0.074 A 
HETATM    9  C6  UNK     1      17.751   6.133  32.708  1.00  0.00     0.087 A 
HETATM   10  C7  UNK     1      19.094   6.136  33.080  1.00  0.00     0.039 A 
HETATM   11  C8  UNK     1      18.698  10.812  34.326  1.00  0.00     0.090 A 
HETATM   12  C9  UNK     1      20.937   9.807  34.652  1.00  0.00     0.049 C 
HETATM   13  C10 UNK     1      17.280  10.792  33.929  1.00  0.00     0.288 A 
ENDROOT
BRANCH   9  14
HETATM   14  O2  UNK     1      17.225   4.971  32.226  1.00  0.00    -0.355 OA
HETATM   15  C11 UNK     1      18.143   4.005  31.719  1.00  0.00     0.210 C 
ENDBRANCH   9  14
TORSDOF 1
ENDMDL
MODEL 4
REMARK VINA RESULT:      -6.3      5.623      6.981
REMARK  1 active torsions:
REMARK  status: ('A' for Active; 'I' for Inactive)
REMARK    1  A    between atoms: C6_10  and  O2_3 
ROOT
HETATM    1  I1  UNK     1      15.266   7.446  32.146  1.00  0.00    -0.039 I 
HETATM    2  O1  UNK     1      17.957   6.167  31.081  1.00  0.00    -0.273 OA
HETATM    3  O3  UNK     1      18.654   4.882  29.323  1.00  0.00    -0.260 OA
HETATM    4  C1  UNK     1      19.585   6.881  32.758  1.00  0.00     0.005 A 
HETATM    5  C2  UNK     1      18.278   6.857  32.268  1.00  0.00     0.109 A 
HETATM    6  C3  UNK     1      20.630   6.169  32.010  1.00  0.00    -0.043 A 
HETATM    7  C4  UNK     1      19.821   7.590  33.943  1.00  0.00     0.017 A 
HETATM    8  C5  UNK     1      17.227   7.508  32.916  1.00  0.00     0.074 A 
HETATM    9  C6  UNK     1      17.482   8.206  34.091  1.00  0.00     0.087 A 
HETATM   10  C7  UNK     1      18.778   8.247  34.604  1.00  0.00     0.039 A 
HETATM   11  C8  UNK     1      20.296   5.521  30.885  1.00  0.00     0.090 A 
HETATM   12  C9  UNK     1      22.044   6.176  32.511  1.00  0.00     0.049 C 
HETATM   13  C10 UNK     1      18.922   5.486  30.355  1.00  0.00     0.288 A 
ENDROOT
BRANCH   9  14
HETATM   14  O2  UNK     1      16.503   8.863  34.776  1.00  0.00    -0.355 OA
HETATM   15  C11 UNK     1      16.404  10.270  34.573  1.00  0.00     0.210 C 
ENDBRANCH   9  14
TORSDOF 1
ENDMDL
MODEL 5
REMARK VINA RESULT:      -6.2      1.725      4.640
REMARK  1 active torsions:
REMARK  status: ('A' for Active; 'I' for Inactive)
REMARK    1  A    between atoms: C6_10  and  O2_3 
ROOT
HETATM    1  I1  UNK     1      17.735   1.363  36.275  1.00  0.00    -0.039 I 
HETATM    2  O1  UNK     1      17.984   2.637  33.390  1.00  0.00    -0.273 OA
HETATM    3  O3  UNK     1      17.642   4.663  32.387  1.00  0.00    -0.260 OA
HETATM    4  C1  UNK     1      18.769   0.755  32.044  1.00  0.00     0.005 A 
HETATM    5  C2  UNK     1      18.373   1.288  33.272  1.00  0.00     0.109 A 
HETATM    6  C3  UNK     1      18.774   1.632  30.865  1.00  0.00    -0.043 A 
HETATM    7  C4  UNK     1      19.142  -0.595  32.011  1.00  0.00     0.017 A 
HETATM    8  C5  UNK     1      18.341   0.524  34.440  1.00  0.00     0.074 A 
HETATM    9  C6  UNK     1      18.714  -0.814  34.387  1.00  0.00     0.087 A 
HETATM   10  C7  UNK     1      19.114  -1.373  33.174  1.00  0.00     0.039 A 
HETATM   11  C8  UNK     1      18.399   2.912  31.007  1.00  0.00     0.090 A 
HETATM   12  C9  UNK     1      19.194   1.090  29.531  1.00  0.00     0.049 C 
HETATM   13  C10 UNK     1      17.978   3.488  32.296  1.00  0.00     0.288 A 
ENDROOT
BRANCH   9  14
HETATM   14  O2  UNK     1      18.706  -1.618  35.488  1.00  0.00    -0.355 OA
HETATM   15  C11 UNK     1      19.959  -2.148  35.913  1.00  0.00     0.210 C 
ENDBRANCH   9  14
TORSDOF 1
ENDMDL
MODEL 6
REMARK VINA RESULT:      -6.2      6.199      8.462
REMARK  1 active torsions:
REMARK  status: ('A' for Active; 'I' for Inactive)
REMARK    1  A    between atoms: C6_10  and  O2_3 
ROOT
HETATM    1  I1  UNK     1      18.248   4.381  31.982  1.00  0.00    -0.039 I 
HETATM    2  O1  UNK     1      15.970   6.562  32.238  1.00  0.00    -0.273 OA
HETATM    3  O3  UNK     1      13.769   6.800  31.669  1.00  0.00    -0.260 OA
HETATM    4  C1  UNK     1      17.114   8.393  33.382  1.00  0.00     0.005 A 
HETATM    5  C2  UNK     1      17.126   7.111  32.829  1.00  0.00     0.109 A 
HETATM    6  C3  UNK     1      15.866   9.167  33.338  1.00  0.00    -0.043 A 
HETATM    7  C4  UNK     1      18.304   8.866  33.951  1.00  0.00     0.017 A 
HETATM    8  C5  UNK     1      18.269   6.310  32.830  1.00  0.00     0.074 A 
HETATM    9  C6  UNK     1      19.440   6.798  33.399  1.00  0.00     0.087 A 
HETATM   10  C7  UNK     1      19.457   8.075  33.959  1.00  0.00     0.039 A 
HETATM   11  C8  UNK     1      14.782   8.619  32.769  1.00  0.00     0.090 A 
HETATM   12  C9  UNK     1      15.820  10.547  33.923  1.00  0.00     0.049 C 
HETATM   13  C10 UNK     1      14.779   7.268  32.181  1.00  0.00     0.288 A 
ENDROOT
BRANCH   9  14
HETATM   14  O2  UNK     1      20.592   6.070  33.434  1.00  0.00    -0.355 OA
HETATM   15  C11 UNK     1      21.596   6.400  32.477  1.00  0.00     0.210 C 
ENDBRANCH   9  14
TORSDOF 1
ENDMDL
MODEL 7
REMARK VINA RESULT:      -6.1      1.437      5.307
REMARK  1 active torsions:
REMARK  status: ('A' for Active; 'I' for Inactive)
REMARK    1  A    between atoms: C6_10  and  O2_3 
ROOT
HETATM    1  I1  UNK     1      17.843   1.236  34.593  1.00  0.00    -0.039 I 
HETATM    2  O1  UNK     1      17.903   4.226  33.560  1.00  0.00    -0.273 OA
HETATM    3  O3  UNK     1      17.497   6.321  34.383  1.00  0.00    -0.260 OA
HETATM    4  C1  UNK     1      18.597   3.971  31.232  1.00  0.00     0.005 A 
HETATM    5  C2  UNK     1      18.283   3.414  32.473  1.00  0.00     0.109 A 
HETATM    6  C3  UNK     1      18.525   5.430  31.076  1.00  0.00    -0.043 A 
HETATM    7  C4  UNK     1      18.966   3.095  30.202  1.00  0.00     0.017 A 
HETATM    8  C5  UNK     1      18.327   2.039  32.705  1.00  0.00     0.074 A 
HETATM    9  C6  UNK     1      18.695   1.186  31.670  1.00  0.00     0.087 A 
HETATM   10  C7  UNK     1      19.014   1.714  30.420  1.00  0.00     0.039 A 
HETATM   11  C8  UNK     1      18.161   6.178  32.128  1.00  0.00     0.090 A 
HETATM   12  C9  UNK     1      18.856   6.058  29.755  1.00  0.00     0.049 C 
HETATM   13  C10 UNK     1      17.826   5.605  33.444  1.00  0.00     0.288 A 
ENDROOT
BRANCH   9  14
HETATM   14  O2  UNK     1      18.758  -0.166  31.827  1.00  0.00    -0.355 OA
HETATM   15  C11 UNK     1      19.871  -0.836  31.239  1.00  0.00     0.210 C 
ENDBRANCH   9  14
TORSDOF 1
ENDMDL
MODEL 8
REMARK VINA RESULT:      -6.1      2.449      3.716
REMARK  1 active torsions:
REMARK  status: ('A' for Active; 'I' for Inactive)
REMARK    1  A    between atoms: C6_10  and  O2_3 
ROOT
HETATM    1  I1  UNK     1      20.480  -0.908  29.605  1.00  0.00    -0.039 I 
HETATM    2  O1  UNK     1      19.882  -1.478  32.659  1.00  0.00    -0.273 OA
HETATM    3  O3  UNK     1      20.275  -3.127  34.193  1.00  0.00    -0.260 OA
HETATM    4  C1  UNK     1      18.660   0.524  33.344  1.00  0.00     0.005 A 
HETATM    5  C2  UNK     1      19.324  -0.217  32.365  1.00  0.00     0.109 A 
HETATM    6  C3  UNK     1      18.551  -0.036  34.697  1.00  0.00    -0.043 A 
HETATM    7  C4  UNK     1      18.135   1.769  32.971  1.00  0.00     0.017 A 
HETATM    8  C5  UNK     1      19.473   0.242  31.055  1.00  0.00     0.074 A 
HETATM    9  C6  UNK     1      18.944   1.479  30.705  1.00  0.00     0.087 A 
HETATM   10  C7  UNK     1      18.276   2.242  31.662  1.00  0.00     0.039 A 
HETATM   11  C8  UNK     1      19.091  -1.237  34.949  1.00  0.00     0.090 A 
HETATM   12  C9  UNK     1      17.844   0.736  35.771  1.00  0.00     0.049 C 
HETATM   13  C10 UNK     1      19.794  -2.032  33.926  1.00  0.00     0.288 A 
ENDROOT
BRANCH   9  14
HETATM   14  O2  UNK     1      19.052   1.988  29.445  1.00  0.00    -0.355 OA
HETATM   15  C11 UNK     1      17.864   2.029  28.659  1.00  0.00     0.210 C 
ENDBRANCH   9  14
TORSDOF 1
ENDMDL
MODEL 9
REMARK VINA RESULT:      -6.0      6.051      8.897
REMARK  1 active torsions:
REMARK  status: ('A' for Active; 'I' for Inactive)
REMARK    1  A    between atoms: C6_10  and  O2_3 
ROOT
HETATM    1  I1  UNK     1      20.005   8.993  34.376  1.00  0.00    -0.039 I 
HETATM    2  O1  UNK     1      16.858   9.288  34.527  1.00  0.00    -0.273 OA
HETATM    3  O3  UNK     1      15.320  10.590  35.608  1.00  0.00    -0.260 OA
HETATM    4  C1  UNK     1      16.087   7.551  32.992  1.00  0.00     0.005 A 
HETATM    5  C2  UNK     1      17.124   8.239  33.624  1.00  0.00     0.109 A 
HETATM    6  C3  UNK     1      14.702   7.942  33.286  1.00  0.00    -0.043 A 
HETATM    7  C4  UNK     1      16.435   6.521  32.108  1.00  0.00     0.017 A 
HETATM    8  C5  UNK     1      18.467   7.932  33.400  1.00  0.00     0.074 A 
HETATM    9  C6  UNK     1      18.792   6.907  32.520  1.00  0.00     0.087 A 
HETATM   10  C7  UNK     1      17.777   6.202  31.874  1.00  0.00     0.039 A 
HETATM   11  C8  UNK     1      14.479   8.943  34.149  1.00  0.00     0.090 A 
HETATM   12  C9  UNK     1      13.565   7.221  32.623  1.00  0.00     0.049 C 
HETATM   13  C10 UNK     1      15.562   9.679  34.824  1.00  0.00     0.288 A 
ENDROOT
BRANCH   9  14
HETATM   14  O2  UNK     1      20.082   6.554  32.255  1.00  0.00    -0.355 OA
HETATM   15  C11 UNK     1      20.322   5.829  31.051  1.00  0.00     0.210 C 
ENDBRANCH   9  14
TORSDOF 1
ENDMDL
MODEL 10
REMARK VINA RESULT:      -6.0      7.298      9.401
REMARK  1 active torsions:
REMARK  status: ('A' for Active; 'I' for Inactive)
REMARK    1  A    between atoms: C6_10  and  O2_3 
ROOT
HETATM    1  I1  UNK     1      13.782  11.308  33.856  1.00  0.00    -0.039 I 
HETATM    2  O1  UNK     1      14.733   8.515  32.714  1.00  0.00    -0.273 OA
HETATM    3  O3  UNK     1      13.806   6.677  31.718  1.00  0.00    -0.260 OA
HETATM    4  C1  UNK     1      17.142   8.567  33.120  1.00  0.00     0.005 A 
HETATM    5  C2  UNK     1      15.884   9.168  33.198  1.00  0.00     0.109 A 
HETATM    6  C3  UNK     1      17.247   7.231  32.518  1.00  0.00    -0.043 A 
HETATM    7  C4  UNK     1      18.236   9.283  33.623  1.00  0.00     0.017 A 
HETATM    8  C5  UNK     1      15.697  10.435  33.753  1.00  0.00     0.074 A 
HETATM    9  C6  UNK     1      16.796  11.129  34.247  1.00  0.00     0.087 A 
HETATM   10  C7  UNK     1      18.064  10.553  34.183  1.00  0.00     0.039 A 
HETATM   11  C8  UNK     1      16.135   6.633  32.066  1.00  0.00     0.090 A 
HETATM   12  C9  UNK     1      18.584   6.558  32.420  1.00  0.00     0.049 C 
HETATM   13  C10 UNK     1      14.801   7.254  32.142  1.00  0.00     0.288 A 
ENDROOT
BRANCH   9  14
HETATM   14  O2  UNK     1      16.685  12.369  34.803  1.00  0.00    -0.355 OA
HETATM   15  C11 UNK     1      17.891  13.108  34.983  1.00  0.00     0.210 C 
ENDBRANCH   9  14
TORSDOF 1
ENDMDL
