MODEL 1
REMARK VINA RESULT:     -10.4      0.000      0.000
REMARK  4 active torsions:
REMARK  status: ('A' for Active; 'I' for Inactive)
REMARK    1  A    between atoms: C14_20  and  O3_3 
REMARK    2  A    between atoms: C12_18  and  N1_5 
REMARK       I    between atoms: C15_21  and  N1_5 
REMARK    3  A    between atoms: C10_16  and  C6_12 
REMARK    4  A    between atoms: C13_19  and  C15_21 
ROOT
HETATM    1  N2  UNK     1      19.917   5.918  29.553  1.00  0.00    -0.191 NA
HETATM    2  C10 UNK     1      17.884   4.811  32.165  1.00  0.00     0.045 C 
HETATM    3  C13 UNK     1      18.511   4.355  31.063  1.00  0.00     0.113 C 
HETATM    4  C20 UNK     1      19.286   5.221  30.232  1.00  0.00     0.105 C 
ENDROOT
BRANCH   3   5
HETATM    5  C15 UNK     1      18.348   2.883  30.742  1.00  0.00     0.266 C 
HETATM    6  O4  UNK     1      17.244   2.429  30.455  1.00  0.00    -0.267 OA
HETATM    7  N1  UNK     1      19.536   2.163  30.814  1.00  0.00    -0.320 N 
HETATM    8  H9  UNK     1      20.392   2.654  31.062  1.00  0.00     0.169 HD
BRANCH   7   9
HETATM    9  C12 UNK     1      19.721   0.778  30.574  1.00  0.00     0.068 A 
HETATM   10  C14 UNK     1      19.469  -0.137  31.581  1.00  0.00     0.095 A 
HETATM   11  C17 UNK     1      19.656  -1.497  31.329  1.00  0.00     0.039 A 
HETATM   12  C19 UNK     1      20.092  -1.919  30.073  1.00  0.00     0.003 A 
HETATM   13  C18 UNK     1      20.342  -0.983  29.070  1.00  0.00     0.002 A 
HETATM   14  C16 UNK     1      20.155   0.376  29.322  1.00  0.00     0.032 A 
BRANCH  10  15
HETATM   15  O3  UNK     1      19.041   0.255  32.815  1.00  0.00    -0.354 OA
HETATM   16  C21 UNK     1      18.542  -0.762  33.681  1.00  0.00     0.210 C 
ENDBRANCH  10  15
ENDBRANCH   7   9
ENDBRANCH   3   5
BRANCH   2  17
HETATM   17  C6  UNK     1      17.894   6.161  32.660  1.00  0.00     0.039 A 
HETATM   18  C5  UNK     1      16.664   6.998  32.597  1.00  0.00     0.197 A 
HETATM   19  C1  UNK     1      16.775   8.369  33.131  1.00  0.00     0.049 A 
HETATM   20  O2  UNK     1      15.611   6.583  32.131  1.00  0.00    -0.286 OA
HETATM   21  C2  UNK     1      17.996   8.797  33.651  1.00  0.00     0.089 A 
HETATM   22  C3  UNK     1      15.675   9.230  33.117  1.00  0.00     0.025 A 
HETATM   23  O1  UNK     1      19.108   7.995  33.689  1.00  0.00    -0.321 OA
HETATM   24  C7  UNK     1      18.124  10.090  34.161  1.00  0.00     0.039 A 
HETATM   25  C9  UNK     1      18.990   6.720  33.191  1.00  0.00     0.158 A 
HETATM   26  C8  UNK     1      17.028  10.952  34.149  1.00  0.00     0.009 A 
HETATM   27  C4  UNK     1      15.806  10.522  33.628  1.00  0.00    -0.061 A 
HETATM   28  C11 UNK     1      14.636  11.447  33.619  1.00  0.00     0.048 C 
ENDBRANCH   2  17
TORSDOF 4
ENDMDL
MODEL 2
REMARK VINA RESULT:      -9.9      1.423      9.149
REMARK  4 active torsions:
REMARK  status: ('A' for Active; 'I' for Inactive)
REMARK    1  A    between atoms: C14_20  and  O3_3 
REMARK    2  A    between atoms: C12_18  and  N1_5 
REMARK       I    between atoms: C15_21  and  N1_5 
REMARK    3  A    between atoms: C10_16  and  C6_12 
REMARK    4  A    between atoms: C13_19  and  C15_21 
ROOT
HETATM    1  N2  UNK     1      20.473   5.747  30.393  1.00  0.00    -0.191 NA
HETATM    2  C10 UNK     1      17.930   3.806  31.789  1.00  0.00     0.045 C 
HETATM    3  C13 UNK     1      18.416   5.062  31.809  1.00  0.00     0.113 C 
HETATM    4  C20 UNK     1      19.551   5.436  31.026  1.00  0.00     0.105 C 
ENDROOT
BRANCH   3   5
HETATM    5  C15 UNK     1      17.708   6.057  32.706  1.00  0.00     0.266 C 
HETATM    6  O4  UNK     1      17.311   5.717  33.816  1.00  0.00    -0.267 OA
HETATM    7  N1  UNK     1      17.574   7.320  32.139  1.00  0.00    -0.320 N 
HETATM    8  H9  UNK     1      17.948   7.481  31.207  1.00  0.00     0.169 HD
BRANCH   7   9
HETATM    9  C12 UNK     1      16.964   8.463  32.715  1.00  0.00     0.068 A 
HETATM   10  C14 UNK     1      15.642   8.758  32.430  1.00  0.00     0.095 A 
HETATM   11  C17 UNK     1      15.056   9.886  33.004  1.00  0.00     0.039 A 
HETATM   12  C19 UNK     1      15.802  10.703  33.854  1.00  0.00     0.003 A 
HETATM   13  C18 UNK     1      17.133  10.392  34.130  1.00  0.00     0.002 A 
HETATM   14  C16 UNK     1      17.719   9.264  33.556  1.00  0.00     0.032 A 
BRANCH  10  15
HETATM   15  O3  UNK     1      14.896   7.972  31.603  1.00  0.00    -0.354 OA
HETATM   16  C21 UNK     1      13.925   7.126  32.215  1.00  0.00     0.210 C 
ENDBRANCH  10  15
ENDBRANCH   7   9
ENDBRANCH   3   5
BRANCH   2  17
HETATM   17  C6  UNK     1      18.438   2.701  31.022  1.00  0.00     0.039 A 
HETATM   18  C5  UNK     1      18.911   1.463  31.700  1.00  0.00     0.197 A 
HETATM   19  C1  UNK     1      19.414   0.387  30.826  1.00  0.00     0.049 A 
HETATM   20  O2  UNK     1      18.886   1.331  32.917  1.00  0.00    -0.286 OA
HETATM   21  C2  UNK     1      19.422   0.582  29.445  1.00  0.00     0.089 A 
HETATM   22  C3  UNK     1      19.877  -0.814  31.369  1.00  0.00     0.025 A 
HETATM   23  O1  UNK     1      18.980   1.740  28.858  1.00  0.00    -0.321 OA
HETATM   24  C7  UNK     1      19.894  -0.422  28.599  1.00  0.00     0.039 A 
HETATM   25  C9  UNK     1      18.511   2.734  29.683  1.00  0.00     0.158 A 
HETATM   26  C8  UNK     1      20.357  -1.622  29.139  1.00  0.00     0.009 A 
HETATM   27  C4  UNK     1      20.348  -1.818  30.520  1.00  0.00    -0.061 A 
HETATM   28  C11 UNK     1      20.843  -3.104  31.092  1.00  0.00     0.048 C 
ENDBRANCH   2  17
TORSDOF 4
ENDMDL
MODEL 3
REMARK VINA RESULT:      -9.3     15.482     20.325
REMARK  4 active torsions:
REMARK  status: ('A' for Active; 'I' for Inactive)
REMARK    1  A    between atoms: C14_20  and  O3_3 
REMARK    2  A    between atoms: C12_18  and  N1_5 
REMARK       I    between atoms: C15_21  and  N1_5 
REMARK    3  A    between atoms: C10_16  and  C6_12 
REMARK    4  A    between atoms: C13_19  and  C15_21 
ROOT
HETATM    1  N2  UNK     1      21.527  -3.332  15.976  1.00  0.00    -0.191 NA
HETATM    2  C10 UNK     1      18.317  -2.606  14.814  1.00  0.00     0.045 C 
HETATM    3  C13 UNK     1      19.134  -2.351  15.855  1.00  0.00     0.113 C 
HETATM    4  C20 UNK     1      20.454  -2.894  15.918  1.00  0.00     0.105 C 
ENDROOT
BRANCH   3   5
HETATM    5  C15 UNK     1      18.585  -1.469  16.957  1.00  0.00     0.266 C 
HETATM    6  O4  UNK     1      17.388  -1.486  17.227  1.00  0.00    -0.267 OA
HETATM    7  N1  UNK     1      19.554  -0.687  17.579  1.00  0.00    -0.320 N 
HETATM    8  H9  UNK     1      20.519  -0.763  17.266  1.00  0.00     0.169 HD
BRANCH   7   9
HETATM    9  C12 UNK     1      19.367   0.236  18.638  1.00  0.00     0.068 A 
HETATM   10  C14 UNK     1      18.896   1.510  18.369  1.00  0.00     0.095 A 
HETATM   11  C17 UNK     1      18.718   2.407  19.423  1.00  0.00     0.039 A 
HETATM   12  C19 UNK     1      19.014   2.016  20.728  1.00  0.00     0.003 A 
HETATM   13  C18 UNK     1      19.488   0.730  20.982  1.00  0.00     0.002 A 
HETATM   14  C16 UNK     1      19.666  -0.167  19.929  1.00  0.00     0.032 A 
BRANCH  10  15
HETATM   15  O3  UNK     1      18.601   1.911  17.100  1.00  0.00    -0.354 OA
HETATM   16  C21 UNK     1      19.578   2.701  16.427  1.00  0.00     0.210 C 
ENDBRANCH  10  15
ENDBRANCH   7   9
ENDBRANCH   3   5
BRANCH   2  17
HETATM   17  C6  UNK     1      18.619  -3.413  13.663  1.00  0.00     0.039 A 
HETATM   18  C5  UNK     1      19.062  -2.780  12.391  1.00  0.00     0.197 A 
HETATM   19  C1  UNK     1      19.348  -3.694  11.269  1.00  0.00     0.049 A 
HETATM   20  O2  UNK     1      19.188  -1.569  12.270  1.00  0.00    -0.286 OA
HETATM   21  C2  UNK     1      19.191  -5.067  11.454  1.00  0.00     0.089 A 
HETATM   22  C3  UNK     1      19.772  -3.195  10.035  1.00  0.00     0.025 A 
HETATM   23  O1  UNK     1      18.778  -5.611  12.644  1.00  0.00    -0.321 OA
HETATM   24  C7  UNK     1      19.455  -5.949  10.407  1.00  0.00     0.039 A 
HETATM   25  C9  UNK     1      18.517  -4.750  13.681  1.00  0.00     0.158 A 
HETATM   26  C8  UNK     1      19.879  -5.454   9.173  1.00  0.00     0.009 A 
HETATM   27  C4  UNK     1      20.037  -4.080   8.988  1.00  0.00    -0.061 A 
HETATM   28  C11 UNK     1      20.491  -3.555   7.667  1.00  0.00     0.048 C 
ENDBRANCH   2  17
TORSDOF 4
ENDMDL
MODEL 4
REMARK VINA RESULT:      -9.1      5.028      8.116
REMARK  4 active torsions:
REMARK  status: ('A' for Active; 'I' for Inactive)
REMARK    1  A    between atoms: C14_20  and  O3_3 
REMARK    2  A    between atoms: C12_18  and  N1_5 
REMARK       I    between atoms: C15_21  and  N1_5 
REMARK    3  A    between atoms: C10_16  and  C6_12 
REMARK    4  A    between atoms: C13_19  and  C15_21 
ROOT
HETATM    1  N2  UNK     1      21.193  -2.467  33.555  1.00  0.00    -0.191 NA
HETATM    2  C10 UNK     1      18.873  -1.080  35.763  1.00  0.00     0.045 C 
HETATM    3  C13 UNK     1      19.707  -2.132  35.648  1.00  0.00     0.113 C 
HETATM    4  C20 UNK     1      20.526  -2.313  34.492  1.00  0.00     0.105 C 
ENDROOT
BRANCH   3   5
HETATM    5  C15 UNK     1      19.728  -3.118  36.798  1.00  0.00     0.266 C 
HETATM    6  O4  UNK     1      19.726  -2.717  37.959  1.00  0.00    -0.267 OA
HETATM    7  N1  UNK     1      19.752  -4.448  36.391  1.00  0.00    -0.320 N 
HETATM    8  H9  UNK     1      19.750  -4.655  35.396  1.00  0.00     0.169 HD
BRANCH   7   9
HETATM    9  C12 UNK     1      19.777  -5.602  37.215  1.00  0.00     0.068 A 
HETATM   10  C14 UNK     1      18.744  -6.521  37.147  1.00  0.00     0.095 A 
HETATM   11  C17 UNK     1      18.783  -7.651  37.964  1.00  0.00     0.039 A 
HETATM   12  C19 UNK     1      19.853  -7.844  38.836  1.00  0.00     0.003 A 
HETATM   13  C18 UNK     1      20.885  -6.908  38.893  1.00  0.00     0.002 A 
HETATM   14  C16 UNK     1      20.847  -5.778  38.076  1.00  0.00     0.032 A 
BRANCH  10  15
HETATM   15  O3  UNK     1      17.689  -6.351  36.300  1.00  0.00    -0.354 OA
HETATM   16  C21 UNK     1      17.428  -7.401  35.372  1.00  0.00     0.210 C 
ENDBRANCH  10  15
ENDBRANCH   7   9
ENDBRANCH   3   5
BRANCH   2  17
HETATM   17  C6  UNK     1      18.683  -0.027  34.802  1.00  0.00     0.039 A 
HETATM   18  C5  UNK     1      18.694   1.399  35.231  1.00  0.00     0.197 A 
HETATM   19  C1  UNK     1      18.491   2.404  34.171  1.00  0.00     0.049 A 
HETATM   20  O2  UNK     1      18.864   1.732  36.397  1.00  0.00    -0.286 OA
HETATM   21  C2  UNK     1      18.302   1.977  32.858  1.00  0.00     0.089 A 
HETATM   22  C3  UNK     1      18.488   3.768  34.475  1.00  0.00     0.025 A 
HETATM   23  O1  UNK     1      18.296   0.652  32.503  1.00  0.00    -0.321 OA
HETATM   24  C7  UNK     1      18.108   2.910  31.839  1.00  0.00     0.039 A 
HETATM   25  C9  UNK     1      18.489  -0.274  33.499  1.00  0.00     0.158 A 
HETATM   26  C8  UNK     1      18.104   4.273  32.139  1.00  0.00     0.009 A 
HETATM   27  C4  UNK     1      18.294   4.700  33.454  1.00  0.00    -0.061 A 
HETATM   28  C11 UNK     1      18.290   6.158  33.769  1.00  0.00     0.048 C 
ENDBRANCH   2  17
TORSDOF 4
ENDMDL
MODEL 5
REMARK VINA RESULT:      -9.0      1.338      9.192
REMARK  4 active torsions:
REMARK  status: ('A' for Active; 'I' for Inactive)
REMARK    1  A    between atoms: C14_20  and  O3_3 
REMARK    2  A    between atoms: C12_18  and  N1_5 
REMARK       I    between atoms: C15_21  and  N1_5 
REMARK    3  A    between atoms: C10_16  and  C6_12 
REMARK    4  A    between atoms: C13_19  and  C15_21 
ROOT
HETATM    1  N2  UNK     1      20.143   5.753  29.908  1.00  0.00    -0.191 NA
HETATM    2  C10 UNK     1      17.931   3.714  31.679  1.00  0.00     0.045 C 
HETATM    3  C13 UNK     1      18.289   5.007  31.554  1.00  0.00     0.113 C 
HETATM    4  C20 UNK     1      19.312   5.415  30.644  1.00  0.00     0.105 C 
ENDROOT
BRANCH   3   5
HETATM    5  C15 UNK     1      17.561   6.006  32.429  1.00  0.00     0.266 C 
HETATM    6  O4  UNK     1      16.656   5.637  33.172  1.00  0.00    -0.267 OA
HETATM    7  N1  UNK     1      18.022   7.311  32.287  1.00  0.00    -0.320 N 
HETATM    8  H9  UNK     1      18.783   7.493  31.637  1.00  0.00     0.169 HD
BRANCH   7   9
HETATM    9  C12 UNK     1      17.554   8.469  32.958  1.00  0.00     0.068 A 
HETATM   10  C14 UNK     1      18.377   9.125  33.858  1.00  0.00     0.095 A 
HETATM   11  C17 UNK     1      17.902  10.263  34.510  1.00  0.00     0.039 A 
HETATM   12  C19 UNK     1      16.612  10.727  34.252  1.00  0.00     0.003 A 
HETATM   13  C18 UNK     1      15.797  10.054  33.344  1.00  0.00     0.002 A 
HETATM   14  C16 UNK     1      16.271   8.916  32.691  1.00  0.00     0.032 A 
BRANCH  10  15
HETATM   15  O3  UNK     1      19.640   8.688  34.122  1.00  0.00    -0.354 OA
HETATM   16  C21 UNK     1      20.583   9.662  34.565  1.00  0.00     0.210 C 
ENDBRANCH  10  15
ENDBRANCH   7   9
ENDBRANCH   3   5
BRANCH   2  17
HETATM   17  C6  UNK     1      18.483   2.598  30.958  1.00  0.00     0.039 A 
HETATM   18  C5  UNK     1      18.916   1.371  31.682  1.00  0.00     0.197 A 
HETATM   19  C1  UNK     1      19.468   0.282  30.854  1.00  0.00     0.049 A 
HETATM   20  O2  UNK     1      18.821   1.257  32.897  1.00  0.00    -0.286 OA
HETATM   21  C2  UNK     1      19.556   0.457  29.473  1.00  0.00     0.089 A 
HETATM   22  C3  UNK     1      19.899  -0.910  31.441  1.00  0.00     0.025 A 
HETATM   23  O1  UNK     1      19.149   1.605  28.845  1.00  0.00    -0.321 OA
HETATM   24  C7  UNK     1      20.076  -0.560  28.671  1.00  0.00     0.039 A 
HETATM   25  C9  UNK     1      18.634   2.611  29.626  1.00  0.00     0.158 A 
HETATM   26  C8  UNK     1      20.507  -1.751  29.254  1.00  0.00     0.009 A 
HETATM   27  C4  UNK     1      20.418  -1.926  30.636  1.00  0.00    -0.061 A 
HETATM   28  C11 UNK     1      20.879  -3.203  31.255  1.00  0.00     0.048 C 
ENDBRANCH   2  17
TORSDOF 4
ENDMDL
MODEL 6
REMARK VINA RESULT:      -8.9      5.404      8.639
REMARK  4 active torsions:
REMARK  status: ('A' for Active; 'I' for Inactive)
REMARK    1  A    between atoms: C14_20  and  O3_3 
REMARK    2  A    between atoms: C12_18  and  N1_5 
REMARK       I    between atoms: C15_21  and  N1_5 
REMARK    3  A    between atoms: C10_16  and  C6_12 
REMARK    4  A    between atoms: C13_19  and  C15_21 
ROOT
HETATM    1  N2  UNK     1      21.839  -1.796  35.534  1.00  0.00    -0.191 NA
HETATM    2  C10 UNK     1      18.384  -1.831  36.032  1.00  0.00     0.045 C 
HETATM    3  C13 UNK     1      19.465  -2.627  36.149  1.00  0.00     0.113 C 
HETATM    4  C20 UNK     1      20.774  -2.164  35.809  1.00  0.00     0.105 C 
ENDROOT
BRANCH   3   5
HETATM    5  C15 UNK     1      19.227  -4.037  36.649  1.00  0.00     0.266 C 
HETATM    6  O4  UNK     1      18.092  -4.505  36.668  1.00  0.00    -0.267 OA
HETATM    7  N1  UNK     1      20.387  -4.685  37.059  1.00  0.00    -0.320 N 
HETATM    8  H9  UNK     1      21.274  -4.191  36.993  1.00  0.00     0.169 HD
BRANCH   7   9
HETATM    9  C12 UNK     1      20.504  -6.001  37.575  1.00  0.00     0.068 A 
HETATM   10  C14 UNK     1      20.848  -7.045  36.733  1.00  0.00     0.095 A 
HETATM   11  C17 UNK     1      20.959  -8.333  37.255  1.00  0.00     0.039 A 
HETATM   12  C19 UNK     1      20.723  -8.558  38.611  1.00  0.00     0.003 A 
HETATM   13  C18 UNK     1      20.376  -7.496  39.445  1.00  0.00     0.002 A 
HETATM   14  C16 UNK     1      20.266  -6.207  38.923  1.00  0.00     0.032 A 
BRANCH  10  15
HETATM   15  O3  UNK     1      21.083  -6.845  35.405  1.00  0.00    -0.354 OA
HETATM   16  C21 UNK     1      20.025  -7.165  34.505  1.00  0.00     0.210 C 
ENDBRANCH  10  15
ENDBRANCH   7   9
ENDBRANCH   3   5
BRANCH   2  17
HETATM   17  C6  UNK     1      18.369  -0.466  35.577  1.00  0.00     0.039 A 
HETATM   18  C5  UNK     1      18.318  -0.155  34.123  1.00  0.00     0.197 A 
HETATM   19  C1  UNK     1      18.305   1.274  33.758  1.00  0.00     0.049 A 
HETATM   20  O2  UNK     1      18.286  -1.028  33.265  1.00  0.00    -0.286 OA
HETATM   21  C2  UNK     1      18.342   2.233  34.770  1.00  0.00     0.089 A 
HETATM   22  C3  UNK     1      18.257   1.667  32.418  1.00  0.00     0.025 A 
HETATM   23  O1  UNK     1      18.391   1.905  36.100  1.00  0.00    -0.321 OA
HETATM   24  C7  UNK     1      18.331   3.591  34.447  1.00  0.00     0.039 A 
HETATM   25  C9  UNK     1      18.400   0.570  36.427  1.00  0.00     0.158 A 
HETATM   26  C8  UNK     1      18.283   3.986  33.111  1.00  0.00     0.009 A 
HETATM   27  C4  UNK     1      18.245   3.026  32.099  1.00  0.00    -0.061 A 
HETATM   28  C11 UNK     1      18.192   3.453  30.670  1.00  0.00     0.048 C 
ENDBRANCH   2  17
TORSDOF 4
ENDMDL
MODEL 7
REMARK VINA RESULT:      -8.7     22.838     24.334
REMARK  4 active torsions:
REMARK  status: ('A' for Active; 'I' for Inactive)
REMARK    1  A    between atoms: C14_20  and  O3_3 
REMARK    2  A    between atoms: C12_18  and  N1_5 
REMARK       I    between atoms: C15_21  and  N1_5 
REMARK    3  A    between atoms: C10_16  and  C6_12 
REMARK    4  A    between atoms: C13_19  and  C15_21 
ROOT
HETATM    1  N2  UNK     1      11.868   6.415   5.951  1.00  0.00    -0.191 NA
HETATM    2  C10 UNK     1      11.531   5.858   9.380  1.00  0.00     0.045 C 
HETATM    3  C13 UNK     1      10.804   5.859   8.245  1.00  0.00     0.113 C 
HETATM    4  C20 UNK     1      11.395   6.166   6.981  1.00  0.00     0.105 C 
ENDROOT
BRANCH   3   5
HETATM    5  C15 UNK     1       9.332   5.527   8.374  1.00  0.00     0.266 C 
HETATM    6  O4  UNK     1       8.610   5.512   7.382  1.00  0.00    -0.267 OA
HETATM    7  N1  UNK     1       8.934   5.260   9.680  1.00  0.00    -0.320 N 
HETATM    8  H9  UNK     1       9.629   5.302  10.422  1.00  0.00     0.169 HD
BRANCH   7   9
HETATM    9  C12 UNK     1       7.634   4.920  10.133  1.00  0.00     0.068 A 
HETATM   10  C14 UNK     1       6.867   5.861  10.800  1.00  0.00     0.095 A 
HETATM   11  C17 UNK     1       5.590   5.510  11.239  1.00  0.00     0.039 A 
HETATM   12  C19 UNK     1       5.101   4.225  11.006  1.00  0.00     0.003 A 
HETATM   13  C18 UNK     1       5.887   3.291  10.333  1.00  0.00     0.002 A 
HETATM   14  C16 UNK     1       7.164   3.640   9.894  1.00  0.00     0.032 A 
BRANCH  10  15
HETATM   15  O3  UNK     1       7.327   7.122  11.037  1.00  0.00    -0.354 OA
HETATM   16  C21 UNK     1       6.442   8.200  10.742  1.00  0.00     0.210 C 
ENDBRANCH  10  15
ENDBRANCH   7   9
ENDBRANCH   3   5
BRANCH   2  17
HETATM   17  C6  UNK     1      12.935   6.145   9.501  1.00  0.00     0.039 A 
HETATM   18  C5  UNK     1      13.413   7.552   9.597  1.00  0.00     0.197 A 
HETATM   19  C1  UNK     1      14.871   7.742   9.718  1.00  0.00     0.049 A 
HETATM   20  O2  UNK     1      12.649   8.508   9.581  1.00  0.00    -0.286 OA
HETATM   21  C2  UNK     1      15.703   6.622   9.732  1.00  0.00     0.089 A 
HETATM   22  C3  UNK     1      15.416   9.024   9.817  1.00  0.00     0.025 A 
HETATM   23  O1  UNK     1      15.222   5.341   9.639  1.00  0.00    -0.321 OA
HETATM   24  C7  UNK     1      17.084   6.779   9.845  1.00  0.00     0.039 A 
HETATM   25  C9  UNK     1      13.862   5.178   9.529  1.00  0.00     0.158 A 
HETATM   26  C8  UNK     1      17.632   8.058   9.944  1.00  0.00     0.009 A 
HETATM   27  C4  UNK     1      16.799   9.178   9.930  1.00  0.00    -0.061 A 
HETATM   28  C11 UNK     1      17.389  10.544  10.037  1.00  0.00     0.048 C 
ENDBRANCH   2  17
TORSDOF 4
ENDMDL
MODEL 8
REMARK VINA RESULT:      -8.7     15.176     18.537
REMARK  4 active torsions:
REMARK  status: ('A' for Active; 'I' for Inactive)
REMARK    1  A    between atoms: C14_20  and  O3_3 
REMARK    2  A    between atoms: C12_18  and  N1_5 
REMARK       I    between atoms: C15_21  and  N1_5 
REMARK    3  A    between atoms: C10_16  and  C6_12 
REMARK    4  A    between atoms: C13_19  and  C15_21 
ROOT
HETATM    1  N2  UNK     1      22.400  -3.170  15.531  1.00  0.00    -0.191 NA
HETATM    2  C10 UNK     1      19.029  -2.815  14.697  1.00  0.00     0.045 C 
HETATM    3  C13 UNK     1      20.036  -3.707  14.622  1.00  0.00     0.113 C 
HETATM    4  C20 UNK     1      21.339  -3.407  15.125  1.00  0.00     0.105 C 
ENDROOT
BRANCH   3   5
HETATM    5  C15 UNK     1      19.724  -5.040  13.973  1.00  0.00     0.266 C 
HETATM    6  O4  UNK     1      20.629  -5.745  13.537  1.00  0.00    -0.267 OA
HETATM    7  N1  UNK     1      18.365  -5.336  13.937  1.00  0.00    -0.320 N 
HETATM    8  H9  UNK     1      17.708  -4.669  14.334  1.00  0.00     0.169 HD
BRANCH   7   9
HETATM    9  C12 UNK     1      17.749  -6.495  13.401  1.00  0.00     0.068 A 
HETATM   10  C14 UNK     1      17.139  -7.407  14.246  1.00  0.00     0.095 A 
HETATM   11  C17 UNK     1      16.537  -8.542  13.703  1.00  0.00     0.039 A 
HETATM   12  C19 UNK     1      16.555  -8.748  12.323  1.00  0.00     0.003 A 
HETATM   13  C18 UNK     1      17.173  -7.820  11.487  1.00  0.00     0.002 A 
HETATM   14  C16 UNK     1      17.775  -6.684  12.029  1.00  0.00     0.032 A 
BRANCH  10  15
HETATM   15  O3  UNK     1      17.111  -7.223  15.596  1.00  0.00    -0.354 OA
HETATM   16  C21 UNK     1      15.863  -6.846  16.173  1.00  0.00     0.210 C 
ENDBRANCH  10  15
ENDBRANCH   7   9
ENDBRANCH   3   5
BRANCH   2  17
HETATM   17  C6  UNK     1      19.093  -1.495  15.264  1.00  0.00     0.039 A 
HETATM   18  C5  UNK     1      18.820  -1.280  16.711  1.00  0.00     0.197 A 
HETATM   19  C1  UNK     1      18.912   0.111  17.197  1.00  0.00     0.049 A 
HETATM   20  O2  UNK     1      18.537  -2.198  17.470  1.00  0.00    -0.286 OA
HETATM   21  C2  UNK     1      19.238   1.124  16.296  1.00  0.00     0.089 A 
HETATM   22  C3  UNK     1      18.675   0.413  18.540  1.00  0.00     0.025 A 
HETATM   23  O1  UNK     1      19.480   0.884  14.968  1.00  0.00    -0.321 OA
HETATM   24  C7  UNK     1      19.330   2.445  16.733  1.00  0.00     0.039 A 
HETATM   25  C9  UNK     1      19.395  -0.415  14.529  1.00  0.00     0.158 A 
HETATM   26  C8  UNK     1      19.094   2.750  18.074  1.00  0.00     0.009 A 
HETATM   27  C4  UNK     1      18.768   1.736  18.975  1.00  0.00    -0.061 A 
HETATM   28  C11 UNK     1      18.518   2.067  20.408  1.00  0.00     0.048 C 
ENDBRANCH   2  17
TORSDOF 4
ENDMDL
MODEL 9
REMARK VINA RESULT:      -8.6      6.140     12.380
REMARK  4 active torsions:
REMARK  status: ('A' for Active; 'I' for Inactive)
REMARK    1  A    between atoms: C14_20  and  O3_3 
REMARK    2  A    between atoms: C12_18  and  N1_5 
REMARK       I    between atoms: C15_21  and  N1_5 
REMARK    3  A    between atoms: C10_16  and  C6_12 
REMARK    4  A    between atoms: C13_19  and  C15_21 
ROOT
HETATM    1  N2  UNK     1      18.744  -2.061  38.399  1.00  0.00    -0.191 NA
HETATM    2  C10 UNK     1      19.843  -3.862  35.618  1.00  0.00     0.045 C 
HETATM    3  C13 UNK     1      19.568  -2.600  36.004  1.00  0.00     0.113 C 
HETATM    4  C20 UNK     1      19.114  -2.307  37.327  1.00  0.00     0.105 C 
ENDROOT
BRANCH   3   5
HETATM    5  C15 UNK     1      19.754  -1.511  34.969  1.00  0.00     0.266 C 
HETATM    6  O4  UNK     1      20.053  -0.371  35.313  1.00  0.00    -0.267 OA
HETATM    7  N1  UNK     1      19.553  -1.945  33.662  1.00  0.00    -0.320 N 
HETATM    8  H9  UNK     1      19.310  -2.919  33.502  1.00  0.00     0.169 HD
BRANCH   7   9
HETATM    9  C12 UNK     1      19.651  -1.177  32.474  1.00  0.00     0.068 A 
HETATM   10  C14 UNK     1      18.877  -0.039  32.321  1.00  0.00     0.095 A 
HETATM   11  C17 UNK     1      18.985   0.705  31.146  1.00  0.00     0.039 A 
HETATM   12  C19 UNK     1      19.864   0.299  30.142  1.00  0.00     0.003 A 
HETATM   13  C18 UNK     1      20.636  -0.849  30.312  1.00  0.00     0.002 A 
HETATM   14  C16 UNK     1      20.528  -1.594  31.487  1.00  0.00     0.032 A 
BRANCH  10  15
HETATM   15  O3  UNK     1      18.013   0.374  33.291  1.00  0.00    -0.354 OA
HETATM   16  C21 UNK     1      18.048   1.755  33.644  1.00  0.00     0.210 C 
ENDBRANCH  10  15
ENDBRANCH   7   9
ENDBRANCH   3   5
BRANCH   2  17
HETATM   17  C6  UNK     1      19.736  -5.048  36.423  1.00  0.00     0.039 A 
HETATM   18  C5  UNK     1      20.861  -5.468  37.303  1.00  0.00     0.197 A 
HETATM   19  C1  UNK     1      20.654  -6.699  38.091  1.00  0.00     0.049 A 
HETATM   20  O2  UNK     1      21.905  -4.834  37.381  1.00  0.00    -0.286 OA
HETATM   21  C2  UNK     1      19.447  -7.387  37.969  1.00  0.00     0.089 A 
HETATM   22  C3  UNK     1      21.650  -7.172  38.947  1.00  0.00     0.025 A 
HETATM   23  O1  UNK     1      18.435  -6.968  37.144  1.00  0.00    -0.321 OA
HETATM   24  C7  UNK     1      19.230  -8.553  38.704  1.00  0.00     0.039 A 
HETATM   25  C9  UNK     1      18.639  -5.819  36.419  1.00  0.00     0.158 A 
HETATM   26  C8  UNK     1      20.223  -9.028  39.560  1.00  0.00     0.009 A 
HETATM   27  C4  UNK     1      21.430  -8.339  39.681  1.00  0.00    -0.061 A 
HETATM   28  C11 UNK     1      22.489  -8.850  40.599  1.00  0.00     0.048 C 
ENDBRANCH   2  17
TORSDOF 4
ENDMDL
MODEL 10
REMARK VINA RESULT:      -8.6      7.216     10.744
REMARK  4 active torsions:
REMARK  status: ('A' for Active; 'I' for Inactive)
REMARK    1  A    between atoms: C14_20  and  O3_3 
REMARK    2  A    between atoms: C12_18  and  N1_5 
REMARK       I    between atoms: C15_21  and  N1_5 
REMARK    3  A    between atoms: C10_16  and  C6_12 
REMARK    4  A    between atoms: C13_19  and  C15_21 
ROOT
HETATM    1  N2  UNK     1      17.193  -5.600  36.730  1.00  0.00    -0.191 NA
HETATM    2  C10 UNK     1      20.298  -4.014  36.880  1.00  0.00     0.045 C 
HETATM    3  C13 UNK     1      19.756  -5.246  36.812  1.00  0.00     0.113 C 
HETATM    4  C20 UNK     1      18.341  -5.437  36.766  1.00  0.00     0.105 C 
ENDROOT
BRANCH   3   5
HETATM    5  C15 UNK     1      20.717  -6.417  36.793  1.00  0.00     0.266 C 
HETATM    6  O4  UNK     1      21.870  -6.280  37.191  1.00  0.00    -0.267 OA
HETATM    7  N1  UNK     1      20.156  -7.589  36.296  1.00  0.00    -0.320 N 
HETATM    8  H9  UNK     1      19.184  -7.578  35.997  1.00  0.00     0.169 HD
BRANCH   7   9
HETATM    9  C12 UNK     1      20.785  -8.851  36.148  1.00  0.00     0.068 A 
HETATM   10  C14 UNK     1      20.784  -9.751  37.201  1.00  0.00     0.095 A 
HETATM   11  C17 UNK     1      21.407 -10.988  37.039  1.00  0.00     0.039 A 
HETATM   12  C19 UNK     1      22.021 -11.307  35.828  1.00  0.00     0.003 A 
HETATM   13  C18 UNK     1      22.014 -10.389  34.779  1.00  0.00     0.002 A 
HETATM   14  C16 UNK     1      21.391  -9.151  34.940  1.00  0.00     0.032 A 
BRANCH  10  15
HETATM   15  O3  UNK     1      20.188  -9.459  38.391  1.00  0.00    -0.354 OA
HETATM   16  C21 UNK     1      21.040  -9.045  39.457  1.00  0.00     0.210 C 
ENDBRANCH  10  15
ENDBRANCH   7   9
ENDBRANCH   3   5
BRANCH   2  17
HETATM   17  C6  UNK     1      19.587  -2.764  36.913  1.00  0.00     0.039 A 
HETATM   18  C5  UNK     1      19.614  -1.848  35.739  1.00  0.00     0.197 A 
HETATM   19  C1  UNK     1      18.853  -0.591  35.871  1.00  0.00     0.049 A 
HETATM   20  O2  UNK     1      20.228  -2.113  34.714  1.00  0.00    -0.286 OA
HETATM   21  C2  UNK     1      18.169  -0.333  37.058  1.00  0.00     0.089 A 
HETATM   22  C3  UNK     1      18.816   0.331  34.823  1.00  0.00     0.025 A 
HETATM   23  O1  UNK     1      18.171  -1.203  38.119  1.00  0.00    -0.321 OA
HETATM   24  C7  UNK     1      17.444   0.849  37.205  1.00  0.00     0.039 A 
HETATM   25  C9  UNK     1      18.881  -2.371  37.982  1.00  0.00     0.158 A 
HETATM   26  C8  UNK     1      17.404   1.772  36.160  1.00  0.00     0.009 A 
HETATM   27  C4  UNK     1      18.089   1.514  34.972  1.00  0.00    -0.061 A 
HETATM   28  C11 UNK     1      18.043   2.504  33.857  1.00  0.00     0.048 C 
ENDBRANCH   2  17
TORSDOF 4
ENDMDL
