MODEL 1
REMARK VINA RESULT:      -9.0      0.000      0.000
REMARK  2 active torsions:
REMARK  status: ('A' for Active; 'I' for Inactive)
REMARK    1  A    between atoms: C5_11  and  N1_5 
REMARK       I    between atoms: C6_12  and  N2_6 
REMARK    2  A    between atoms: C6_12  and  C7_13 
ROOT
HETATM    1  O1  UNK     1      18.736  -2.327  37.676  1.00  0.00    -0.267 OA
HETATM    2  N1  UNK     1      19.782  -1.555  32.792  1.00  0.00    -0.375 N 
HETATM    3  N2  UNK     1      19.615  -2.489  35.526  1.00  0.00    -0.345 N 
HETATM    4  C1  UNK     1      18.687  -1.141  33.674  1.00  0.00     0.143 C 
HETATM    5  C2  UNK     1      20.869  -2.349  33.367  1.00  0.00     0.143 C 
HETATM    6  C3  UNK     1      19.130  -1.168  35.135  1.00  0.00     0.146 C 
HETATM    7  C4  UNK     1      20.356  -3.235  34.503  1.00  0.00     0.146 C 
HETATM    8  C6  UNK     1      19.356  -2.953  36.815  1.00  0.00     0.260 C 
ENDROOT
BRANCH   8   9
HETATM    9  C7  UNK     1      19.857  -4.300  37.161  1.00  0.00     0.108 A 
HETATM   10  C10 UNK     1      21.053  -4.349  37.762  1.00  0.00     0.037 A 
HETATM   11  C12 UNK     1      21.629  -5.629  38.141  1.00  0.00    -0.001 A 
HETATM   12  C15 UNK     1      20.919  -6.794  37.871  1.00  0.00     0.089 A 
HETATM   13  C17 UNK     1      22.873  -5.729  38.770  1.00  0.00     0.014 A 
HETATM   14  C18 UNK     1      21.415  -8.052  38.209  1.00  0.00     0.038 A 
HETATM   15  O2  UNK     1      19.661  -6.736  37.239  1.00  0.00    -0.274 OA
HETATM   16  C20 UNK     1      22.657  -8.142  38.834  1.00  0.00     0.003 A 
HETATM   17  C19 UNK     1      23.385  -6.983  39.115  1.00  0.00     0.001 A 
HETATM   18  C11 UNK     1      19.084  -5.526  36.864  1.00  0.00     0.304 A 
HETATM   19  O3  UNK     1      17.989  -5.484  36.314  1.00  0.00    -0.259 OA
ENDBRANCH   8   9
BRANCH   2  20
HETATM   20  C5  UNK     1      19.810  -1.146  31.461  1.00  0.00     0.069 A 
HETATM   21  C8  UNK     1      19.443   0.166  31.081  1.00  0.00     0.142 A 
HETATM   22  C13 UNK     1      19.473   0.572  29.747  1.00  0.00     0.044 A 
HETATM   23  F1  UNK     1      19.059   1.035  32.027  1.00  0.00    -0.204 F 
HETATM   24  C16 UNK     1      19.871  -0.324  28.754  1.00  0.00     0.003 A 
HETATM   25  C14 UNK     1      20.238  -1.625  29.096  1.00  0.00     0.002 A 
HETATM   26  C9  UNK     1      20.208  -2.031  30.430  1.00  0.00     0.032 A 
ENDBRANCH   2  20
TORSDOF 2
ENDMDL
MODEL 2
REMARK VINA RESULT:      -9.0     28.366     29.773
REMARK  2 active torsions:
REMARK  status: ('A' for Active; 'I' for Inactive)
REMARK    1  A    between atoms: C5_11  and  N1_5 
REMARK       I    between atoms: C6_12  and  N2_6 
REMARK    2  A    between atoms: C6_12  and  C7_13 
ROOT
HETATM    1  O1  UNK     1       9.577   5.703   6.816  1.00  0.00    -0.267 OA
HETATM    2  N1  UNK     1      13.501   8.341   8.601  1.00  0.00    -0.375 N 
HETATM    3  N2  UNK     1      10.957   7.043   8.126  1.00  0.00    -0.345 N 
HETATM    4  C1  UNK     1      13.362   7.277   7.602  1.00  0.00     0.143 C 
HETATM    5  C2  UNK     1      12.289   8.829   9.262  1.00  0.00     0.143 C 
HETATM    6  C3  UNK     1      11.936   7.229   7.058  1.00  0.00     0.146 C 
HETATM    7  C4  UNK     1      11.254   7.712   9.398  1.00  0.00     0.146 C 
HETATM    8  C6  UNK     1       9.828   6.263   7.884  1.00  0.00     0.260 C 
ENDROOT
BRANCH   8   9
HETATM    9  C7  UNK     1       8.872   6.095   8.998  1.00  0.00     0.108 A 
HETATM   10  C10 UNK     1       7.927   7.036   9.113  1.00  0.00     0.037 A 
HETATM   11  C12 UNK     1       6.940   6.956  10.179  1.00  0.00    -0.001 A 
HETATM   12  C15 UNK     1       6.995   5.890  11.070  1.00  0.00     0.089 A 
HETATM   13  C17 UNK     1       5.936   7.915  10.337  1.00  0.00     0.014 A 
HETATM   14  C18 UNK     1       6.081   5.755  12.112  1.00  0.00     0.038 A 
HETATM   15  O2  UNK     1       7.992   4.902  10.942  1.00  0.00    -0.274 OA
HETATM   16  C20 UNK     1       5.084   6.717  12.264  1.00  0.00     0.003 A 
HETATM   17  C19 UNK     1       5.011   7.795  11.378  1.00  0.00     0.001 A 
HETATM   18  C11 UNK     1       8.950   4.951   9.934  1.00  0.00     0.304 A 
HETATM   19  O3  UNK     1       9.814   4.088   9.831  1.00  0.00    -0.259 OA
ENDBRANCH   8   9
BRANCH   2  20
HETATM   20  C5  UNK     1      14.746   8.909   8.860  1.00  0.00     0.069 A 
HETATM   21  C8  UNK     1      15.690   8.272   9.699  1.00  0.00     0.142 A 
HETATM   22  C13 UNK     1      16.936   8.843   9.956  1.00  0.00     0.044 A 
HETATM   23  F1  UNK     1      15.376   7.094  10.258  1.00  0.00    -0.204 F 
HETATM   24  C16 UNK     1      17.273  10.069   9.382  1.00  0.00     0.003 A 
HETATM   25  C14 UNK     1      16.365  10.722   8.550  1.00  0.00     0.002 A 
HETATM   26  C9  UNK     1      15.118  10.151   8.292  1.00  0.00     0.032 A 
ENDBRANCH   2  20
TORSDOF 2
ENDMDL
MODEL 3
REMARK VINA RESULT:      -8.9      1.607      2.522
REMARK  2 active torsions:
REMARK  status: ('A' for Active; 'I' for Inactive)
REMARK    1  A    between atoms: C5_11  and  N1_5 
REMARK       I    between atoms: C6_12  and  N2_6 
REMARK    2  A    between atoms: C6_12  and  C7_13 
ROOT
HETATM    1  O1  UNK     1      19.023  -2.650  37.628  1.00  0.00    -0.267 OA
HETATM    2  N1  UNK     1      19.844  -1.590  32.756  1.00  0.00    -0.375 N 
HETATM    3  N2  UNK     1      19.771  -2.708  35.425  1.00  0.00    -0.345 N 
HETATM    4  C1  UNK     1      18.828  -1.177  33.727  1.00  0.00     0.143 C 
HETATM    5  C2  UNK     1      20.910  -2.486  33.210  1.00  0.00     0.143 C 
HETATM    6  C3  UNK     1      19.348  -1.336  35.155  1.00  0.00     0.146 C 
HETATM    7  C4  UNK     1      20.405  -3.420  34.310  1.00  0.00     0.146 C 
HETATM    8  C6  UNK     1      19.554  -3.248  36.691  1.00  0.00     0.260 C 
ENDROOT
BRANCH   8   9
HETATM    9  C7  UNK     1      19.988  -4.643  36.914  1.00  0.00     0.108 A 
HETATM   10  C10 UNK     1      19.066  -5.590  36.699  1.00  0.00     0.037 A 
HETATM   11  C12 UNK     1      19.399  -6.993  36.893  1.00  0.00    -0.001 A 
HETATM   12  C15 UNK     1      20.685  -7.330  37.302  1.00  0.00     0.089 A 
HETATM   13  C17 UNK     1      18.470  -8.014  36.681  1.00  0.00     0.014 A 
HETATM   14  C18 UNK     1      21.068  -8.654  37.505  1.00  0.00     0.038 A 
HETATM   15  O2  UNK     1      21.650  -6.328  37.526  1.00  0.00    -0.274 OA
HETATM   16  C20 UNK     1      20.134  -9.667  37.292  1.00  0.00     0.003 A 
HETATM   17  C19 UNK     1      18.838  -9.348  36.880  1.00  0.00     0.001 A 
HETATM   18  C11 UNK     1      21.362  -4.978  37.349  1.00  0.00     0.304 A 
HETATM   19  O3  UNK     1      22.208  -4.113  37.547  1.00  0.00    -0.259 OA
ENDBRANCH   8   9
BRANCH   2  20
HETATM   20  C5  UNK     1      19.825  -1.089  31.456  1.00  0.00     0.069 A 
HETATM   21  C8  UNK     1      20.269  -1.862  30.358  1.00  0.00     0.142 A 
HETATM   22  C13 UNK     1      20.248  -1.357  29.058  1.00  0.00     0.044 A 
HETATM   23  F1  UNK     1      20.720  -3.105  30.576  1.00  0.00    -0.204 F 
HETATM   24  C16 UNK     1      19.781  -0.064  28.820  1.00  0.00     0.003 A 
HETATM   25  C14 UNK     1      19.336   0.723  29.881  1.00  0.00     0.002 A 
HETATM   26  C9  UNK     1      19.358   0.218  31.182  1.00  0.00     0.032 A 
ENDBRANCH   2  20
TORSDOF 2
ENDMDL
MODEL 4
REMARK VINA RESULT:      -8.7      6.269      8.576
REMARK  2 active torsions:
REMARK  status: ('A' for Active; 'I' for Inactive)
REMARK    1  A    between atoms: C5_11  and  N1_5 
REMARK       I    between atoms: C6_12  and  N2_6 
REMARK    2  A    between atoms: C6_12  and  C7_13 
ROOT
HETATM    1  O1  UNK     1      18.210   2.092  30.861  1.00  0.00    -0.267 OA
HETATM    2  N1  UNK     1      18.626   6.547  33.210  1.00  0.00    -0.375 N 
HETATM    3  N2  UNK     1      18.278   3.770  32.473  1.00  0.00    -0.345 N 
HETATM    4  C1  UNK     1      19.042   6.049  31.896  1.00  0.00     0.143 C 
HETATM    5  C2  UNK     1      17.903   5.634  34.097  1.00  0.00     0.143 C 
HETATM    6  C3  UNK     1      18.202   4.842  31.484  1.00  0.00     0.146 C 
HETATM    7  C4  UNK     1      18.353   4.189  33.877  1.00  0.00     0.146 C 
HETATM    8  C6  UNK     1      18.275   2.445  32.040  1.00  0.00     0.260 C 
ENDROOT
BRANCH   8   9
HETATM    9  C7  UNK     1      18.365   1.395  33.076  1.00  0.00     0.108 A 
HETATM   10  C10 UNK     1      17.786   1.673  34.251  1.00  0.00     0.037 A 
HETATM   11  C12 UNK     1      17.823   0.701  35.332  1.00  0.00    -0.001 A 
HETATM   12  C15 UNK     1      18.465  -0.515  35.124  1.00  0.00     0.089 A 
HETATM   13  C17 UNK     1      17.233   0.947  36.575  1.00  0.00     0.014 A 
HETATM   14  C18 UNK     1      18.535  -1.488  36.119  1.00  0.00     0.038 A 
HETATM   15  O2  UNK     1      19.071  -0.801  33.885  1.00  0.00    -0.274 OA
HETATM   16  C20 UNK     1      17.945  -1.234  37.355  1.00  0.00     0.003 A 
HETATM   17  C19 UNK     1      17.295  -0.019  37.583  1.00  0.00     0.001 A 
HETATM   18  C11 UNK     1      19.053   0.108  32.832  1.00  0.00     0.304 A 
HETATM   19  O3  UNK     1      19.584  -0.149  31.756  1.00  0.00    -0.259 OA
ENDBRANCH   8   9
BRANCH   2  20
HETATM   20  C5  UNK     1      18.860   7.872  33.570  1.00  0.00     0.069 A 
HETATM   21  C8  UNK     1      17.873   8.871  33.400  1.00  0.00     0.142 A 
HETATM   22  C13 UNK     1      18.110  10.197  33.763  1.00  0.00     0.044 A 
HETATM   23  F1  UNK     1      16.685   8.531  32.880  1.00  0.00    -0.204 F 
HETATM   24  C16 UNK     1      19.343  10.561  34.305  1.00  0.00     0.003 A 
HETATM   25  C14 UNK     1      20.337   9.601  34.484  1.00  0.00     0.002 A 
HETATM   26  C9  UNK     1      20.100   8.274  34.122  1.00  0.00     0.032 A 
ENDBRANCH   2  20
TORSDOF 2
ENDMDL
MODEL 5
REMARK VINA RESULT:      -8.7      3.231      8.091
REMARK  2 active torsions:
REMARK  status: ('A' for Active; 'I' for Inactive)
REMARK    1  A    between atoms: C5_11  and  N1_5 
REMARK       I    between atoms: C6_12  and  N2_6 
REMARK    2  A    between atoms: C6_12  and  C7_13 
ROOT
HETATM    1  O1  UNK     1      20.126  -2.459  37.819  1.00  0.00    -0.267 OA
HETATM    2  N1  UNK     1      20.600  -7.306  36.468  1.00  0.00    -0.375 N 
HETATM    3  N2  UNK     1      20.037  -4.472  36.654  1.00  0.00    -0.345 N 
HETATM    4  C1  UNK     1      21.254  -6.463  37.473  1.00  0.00     0.143 C 
HETATM    5  C2  UNK     1      19.549  -6.707  35.643  1.00  0.00     0.143 C 
HETATM    6  C3  UNK     1      20.374  -5.268  37.832  1.00  0.00     0.146 C 
HETATM    7  C4  UNK     1      19.819  -5.219  35.411  1.00  0.00     0.146 C 
HETATM    8  C6  UNK     1      19.945  -3.087  36.775  1.00  0.00     0.260 C 
ENDROOT
BRANCH   8   9
HETATM    9  C7  UNK     1      19.613  -2.324  35.554  1.00  0.00     0.108 A 
HETATM   10  C10 UNK     1      20.344  -2.601  34.466  1.00  0.00     0.037 A 
HETATM   11  C12 UNK     1      20.091  -1.900  33.217  1.00  0.00    -0.001 A 
HETATM   12  C15 UNK     1      19.083  -0.944  33.172  1.00  0.00     0.089 A 
HETATM   13  C17 UNK     1      20.828  -2.157  32.058  1.00  0.00     0.014 A 
HETATM   14  C18 UNK     1      18.791  -0.237  32.007  1.00  0.00     0.038 A 
HETATM   15  O2  UNK     1      18.318  -0.657  34.320  1.00  0.00    -0.274 OA
HETATM   16  C20 UNK     1      19.532  -0.499  30.856  1.00  0.00     0.003 A 
HETATM   17  C19 UNK     1      20.548  -1.457  30.881  1.00  0.00     0.001 A 
HETATM   18  C11 UNK     1      18.535  -1.310  35.530  1.00  0.00     0.304 A 
HETATM   19  O3  UNK     1      17.865  -1.054  36.524  1.00  0.00    -0.259 OA
ENDBRANCH   8   9
BRANCH   2  20
HETATM   20  C5  UNK     1      20.931  -8.654  36.351  1.00  0.00     0.069 A 
HETATM   21  C8  UNK     1      20.579  -9.591  37.350  1.00  0.00     0.142 A 
HETATM   22  C13 UNK     1      20.911 -10.941  37.230  1.00  0.00     0.044 A 
HETATM   23  F1  UNK     1      19.910  -9.170  38.433  1.00  0.00    -0.204 F 
HETATM   24  C16 UNK     1      21.607 -11.390  36.108  1.00  0.00     0.003 A 
HETATM   25  C14 UNK     1      21.970 -10.491  35.106  1.00  0.00     0.002 A 
HETATM   26  C9  UNK     1      21.637  -9.141  35.225  1.00  0.00     0.032 A 
ENDBRANCH   2  20
TORSDOF 2
ENDMDL
MODEL 6
REMARK VINA RESULT:      -8.6      7.654     10.347
REMARK  2 active torsions:
REMARK  status: ('A' for Active; 'I' for Inactive)
REMARK    1  A    between atoms: C5_11  and  N1_5 
REMARK       I    between atoms: C6_12  and  N2_6 
REMARK    2  A    between atoms: C6_12  and  C7_13 
ROOT
HETATM    1  O1  UNK     1      27.721  -9.921  39.460  1.00  0.00    -0.267 OA
HETATM    2  N1  UNK     1      30.390  -6.417  36.982  1.00  0.00    -0.375 N 
HETATM    3  N2  UNK     1      28.392  -8.265  37.967  1.00  0.00    -0.345 N 
HETATM    4  C1  UNK     1      30.522  -7.054  38.295  1.00  0.00     0.143 C 
HETATM    5  C2  UNK     1      29.288  -6.841  36.117  1.00  0.00     0.143 C 
HETATM    6  C3  UNK     1      29.804  -8.402  38.317  1.00  0.00     0.146 C 
HETATM    7  C4  UNK     1      28.073  -7.261  36.947  1.00  0.00     0.146 C 
HETATM    8  C6  UNK     1      27.454  -9.076  38.604  1.00  0.00     0.260 C 
ENDROOT
BRANCH   8   9
HETATM    9  C7  UNK     1      26.037  -8.895  38.225  1.00  0.00     0.108 A 
HETATM   10  C10 UNK     1      25.326  -8.051  38.983  1.00  0.00     0.037 A 
HETATM   11  C12 UNK     1      23.923  -7.808  38.689  1.00  0.00    -0.001 A 
HETATM   12  C15 UNK     1      23.337  -8.464  37.612  1.00  0.00     0.089 A 
HETATM   13  C17 UNK     1      23.142  -6.936  39.452  1.00  0.00     0.014 A 
HETATM   14  C18 UNK     1      21.998  -8.275  37.276  1.00  0.00     0.038 A 
HETATM   15  O2  UNK     1      24.091  -9.351  36.818  1.00  0.00    -0.274 OA
HETATM   16  C20 UNK     1      21.226  -7.404  38.043  1.00  0.00     0.003 A 
HETATM   17  C19 UNK     1      21.797  -6.735  39.129  1.00  0.00     0.001 A 
HETATM   18  C11 UNK     1      25.435  -9.604  37.074  1.00  0.00     0.304 A 
HETATM   19  O3  UNK     1      26.084 -10.378  36.379  1.00  0.00    -0.259 OA
ENDBRANCH   8   9
BRANCH   2  20
HETATM   20  C5  UNK     1      31.328  -5.481  36.552  1.00  0.00     0.069 A 
HETATM   21  C8  UNK     1      31.211  -4.111  36.879  1.00  0.00     0.142 A 
HETATM   22  C13 UNK     1      32.152  -3.177  36.448  1.00  0.00     0.044 A 
HETATM   23  F1  UNK     1      30.170  -3.704  37.621  1.00  0.00    -0.204 F 
HETATM   24  C16 UNK     1      33.239  -3.588  35.676  1.00  0.00     0.003 A 
HETATM   25  C14 UNK     1      33.383  -4.932  35.336  1.00  0.00     0.002 A 
HETATM   26  C9  UNK     1      32.441  -5.867  35.768  1.00  0.00     0.032 A 
ENDBRANCH   2  20
TORSDOF 2
ENDMDL
MODEL 7
REMARK VINA RESULT:      -8.6      6.838     11.476
REMARK  2 active torsions:
REMARK  status: ('A' for Active; 'I' for Inactive)
REMARK    1  A    between atoms: C5_11  and  N1_5 
REMARK       I    between atoms: C6_12  and  N2_6 
REMARK    2  A    between atoms: C6_12  and  C7_13 
ROOT
HETATM    1  O1  UNK     1      18.101   4.337  30.878  1.00  0.00    -0.267 OA
HETATM    2  N1  UNK     1      18.445   1.349  34.939  1.00  0.00    -0.375 N 
HETATM    3  N2  UNK     1      18.336   3.542  33.053  1.00  0.00    -0.345 N 
HETATM    4  C1  UNK     1      17.923   1.162  33.582  1.00  0.00     0.143 C 
HETATM    5  C2  UNK     1      19.039   2.643  35.278  1.00  0.00     0.143 C 
HETATM    6  C3  UNK     1      18.554   2.164  32.617  1.00  0.00     0.146 C 
HETATM    7  C4  UNK     1      18.363   3.774  34.501  1.00  0.00     0.146 C 
HETATM    8  C6  UNK     1      18.121   4.530  32.094  1.00  0.00     0.260 C 
ENDROOT
BRANCH   8   9
HETATM    9  C7  UNK     1      17.894   5.906  32.582  1.00  0.00     0.108 A 
HETATM   10  C10 UNK     1      16.622   6.244  32.829  1.00  0.00     0.037 A 
HETATM   11  C12 UNK     1      16.299   7.577  33.312  1.00  0.00    -0.001 A 
HETATM   12  C15 UNK     1      17.329   8.489  33.513  1.00  0.00     0.089 A 
HETATM   13  C17 UNK     1      14.986   7.972  33.583  1.00  0.00     0.014 A 
HETATM   14  C18 UNK     1      17.087   9.781  33.974  1.00  0.00     0.038 A 
HETATM   15  O2  UNK     1      18.666   8.127  33.252  1.00  0.00    -0.274 OA
HETATM   16  C20 UNK     1      15.775  10.168  34.240  1.00  0.00     0.003 A 
HETATM   17  C19 UNK     1      14.726   9.265  34.046  1.00  0.00     0.001 A 
HETATM   18  C11 UNK     1      19.007   6.860  32.789  1.00  0.00     0.304 A 
HETATM   19  O3  UNK     1      20.172   6.554  32.564  1.00  0.00    -0.259 OA
ENDBRANCH   8   9
BRANCH   2  20
HETATM   20  C5  UNK     1      18.431   0.297  35.852  1.00  0.00     0.069 A 
HETATM   21  C8  UNK     1      17.730   0.391  37.077  1.00  0.00     0.142 A 
HETATM   22  C13 UNK     1      17.717  -0.664  37.990  1.00  0.00     0.044 A 
HETATM   23  F1  UNK     1      17.065   1.519  37.364  1.00  0.00    -0.204 F 
HETATM   24  C16 UNK     1      18.406  -1.843  37.703  1.00  0.00     0.003 A 
HETATM   25  C14 UNK     1      19.107  -1.966  36.504  1.00  0.00     0.002 A 
HETATM   26  C9  UNK     1      19.120  -0.911  35.591  1.00  0.00     0.032 A 
ENDBRANCH   2  20
TORSDOF 2
ENDMDL
MODEL 8
REMARK VINA RESULT:      -8.6     28.635     30.383
REMARK  2 active torsions:
REMARK  status: ('A' for Active; 'I' for Inactive)
REMARK    1  A    between atoms: C5_11  and  N1_5 
REMARK       I    between atoms: C6_12  and  N2_6 
REMARK    2  A    between atoms: C6_12  and  C7_13 
ROOT
HETATM    1  O1  UNK     1      15.507   6.586   9.895  1.00  0.00    -0.267 OA
HETATM    2  N1  UNK     1      16.692  11.421   9.025  1.00  0.00    -0.375 N 
HETATM    3  N2  UNK     1      15.483   8.795   9.161  1.00  0.00    -0.345 N 
HETATM    4  C1  UNK     1      17.133  10.429  10.009  1.00  0.00     0.143 C 
HETATM    5  C2  UNK     1      15.713  11.008   8.018  1.00  0.00     0.143 C 
HETATM    6  C3  UNK     1      16.888   9.012   9.494  1.00  0.00     0.146 C 
HETATM    7  C4  UNK     1      14.773   9.939   8.578  1.00  0.00     0.146 C 
HETATM    8  C6  UNK     1      14.911   7.548   9.407  1.00  0.00     0.260 C 
ENDROOT
BRANCH   8   9
HETATM    9  C7  UNK     1      13.484   7.379   9.064  1.00  0.00     0.108 A 
HETATM   10  C10 UNK     1      13.222   6.935   7.829  1.00  0.00     0.037 A 
HETATM   11  C12 UNK     1      11.846   6.737   7.398  1.00  0.00    -0.001 A 
HETATM   12  C15 UNK     1      10.815   7.016   8.288  1.00  0.00     0.089 A 
HETATM   13  C17 UNK     1      11.526   6.275   6.120  1.00  0.00     0.014 A 
HETATM   14  C18 UNK     1       9.477   6.848   7.939  1.00  0.00     0.038 A 
HETATM   15  O2  UNK     1      11.098   7.484   9.587  1.00  0.00    -0.274 OA
HETATM   16  C20 UNK     1       9.166   6.388   6.661  1.00  0.00     0.003 A 
HETATM   17  C19 UNK     1      10.188   6.101   5.753  1.00  0.00     0.001 A 
HETATM   18  C11 UNK     1      12.403   7.683  10.028  1.00  0.00     0.304 A 
HETATM   19  O3  UNK     1      12.640   8.091  11.160  1.00  0.00    -0.259 OA
ENDBRANCH   8   9
BRANCH   2  20
HETATM   20  C5  UNK     1      17.242  12.701   9.017  1.00  0.00     0.069 A 
HETATM   21  C8  UNK     1      18.401  13.004   8.266  1.00  0.00     0.142 A 
HETATM   22  C13 UNK     1      18.948  14.287   8.260  1.00  0.00     0.044 A 
HETATM   23  F1  UNK     1      18.984  12.035   7.547  1.00  0.00    -0.204 F 
HETATM   24  C16 UNK     1      18.351  15.304   9.006  1.00  0.00     0.003 A 
HETATM   25  C14 UNK     1      17.207  15.037   9.757  1.00  0.00     0.002 A 
HETATM   26  C9  UNK     1      16.659  13.754   9.763  1.00  0.00     0.032 A 
ENDBRANCH   2  20
TORSDOF 2
ENDMDL
MODEL 9
REMARK VINA RESULT:      -8.5      7.979     10.504
REMARK  2 active torsions:
REMARK  status: ('A' for Active; 'I' for Inactive)
REMARK    1  A    between atoms: C5_11  and  N1_5 
REMARK       I    between atoms: C6_12  and  N2_6 
REMARK    2  A    between atoms: C6_12  and  C7_13 
ROOT
HETATM    1  O1  UNK     1      27.591 -10.363  38.937  1.00  0.00    -0.267 OA
HETATM    2  N1  UNK     1      30.296  -6.754  36.657  1.00  0.00    -0.375 N 
HETATM    3  N2  UNK     1      28.290  -8.654  37.520  1.00  0.00    -0.345 N 
HETATM    4  C1  UNK     1      30.395  -7.431  37.953  1.00  0.00     0.143 C 
HETATM    5  C2  UNK     1      29.226  -7.162  35.745  1.00  0.00     0.143 C 
HETATM    6  C3  UNK     1      29.691  -8.787  37.910  1.00  0.00     0.146 C 
HETATM    7  C4  UNK     1      27.991  -7.621  36.522  1.00  0.00     0.146 C 
HETATM    8  C6  UNK     1      27.342  -9.494  38.101  1.00  0.00     0.260 C 
ENDROOT
BRANCH   8   9
HETATM    9  C7  UNK     1      25.935  -9.316  37.684  1.00  0.00     0.108 A 
HETATM   10  C10 UNK     1      25.417 -10.287  36.921  1.00  0.00     0.037 A 
HETATM   11  C12 UNK     1      24.040 -10.200  36.461  1.00  0.00    -0.001 A 
HETATM   12  C15 UNK     1      23.276  -9.097  36.826  1.00  0.00     0.089 A 
HETATM   13  C17 UNK     1      23.458 -11.189  35.664  1.00  0.00     0.014 A 
HETATM   14  C18 UNK     1      21.951  -8.954  36.418  1.00  0.00     0.038 A 
HETATM   15  O2  UNK     1      23.827  -8.079  37.629  1.00  0.00    -0.274 OA
HETATM   16  C20 UNK     1      21.379  -9.944  35.623  1.00  0.00     0.003 A 
HETATM   17  C19 UNK     1      22.130 -11.061  35.247  1.00  0.00     0.001 A 
HETATM   18  C11 UNK     1      25.141  -8.133  38.084  1.00  0.00     0.304 A 
HETATM   19  O3  UNK     1      25.613  -7.242  38.782  1.00  0.00    -0.259 OA
ENDBRANCH   8   9
BRANCH   2  20
HETATM   20  C5  UNK     1      31.237  -5.796  36.287  1.00  0.00     0.069 A 
HETATM   21  C8  UNK     1      31.199  -4.482  36.808  1.00  0.00     0.142 A 
HETATM   22  C13 UNK     1      32.143  -3.525  36.436  1.00  0.00     0.044 A 
HETATM   23  F1  UNK     1      30.233  -4.153  37.678  1.00  0.00    -0.204 F 
HETATM   24  C16 UNK     1      33.151  -3.855  35.530  1.00  0.00     0.003 A 
HETATM   25  C14 UNK     1      33.216  -5.142  34.998  1.00  0.00     0.002 A 
HETATM   26  C9  UNK     1      32.272  -6.100  35.371  1.00  0.00     0.032 A 
ENDBRANCH   2  20
TORSDOF 2
ENDMDL
MODEL 10
REMARK VINA RESULT:      -8.5      6.747     11.204
REMARK  2 active torsions:
REMARK  status: ('A' for Active; 'I' for Inactive)
REMARK    1  A    between atoms: C5_11  and  N1_5 
REMARK       I    between atoms: C6_12  and  N2_6 
REMARK    2  A    between atoms: C6_12  and  C7_13 
ROOT
HETATM    1  O1  UNK     1      18.127   4.246  30.952  1.00  0.00    -0.267 OA
HETATM    2  N1  UNK     1      18.422   1.338  35.074  1.00  0.00    -0.375 N 
HETATM    3  N2  UNK     1      18.392   3.488  33.137  1.00  0.00    -0.345 N 
HETATM    4  C1  UNK     1      17.836   1.156  33.744  1.00  0.00     0.143 C 
HETATM    5  C2  UNK     1      19.117   2.595  35.357  1.00  0.00     0.143 C 
HETATM    6  C3  UNK     1      18.496   2.089  32.730  1.00  0.00     0.146 C 
HETATM    7  C4  UNK     1      18.491   3.751  34.576  1.00  0.00     0.146 C 
HETATM    8  C6  UNK     1      18.209   4.466  32.162  1.00  0.00     0.260 C 
ENDROOT
BRANCH   8   9
HETATM    9  C7  UNK     1      18.098   5.866  32.622  1.00  0.00     0.108 A 
HETATM   10  C10 UNK     1      19.230   6.440  33.047  1.00  0.00     0.037 A 
HETATM   11  C12 UNK     1      19.220   7.816  33.519  1.00  0.00    -0.001 A 
HETATM   12  C15 UNK     1      18.021   8.520  33.520  1.00  0.00     0.089 A 
HETATM   13  C17 UNK     1      20.377   8.456  33.972  1.00  0.00     0.014 A 
HETATM   14  C18 UNK     1      17.944   9.840  33.959  1.00  0.00     0.038 A 
HETATM   15  O2  UNK     1      16.833   7.910  33.071  1.00  0.00    -0.274 OA
HETATM   16  C20 UNK     1      19.102  10.470  34.410  1.00  0.00     0.003 A 
HETATM   17  C19 UNK     1      20.317   9.780  34.416  1.00  0.00     0.001 A 
HETATM   18  C11 UNK     1      16.810   6.596  32.613  1.00  0.00     0.304 A 
HETATM   19  O3  UNK     1      15.772   6.072  32.225  1.00  0.00    -0.259 OA
ENDBRANCH   8   9
BRANCH   2  20
HETATM   20  C5  UNK     1      18.371   0.312  36.015  1.00  0.00     0.069 A 
HETATM   21  C8  UNK     1      17.664   0.457  37.231  1.00  0.00     0.142 A 
HETATM   22  C13 UNK     1      17.613  -0.572  38.171  1.00  0.00     0.044 A 
HETATM   23  F1  UNK     1      17.029   1.612  37.482  1.00  0.00    -0.204 F 
HETATM   24  C16 UNK     1      18.269  -1.777  37.921  1.00  0.00     0.003 A 
HETATM   25  C14 UNK     1      18.976  -1.952  36.732  1.00  0.00     0.002 A 
HETATM   26  C9  UNK     1      19.026  -0.923  35.791  1.00  0.00     0.032 A 
ENDBRANCH   2  20
TORSDOF 2
ENDMDL
