MODEL 1
REMARK VINA RESULT:      -9.0      0.000      0.000
REMARK  4 active torsions:
REMARK  status: ('A' for Active; 'I' for Inactive)
REMARK    1  A    between atoms: C5_9  and  O1_1 
REMARK    2  A    between atoms: C6_10  and  O1_1 
REMARK    3  A    between atoms: C11_15  and  O3_3 
REMARK    4  A    between atoms: C20_24  and  O3_3 
ROOT
HETATM    1  O2  UNK     1      18.964   0.715  32.339  1.00  0.00    -0.319 OA
HETATM    2  O4  UNK     1      18.410   2.537  28.727  1.00  0.00    -0.284 OA
HETATM    3  C1  UNK     1      19.208   0.658  29.920  1.00  0.00     0.051 A 
HETATM    4  C2  UNK     1      19.369   0.088  31.185  1.00  0.00     0.092 A 
HETATM    5  C6  UNK     1      18.161   2.616  31.080  1.00  0.00     0.149 A 
HETATM    6  C7  UNK     1      18.578   1.987  29.807  1.00  0.00     0.220 A 
HETATM    7  C9  UNK     1      19.639  -0.025  28.780  1.00  0.00     0.021 A 
HETATM    8  C10 UNK     1      19.962  -1.167  31.315  1.00  0.00     0.075 A 
HETATM    9  C11 UNK     1      20.393  -1.851  30.179  1.00  0.00     0.071 A 
HETATM   10  C14 UNK     1      20.232  -1.281  28.914  1.00  0.00     0.038 A 
HETATM   11  C17 UNK     1      18.379   1.951  32.219  1.00  0.00     0.184 A 
ENDROOT
BRANCH   5  12
HETATM   12  O1  UNK     1      17.568   3.846  31.061  1.00  0.00    -0.305 OA
BRANCH  12  13
HETATM   13  C5  UNK     1      18.192   4.868  31.709  1.00  0.00     0.077 A 
HETATM   14  C13 UNK     1      19.466   5.266  31.315  1.00  0.00     0.038 A 
HETATM   15  C12 UNK     1      20.107   6.313  31.978  1.00  0.00     0.015 A 
HETATM   16  C4  UNK     1      19.479   6.977  33.045  1.00  0.00    -0.026 A 
HETATM   17  C16 UNK     1      20.108   8.034  33.724  1.00  0.00     0.012 A 
HETATM   18  C3  UNK     1      18.183   6.573  33.445  1.00  0.00    -0.023 A 
HETATM   19  C19 UNK     1      19.469   8.681  34.781  1.00  0.00     0.001 A 
HETATM   20  C18 UNK     1      18.195   8.283  35.174  1.00  0.00     0.001 A 
HETATM   21  C15 UNK     1      17.555   7.235  34.511  1.00  0.00     0.012 A 
HETATM   22  C8  UNK     1      17.554   5.516  32.766  1.00  0.00     0.049 A 
ENDBRANCH  12  13
ENDBRANCH   5  12
BRANCH   9  23
HETATM   23  O3  UNK     1      20.973  -3.076  30.302  1.00  0.00    -0.351 OA
BRANCH  23  24
HETATM   24  C20 UNK     1      21.135  -3.588  31.624  1.00  0.00     0.171 C 
HETATM   25  C21 UNK     1      21.917  -4.882  31.560  1.00  0.00     0.034 C 
ENDBRANCH  23  24
ENDBRANCH   9  23
TORSDOF 4
ENDMDL
MODEL 2
REMARK VINA RESULT:      -8.3      5.781     11.258
REMARK  4 active torsions:
REMARK  status: ('A' for Active; 'I' for Inactive)
REMARK    1  A    between atoms: C5_9  and  O1_1 
REMARK    2  A    between atoms: C6_10  and  O1_1 
REMARK    3  A    between atoms: C11_15  and  O3_3 
REMARK    4  A    between atoms: C20_24  and  O3_3 
ROOT
HETATM    1  O2  UNK     1      20.010  -1.899  34.502  1.00  0.00    -0.319 OA
HETATM    2  O4  UNK     1      18.744  -1.832  38.384  1.00  0.00    -0.284 OA
HETATM    3  C1  UNK     1      18.614  -0.891  36.219  1.00  0.00     0.051 A 
HETATM    4  C2  UNK     1      19.086  -0.966  34.907  1.00  0.00     0.092 A 
HETATM    5  C6  UNK     1      20.113  -2.831  36.731  1.00  0.00     0.149 A 
HETATM    6  C7  UNK     1      19.121  -1.848  37.220  1.00  0.00     0.220 A 
HETATM    7  C9  UNK     1      17.673   0.080  36.573  1.00  0.00     0.021 A 
HETATM    8  C10 UNK     1      18.620  -0.071  33.944  1.00  0.00     0.075 A 
HETATM    9  C11 UNK     1      17.681   0.898  34.296  1.00  0.00     0.071 A 
HETATM   10  C14 UNK     1      17.209   0.973  35.608  1.00  0.00     0.038 A 
HETATM   11  C17 UNK     1      20.474  -2.784  35.445  1.00  0.00     0.184 A 
ENDROOT
BRANCH   5  12
HETATM   12  O1  UNK     1      20.631  -3.753  37.596  1.00  0.00    -0.305 OA
BRANCH  12  13
HETATM   13  C5  UNK     1      20.181  -5.035  37.509  1.00  0.00     0.077 A 
HETATM   14  C13 UNK     1      19.375  -5.419  36.441  1.00  0.00     0.038 A 
HETATM   15  C12 UNK     1      18.913  -6.732  36.351  1.00  0.00     0.015 A 
HETATM   16  C4  UNK     1      19.255  -7.681  37.329  1.00  0.00    -0.026 A 
HETATM   17  C16 UNK     1      18.801  -9.008  37.254  1.00  0.00     0.012 A 
HETATM   18  C3  UNK     1      20.076  -7.291  38.415  1.00  0.00    -0.023 A 
HETATM   19  C19 UNK     1      19.150  -9.936  38.235  1.00  0.00     0.001 A 
HETATM   20  C18 UNK     1      19.956  -9.552  39.303  1.00  0.00     0.001 A 
HETATM   21  C15 UNK     1      20.417  -8.238  39.393  1.00  0.00     0.012 A 
HETATM   22  C8  UNK     1      20.530  -5.964  38.490  1.00  0.00     0.049 A 
ENDBRANCH  12  13
ENDBRANCH   5  12
BRANCH   9  23
HETATM   23  O3  UNK     1      17.224   1.774  33.359  1.00  0.00    -0.351 OA
BRANCH  23  24
HETATM   24  C20 UNK     1      18.108   2.823  32.966  1.00  0.00     0.171 C 
HETATM   25  C21 UNK     1      18.267   2.796  31.461  1.00  0.00     0.034 C 
ENDBRANCH  23  24
ENDBRANCH   9  23
TORSDOF 4
ENDMDL
MODEL 3
REMARK VINA RESULT:      -8.3      6.212      9.722
REMARK  4 active torsions:
REMARK  status: ('A' for Active; 'I' for Inactive)
REMARK    1  A    between atoms: C5_9  and  O1_1 
REMARK    2  A    between atoms: C6_10  and  O1_1 
REMARK    3  A    between atoms: C11_15  and  O3_3 
REMARK    4  A    between atoms: C20_24  and  O3_3 
ROOT
HETATM    1  O2  UNK     1      22.202  -6.046  37.656  1.00  0.00    -0.319 OA
HETATM    2  O4  UNK     1      18.288  -5.566  36.598  1.00  0.00    -0.284 OA
HETATM    3  C1  UNK     1      20.120  -7.033  36.880  1.00  0.00     0.051 A 
HETATM    4  C2  UNK     1      21.461  -7.132  37.254  1.00  0.00     0.092 A 
HETATM    5  C6  UNK     1      20.303  -4.581  37.355  1.00  0.00     0.149 A 
HETATM    6  C7  UNK     1      19.460  -5.715  36.914  1.00  0.00     0.220 A 
HETATM    7  C9  UNK     1      19.415  -8.172  36.479  1.00  0.00     0.021 A 
HETATM    8  C10 UNK     1      22.104  -8.369  37.230  1.00  0.00     0.075 A 
HETATM    9  C11 UNK     1      21.403  -9.506  36.830  1.00  0.00     0.071 A 
HETATM   10  C14 UNK     1      20.062  -9.408  36.456  1.00  0.00     0.038 A 
HETATM   11  C17 UNK     1      21.575  -4.824  37.684  1.00  0.00     0.184 A 
ENDROOT
BRANCH   5  12
HETATM   12  O1  UNK     1      19.766  -3.326  37.415  1.00  0.00    -0.305 OA
BRANCH  12  13
HETATM   13  C5  UNK     1      19.542  -2.669  36.245  1.00  0.00     0.077 A 
HETATM   14  C13 UNK     1      18.540  -1.705  36.169  1.00  0.00     0.038 A 
HETATM   15  C12 UNK     1      18.309  -1.030  34.970  1.00  0.00     0.015 A 
HETATM   16  C4  UNK     1      19.079  -1.310  33.829  1.00  0.00    -0.026 A 
HETATM   17  C16 UNK     1      18.862  -0.640  32.614  1.00  0.00     0.012 A 
HETATM   18  C3  UNK     1      20.099  -2.290  33.907  1.00  0.00    -0.023 A 
HETATM   19  C19 UNK     1      19.637  -0.932  31.492  1.00  0.00     0.001 A 
HETATM   20  C18 UNK     1      20.639  -1.895  31.568  1.00  0.00     0.001 A 
HETATM   21  C15 UNK     1      20.869  -2.571  32.767  1.00  0.00     0.012 A 
HETATM   22  C8  UNK     1      20.316  -2.960  35.122  1.00  0.00     0.049 A 
ENDBRANCH  12  13
ENDBRANCH   5  12
BRANCH   9  23
HETATM   23  O3  UNK     1      22.028 -10.716  36.804  1.00  0.00    -0.351 OA
BRANCH  23  24
HETATM   24  C20 UNK     1      22.530 -11.160  35.544  1.00  0.00     0.171 C 
HETATM   25  C21 UNK     1      23.831 -11.902  35.765  1.00  0.00     0.034 C 
ENDBRANCH  23  24
ENDBRANCH   9  23
TORSDOF 4
ENDMDL
MODEL 4
REMARK VINA RESULT:      -8.2     22.428     24.834
REMARK  4 active torsions:
REMARK  status: ('A' for Active; 'I' for Inactive)
REMARK    1  A    between atoms: C5_9  and  O1_1 
REMARK    2  A    between atoms: C6_10  and  O1_1 
REMARK    3  A    between atoms: C11_15  and  O3_3 
REMARK    4  A    between atoms: C20_24  and  O3_3 
ROOT
HETATM    1  O2  UNK     1       6.873   6.205  11.421  1.00  0.00    -0.319 OA
HETATM    2  O4  UNK     1       6.824   3.282   8.571  1.00  0.00    -0.284 OA
HETATM    3  C1  UNK     1       6.355   3.912  10.801  1.00  0.00     0.051 A 
HETATM    4  C2  UNK     1       6.398   4.953  11.730  1.00  0.00     0.092 A 
HETATM    5  C6  UNK     1       7.337   5.520   9.150  1.00  0.00     0.149 A 
HETATM    6  C7  UNK     1       6.837   4.154   9.428  1.00  0.00     0.220 A 
HETATM    7  C9  UNK     1       5.861   2.658  11.171  1.00  0.00     0.021 A 
HETATM    8  C10 UNK     1       5.947   4.746  13.033  1.00  0.00     0.075 A 
HETATM    9  C11 UNK     1       5.453   3.495  13.404  1.00  0.00     0.071 A 
HETATM   10  C14 UNK     1       5.411   2.454  12.475  1.00  0.00     0.038 A 
HETATM   11  C17 UNK     1       7.318   6.418  10.139  1.00  0.00     0.184 A 
ENDROOT
BRANCH   5  12
HETATM   12  O1  UNK     1       7.800   5.825   7.902  1.00  0.00    -0.305 OA
BRANCH  12  13
HETATM   13  C5  UNK     1       9.144   5.959   7.732  1.00  0.00     0.077 A 
HETATM   14  C13 UNK     1       9.649   6.430   6.524  1.00  0.00     0.038 A 
HETATM   15  C12 UNK     1      11.026   6.568   6.347  1.00  0.00     0.015 A 
HETATM   16  C4  UNK     1      11.918   6.236   7.381  1.00  0.00    -0.026 A 
HETATM   17  C16 UNK     1      13.307   6.368   7.223  1.00  0.00     0.012 A 
HETATM   18  C3  UNK     1      11.404   5.757   8.611  1.00  0.00    -0.023 A 
HETATM   19  C19 UNK     1      14.176   6.034   8.261  1.00  0.00     0.001 A 
HETATM   20  C18 UNK     1      13.671   5.562   9.469  1.00  0.00     0.001 A 
HETATM   21  C15 UNK     1      12.294   5.424   9.644  1.00  0.00     0.012 A 
HETATM   22  C8  UNK     1      10.015   5.624   8.769  1.00  0.00     0.049 A 
ENDBRANCH  12  13
ENDBRANCH   5  12
BRANCH   9  23
HETATM   23  O3  UNK     1       5.013   3.289  14.676  1.00  0.00    -0.351 OA
BRANCH  23  24
HETATM   24  C20 UNK     1       4.655   1.953  15.030  1.00  0.00     0.171 C 
HETATM   25  C21 UNK     1       5.554   1.483  16.154  1.00  0.00     0.034 C 
ENDBRANCH  23  24
ENDBRANCH   9  23
TORSDOF 4
ENDMDL
MODEL 5
REMARK VINA RESULT:      -8.1      2.402      4.525
REMARK  4 active torsions:
REMARK  status: ('A' for Active; 'I' for Inactive)
REMARK    1  A    between atoms: C5_9  and  O1_1 
REMARK    2  A    between atoms: C6_10  and  O1_1 
REMARK    3  A    between atoms: C11_15  and  O3_3 
REMARK    4  A    between atoms: C20_24  and  O3_3 
ROOT
HETATM    1  O2  UNK     1      18.051   3.494  33.415  1.00  0.00    -0.319 OA
HETATM    2  O4  UNK     1      19.737   6.787  31.687  1.00  0.00    -0.284 OA
HETATM    3  C1  UNK     1      18.860   4.609  31.411  1.00  0.00     0.051 A 
HETATM    4  C2  UNK     1      18.287   3.515  32.061  1.00  0.00     0.092 A 
HETATM    5  C6  UNK     1      18.956   5.723  33.653  1.00  0.00     0.149 A 
HETATM    6  C7  UNK     1      19.232   5.798  32.200  1.00  0.00     0.220 A 
HETATM    7  C9  UNK     1      19.076   4.574  30.031  1.00  0.00     0.021 A 
HETATM    8  C10 UNK     1      17.927   2.380  31.334  1.00  0.00     0.075 A 
HETATM    9  C11 UNK     1      18.142   2.343  29.956  1.00  0.00     0.071 A 
HETATM   10  C14 UNK     1      18.715   3.438  29.306  1.00  0.00     0.038 A 
HETATM   11  C17 UNK     1      18.402   4.608  34.138  1.00  0.00     0.184 A 
ENDROOT
BRANCH   5  12
HETATM   12  O1  UNK     1      19.271   6.784  34.454  1.00  0.00    -0.305 OA
BRANCH  12  13
HETATM   13  C5  UNK     1      18.516   7.912  34.347  1.00  0.00     0.077 A 
HETATM   14  C13 UNK     1      19.131   9.142  34.136  1.00  0.00     0.038 A 
HETATM   15  C12 UNK     1      18.360  10.300  34.027  1.00  0.00     0.015 A 
HETATM   16  C4  UNK     1      16.959  10.240  34.127  1.00  0.00    -0.026 A 
HETATM   17  C16 UNK     1      16.166  11.394  34.018  1.00  0.00     0.012 A 
HETATM   18  C3  UNK     1      16.334   8.988  34.340  1.00  0.00    -0.023 A 
HETATM   19  C19 UNK     1      14.778  11.315  34.119  1.00  0.00     0.001 A 
HETATM   20  C18 UNK     1      14.163  10.084  34.330  1.00  0.00     0.001 A 
HETATM   21  C15 UNK     1      14.935   8.927  34.440  1.00  0.00     0.012 A 
HETATM   22  C8  UNK     1      17.127   7.834  34.449  1.00  0.00     0.049 A 
ENDBRANCH  12  13
ENDBRANCH   5  12
BRANCH   9  23
HETATM   23  O3  UNK     1      17.792   1.237  29.243  1.00  0.00    -0.351 OA
BRANCH  23  24
HETATM   24  C20 UNK     1      18.786   0.678  28.385  1.00  0.00     0.171 C 
HETATM   25  C21 UNK     1      19.872   0.049  29.231  1.00  0.00     0.034 C 
ENDBRANCH  23  24
ENDBRANCH   9  23
TORSDOF 4
ENDMDL
MODEL 6
REMARK VINA RESULT:      -8.1      3.818      5.273
REMARK  4 active torsions:
REMARK  status: ('A' for Active; 'I' for Inactive)
REMARK    1  A    between atoms: C5_9  and  O1_1 
REMARK    2  A    between atoms: C6_10  and  O1_1 
REMARK    3  A    between atoms: C11_15  and  O3_3 
REMARK    4  A    between atoms: C20_24  and  O3_3 
ROOT
HETATM    1  O2  UNK     1      19.593  -1.396  33.657  1.00  0.00    -0.319 OA
HETATM    2  O4  UNK     1      17.087   0.463  36.291  1.00  0.00    -0.284 OA
HETATM    3  C1  UNK     1      18.705  -1.219  35.914  1.00  0.00     0.051 A 
HETATM    4  C2  UNK     1      19.540  -1.813  34.965  1.00  0.00     0.092 A 
HETATM    5  C6  UNK     1      17.936   0.311  34.086  1.00  0.00     0.149 A 
HETATM    6  C7  UNK     1      17.839  -0.097  35.505  1.00  0.00     0.220 A 
HETATM    7  C9  UNK     1      18.693  -1.686  37.231  1.00  0.00     0.021 A 
HETATM    8  C10 UNK     1      20.367  -2.875  35.329  1.00  0.00     0.075 A 
HETATM    9  C11 UNK     1      20.357  -3.342  36.643  1.00  0.00     0.071 A 
HETATM   10  C14 UNK     1      19.522  -2.749  37.592  1.00  0.00     0.038 A 
HETATM   11  C17 UNK     1      18.781  -0.350  33.290  1.00  0.00     0.184 A 
ENDROOT
BRANCH   5  12
HETATM   12  O1  UNK     1      17.168   1.344  33.629  1.00  0.00    -0.305 OA
BRANCH  12  13
HETATM   13  C5  UNK     1      17.792   2.506  33.292  1.00  0.00     0.077 A 
HETATM   14  C13 UNK     1      18.203   3.389  34.287  1.00  0.00     0.038 A 
HETATM   15  C12 UNK     1      18.842   4.580  33.944  1.00  0.00     0.015 A 
HETATM   16  C4  UNK     1      19.080   4.904  32.598  1.00  0.00    -0.026 A 
HETATM   17  C16 UNK     1      19.724   6.098  32.233  1.00  0.00     0.012 A 
HETATM   18  C3  UNK     1      18.664   4.005  31.586  1.00  0.00    -0.023 A 
HETATM   19  C19 UNK     1      19.952   6.402  30.891  1.00  0.00     0.001 A 
HETATM   20  C18 UNK     1      19.541   5.519  29.896  1.00  0.00     0.001 A 
HETATM   21  C15 UNK     1      18.901   4.328  30.240  1.00  0.00     0.012 A 
HETATM   22  C8  UNK     1      18.020   2.811  31.951  1.00  0.00     0.049 A 
ENDBRANCH  12  13
ENDBRANCH   5  12
BRANCH   9  23
HETATM   23  O3  UNK     1      21.162  -4.380  37.003  1.00  0.00    -0.351 OA
BRANCH  23  24
HETATM   24  C20 UNK     1      20.553  -5.666  37.111  1.00  0.00     0.171 C 
HETATM   25  C21 UNK     1      20.575  -6.101  38.561  1.00  0.00     0.034 C 
ENDBRANCH  23  24
ENDBRANCH   9  23
TORSDOF 4
ENDMDL
MODEL 7
REMARK VINA RESULT:      -8.0     22.181     24.562
REMARK  4 active torsions:
REMARK  status: ('A' for Active; 'I' for Inactive)
REMARK    1  A    between atoms: C5_9  and  O1_1 
REMARK    2  A    between atoms: C6_10  and  O1_1 
REMARK    3  A    between atoms: C11_15  and  O3_3 
REMARK    4  A    between atoms: C20_24  and  O3_3 
ROOT
HETATM    1  O2  UNK     1      10.096   4.457   9.990  1.00  0.00    -0.319 OA
HETATM    2  O4  UNK     1       7.554   6.699   7.714  1.00  0.00    -0.284 OA
HETATM    3  C1  UNK     1       9.778   6.049   8.179  1.00  0.00     0.051 A 
HETATM    4  C2  UNK     1      10.594   5.259   8.991  1.00  0.00     0.092 A 
HETATM    5  C6  UNK     1       7.837   5.150   9.481  1.00  0.00     0.149 A 
HETATM    6  C7  UNK     1       8.319   6.030   8.394  1.00  0.00     0.220 A 
HETATM    7  C9  UNK     1      10.341   6.845   7.178  1.00  0.00     0.021 A 
HETATM    8  C10 UNK     1      11.977   5.261   8.805  1.00  0.00     0.075 A 
HETATM    9  C11 UNK     1      12.540   6.055   7.807  1.00  0.00     0.071 A 
HETATM   10  C14 UNK     1      11.724   6.845   6.995  1.00  0.00     0.038 A 
HETATM   11  C17 UNK     1       8.736   4.449  10.179  1.00  0.00     0.184 A 
ENDROOT
BRANCH   5  12
HETATM   12  O1  UNK     1       6.498   5.075   9.743  1.00  0.00    -0.305 OA
BRANCH  12  13
HETATM   13  C5  UNK     1       6.097   4.360  10.829  1.00  0.00     0.077 A 
HETATM   14  C13 UNK     1       5.673   3.043  10.678  1.00  0.00     0.038 A 
HETATM   15  C12 UNK     1       5.261   2.309  11.790  1.00  0.00     0.015 A 
HETATM   16  C4  UNK     1       5.269   2.884  13.072  1.00  0.00    -0.026 A 
HETATM   17  C16 UNK     1       4.859   2.160  14.204  1.00  0.00     0.012 A 
HETATM   18  C3  UNK     1       5.700   4.224  13.226  1.00  0.00    -0.023 A 
HETATM   19  C19 UNK     1       4.874   2.748  15.468  1.00  0.00     0.001 A 
HETATM   20  C18 UNK     1       5.297   4.066  15.619  1.00  0.00     0.001 A 
HETATM   21  C15 UNK     1       5.708   4.800  14.506  1.00  0.00     0.012 A 
HETATM   22  C8  UNK     1       6.110   4.947  12.094  1.00  0.00     0.049 A 
ENDBRANCH  12  13
ENDBRANCH   5  12
BRANCH   9  23
HETATM   23  O3  UNK     1      13.889   6.060   7.623  1.00  0.00    -0.351 OA
BRANCH  23  24
HETATM   24  C20 UNK     1      14.697   5.682   8.737  1.00  0.00     0.171 C 
HETATM   25  C21 UNK     1      15.096   6.926   9.502  1.00  0.00     0.034 C 
ENDBRANCH  23  24
ENDBRANCH   9  23
TORSDOF 4
ENDMDL
MODEL 8
REMARK VINA RESULT:      -8.0      5.596     10.923
REMARK  4 active torsions:
REMARK  status: ('A' for Active; 'I' for Inactive)
REMARK    1  A    between atoms: C5_9  and  O1_1 
REMARK    2  A    between atoms: C6_10  and  O1_1 
REMARK    3  A    between atoms: C11_15  and  O3_3 
REMARK    4  A    between atoms: C20_24  and  O3_3 
ROOT
HETATM    1  O2  UNK     1      20.472  -3.153  33.908  1.00  0.00    -0.319 OA
HETATM    2  O4  UNK     1      18.574  -1.467  37.106  1.00  0.00    -0.284 OA
HETATM    3  C1  UNK     1      19.073  -1.374  34.797  1.00  0.00     0.051 A 
HETATM    4  C2  UNK     1      19.744  -1.999  33.745  1.00  0.00     0.092 A 
HETATM    5  C6  UNK     1      19.938  -3.210  36.265  1.00  0.00     0.149 A 
HETATM    6  C7  UNK     1      19.142  -1.968  36.146  1.00  0.00     0.220 A 
HETATM    7  C9  UNK     1      18.348  -0.201  34.572  1.00  0.00     0.021 A 
HETATM    8  C10 UNK     1      19.693  -1.454  32.462  1.00  0.00     0.075 A 
HETATM    9  C11 UNK     1      18.969  -0.284  32.235  1.00  0.00     0.071 A 
HETATM   10  C14 UNK     1      18.298   0.341  33.287  1.00  0.00     0.038 A 
HETATM   11  C17 UNK     1      20.527  -3.696  35.169  1.00  0.00     0.184 A 
ENDROOT
BRANCH   5  12
HETATM   12  O1  UNK     1      20.049  -3.823  37.481  1.00  0.00    -0.305 OA
BRANCH  12  13
HETATM   13  C5  UNK     1      19.752  -5.149  37.558  1.00  0.00     0.077 A 
HETATM   14  C13 UNK     1      18.730  -5.680  36.777  1.00  0.00     0.038 A 
HETATM   15  C12 UNK     1      18.423  -7.039  36.855  1.00  0.00     0.015 A 
HETATM   16  C4  UNK     1      19.139  -7.887  37.717  1.00  0.00    -0.026 A 
HETATM   17  C16 UNK     1      18.846  -9.257  37.808  1.00  0.00     0.012 A 
HETATM   18  C3  UNK     1      20.180  -7.347  38.511  1.00  0.00    -0.023 A 
HETATM   19  C19 UNK     1      19.567 -10.083  38.669  1.00  0.00     0.001 A 
HETATM   20  C18 UNK     1      20.590  -9.553  39.451  1.00  0.00     0.001 A 
HETATM   21  C15 UNK     1      20.895  -8.194  39.373  1.00  0.00     0.012 A 
HETATM   22  C8  UNK     1      20.473  -5.977  38.420  1.00  0.00     0.049 A 
ENDBRANCH  12  13
ENDBRANCH   5  12
BRANCH   9  23
HETATM   23  O3  UNK     1      18.917   0.251  30.984  1.00  0.00    -0.351 OA
BRANCH  23  24
HETATM   24  C20 UNK     1      20.144   0.326  30.258  1.00  0.00     0.171 C 
HETATM   25  C21 UNK     1      19.969  -0.363  28.922  1.00  0.00     0.034 C 
ENDBRANCH  23  24
ENDBRANCH   9  23
TORSDOF 4
ENDMDL
MODEL 9
REMARK VINA RESULT:      -8.0      6.796      9.801
REMARK  4 active torsions:
REMARK  status: ('A' for Active; 'I' for Inactive)
REMARK    1  A    between atoms: C5_9  and  O1_1 
REMARK    2  A    between atoms: C6_10  and  O1_1 
REMARK    3  A    between atoms: C11_15  and  O3_3 
REMARK    4  A    between atoms: C20_24  and  O3_3 
ROOT
HETATM    1  O2  UNK     1      18.967  -6.242  37.069  1.00  0.00    -0.319 OA
HETATM    2  O4  UNK     1      22.657  -4.785  38.038  1.00  0.00    -0.284 OA
HETATM    3  C1  UNK     1      21.073  -6.527  38.251  1.00  0.00     0.051 A 
HETATM    4  C2  UNK     1      19.801  -6.970  37.884  1.00  0.00     0.092 A 
HETATM    5  C6  UNK     1      20.615  -4.483  36.878  1.00  0.00     0.149 A 
HETATM    6  C7  UNK     1      21.552  -5.226  37.751  1.00  0.00     0.220 A 
HETATM    7  C9  UNK     1      21.878  -7.311  39.083  1.00  0.00     0.021 A 
HETATM    8  C10 UNK     1      19.328  -8.198  38.345  1.00  0.00     0.075 A 
HETATM    9  C11 UNK     1      20.129  -8.981  39.175  1.00  0.00     0.071 A 
HETATM   10  C14 UNK     1      21.401  -8.539  39.543  1.00  0.00     0.038 A 
HETATM   11  C17 UNK     1      19.426  -5.031  36.610  1.00  0.00     0.184 A 
ENDROOT
BRANCH   5  12
HETATM   12  O1  UNK     1      20.985  -3.270  36.372  1.00  0.00    -0.305 OA
BRANCH  12  13
HETATM   13  C5  UNK     1      20.005  -2.435  35.930  1.00  0.00     0.077 A 
HETATM   14  C13 UNK     1      19.874  -2.174  34.569  1.00  0.00     0.038 A 
HETATM   15  C12 UNK     1      18.871  -1.318  34.114  1.00  0.00     0.015 A 
HETATM   16  C4  UNK     1      17.981  -0.712  35.018  1.00  0.00    -0.026 A 
HETATM   17  C16 UNK     1      16.964   0.151  34.578  1.00  0.00     0.012 A 
HETATM   18  C3  UNK     1      18.113  -0.979  36.402  1.00  0.00    -0.023 A 
HETATM   19  C19 UNK     1      16.091   0.743  35.490  1.00  0.00     0.001 A 
HETATM   20  C18 UNK     1      16.221   0.482  36.851  1.00  0.00     0.001 A 
HETATM   21  C15 UNK     1      17.225  -0.373  37.305  1.00  0.00     0.012 A 
HETATM   22  C8  UNK     1      19.131  -1.842  36.841  1.00  0.00     0.049 A 
ENDBRANCH  12  13
ENDBRANCH   5  12
BRANCH   9  23
HETATM   23  O3  UNK     1      19.670 -10.180  39.629  1.00  0.00    -0.351 OA
BRANCH  23  24
HETATM   24  C20 UNK     1      19.289 -11.143  38.647  1.00  0.00     0.171 C 
HETATM   25  C21 UNK     1      20.336 -11.174  37.554  1.00  0.00     0.034 C 
ENDBRANCH  23  24
ENDBRANCH   9  23
TORSDOF 4
ENDMDL
MODEL 10
REMARK VINA RESULT:      -8.0      1.656      8.281
REMARK  4 active torsions:
REMARK  status: ('A' for Active; 'I' for Inactive)
REMARK    1  A    between atoms: C5_9  and  O1_1 
REMARK    2  A    between atoms: C6_10  and  O1_1 
REMARK    3  A    between atoms: C11_15  and  O3_3 
REMARK    4  A    between atoms: C20_24  and  O3_3 
ROOT
HETATM    1  O2  UNK     1      17.873   3.300  32.905  1.00  0.00    -0.319 OA
HETATM    2  O4  UNK     1      19.355   4.813  29.414  1.00  0.00    -0.284 OA
HETATM    3  C1  UNK     1      18.693   5.214  31.648  1.00  0.00     0.051 A 
HETATM    4  C2  UNK     1      18.184   4.636  32.813  1.00  0.00     0.092 A 
HETATM    5  C6  UNK     1      18.561   2.935  30.617  1.00  0.00     0.149 A 
HETATM    6  C7  UNK     1      18.911   4.364  30.462  1.00  0.00     0.220 A 
HETATM    7  C9  UNK     1      18.991   6.579  31.611  1.00  0.00     0.021 A 
HETATM    8  C10 UNK     1      17.970   5.420  33.946  1.00  0.00     0.075 A 
HETATM    9  C11 UNK     1      18.267   6.783  33.911  1.00  0.00     0.071 A 
HETATM   10  C14 UNK     1      18.776   7.360  32.747  1.00  0.00     0.038 A 
HETATM   11  C17 UNK     1      18.081   2.521  31.794  1.00  0.00     0.184 A 
ENDROOT
BRANCH   5  12
HETATM   12  O1  UNK     1      18.735   2.081  29.565  1.00  0.00    -0.305 OA
BRANCH  12  13
HETATM   13  C5  UNK     1      19.271   0.856  29.816  1.00  0.00     0.077 A 
HETATM   14  C13 UNK     1      19.761   0.082  28.768  1.00  0.00     0.038 A 
HETATM   15  C12 UNK     1      20.310  -1.175  29.024  1.00  0.00     0.015 A 
HETATM   16  C4  UNK     1      20.378  -1.674  30.335  1.00  0.00    -0.026 A 
HETATM   17  C16 UNK     1      20.928  -2.936  30.612  1.00  0.00     0.012 A 
HETATM   18  C3  UNK     1      19.880  -0.887  31.401  1.00  0.00    -0.023 A 
HETATM   19  C19 UNK     1      20.987  -3.415  31.921  1.00  0.00     0.001 A 
HETATM   20  C18 UNK     1      20.496  -2.641  32.969  1.00  0.00     0.001 A 
HETATM   21  C15 UNK     1      19.946  -1.385  32.712  1.00  0.00     0.012 A 
HETATM   22  C8  UNK     1      19.329   0.375  31.124  1.00  0.00     0.049 A 
ENDBRANCH  12  13
ENDBRANCH   5  12
BRANCH   9  23
HETATM   23  O3  UNK     1      18.059   7.552  35.015  1.00  0.00    -0.351 OA
BRANCH  23  24
HETATM   24  C20 UNK     1      16.709   7.908  35.313  1.00  0.00     0.171 C 
HETATM   25  C21 UNK     1      16.396   9.239  34.664  1.00  0.00     0.034 C 
ENDBRANCH  23  24
ENDBRANCH   9  23
TORSDOF 4
ENDMDL
