MODEL 1
REMARK VINA RESULT:      -8.3      0.000      0.000
REMARK  2 active torsions:
REMARK  status: ('A' for Active; 'I' for Inactive)
REMARK       I    between atoms: C7_14  and  N1_4 
REMARK    1  A    between atoms: N1_4  and  N2_5 
REMARK    2  A    between atoms: C2_9  and  C7_14 
ROOT
HETATM    1  O1  UNK     1      19.039   1.418  28.657  1.00  0.00    -0.274 OA
HETATM    2  O3  UNK     1      18.238   3.558  28.662  1.00  0.00    -0.259 OA
HETATM    3  C1  UNK     1      19.537   0.318  30.767  1.00  0.00    -0.001 A 
HETATM    4  C2  UNK     1      18.687   2.587  30.776  1.00  0.00     0.110 A 
HETATM    5  C3  UNK     1      19.490   0.295  29.377  1.00  0.00     0.089 A 
HETATM    6  C4  UNK     1      19.114   1.522  31.465  1.00  0.00     0.037 A 
HETATM    7  C5  UNK     1      19.989  -0.816  31.446  1.00  0.00     0.014 A 
HETATM    8  C6  UNK     1      18.628   2.584  29.297  1.00  0.00     0.304 A 
HETATM    9  C8  UNK     1      19.881  -0.827  28.648  1.00  0.00     0.038 A 
HETATM   10  C9  UNK     1      20.385  -1.949  30.728  1.00  0.00     0.001 A 
HETATM   11  C10 UNK     1      20.330  -1.954  29.333  1.00  0.00     0.003 A 
ENDROOT
BRANCH   4  12
HETATM   12  C7  UNK     1      18.282   3.754  31.569  1.00  0.00     0.276 C 
HETATM   13  O2  UNK     1      17.586   3.625  32.575  1.00  0.00    -0.266 OA
HETATM   14  N1  UNK     1      18.767   4.940  31.049  1.00  0.00    -0.257 N 
HETATM   15  H4  UNK     1      19.318   5.012  30.201  1.00  0.00     0.191 HD
BRANCH  14  16
HETATM   16  N2  UNK     1      18.480   6.124  31.669  1.00  0.00    -0.237 N 
HETATM   17  C11 UNK     1      17.429   6.924  31.409  1.00  0.00     0.258 A 
HETATM   18  N3  UNK     1      17.485   7.966  32.206  1.00  0.00    -0.142 NA
HETATM   19  N4  UNK     1      18.608   7.824  32.997  1.00  0.00    -0.142 NA
HETATM   20  C12 UNK     1      19.193   6.700  32.653  1.00  0.00     0.258 A 
ENDBRANCH  14  16
ENDBRANCH   4  12
TORSDOF 2
ENDMDL
MODEL 2
REMARK VINA RESULT:      -8.1      8.422     10.623
REMARK  2 active torsions:
REMARK  status: ('A' for Active; 'I' for Inactive)
REMARK       I    between atoms: C7_14  and  N1_4 
REMARK    1  A    between atoms: N1_4  and  N2_5 
REMARK    2  A    between atoms: C2_9  and  C7_14 
ROOT
HETATM    1  O1  UNK     1      19.617  -0.925  34.828  1.00  0.00    -0.274 OA
HETATM    2  O3  UNK     1      20.603  -2.869  34.145  1.00  0.00    -0.259 OA
HETATM    3  C1  UNK     1      18.452  -0.856  36.961  1.00  0.00    -0.001 A 
HETATM    4  C2  UNK     1      19.498  -2.918  36.240  1.00  0.00     0.110 A 
HETATM    5  C3  UNK     1      18.873  -0.222  35.797  1.00  0.00     0.089 A 
HETATM    6  C4  UNK     1      18.791  -2.256  37.163  1.00  0.00     0.037 A 
HETATM    7  C5  UNK     1      17.718  -0.125  37.899  1.00  0.00     0.014 A 
HETATM    8  C6  UNK     1      19.957  -2.264  34.993  1.00  0.00     0.304 A 
HETATM    9  C8  UNK     1      18.581   1.117  35.543  1.00  0.00     0.038 A 
HETATM   10  C9  UNK     1      17.417   1.219  37.658  1.00  0.00     0.001 A 
HETATM   11  C10 UNK     1      17.848   1.838  36.483  1.00  0.00     0.003 A 
ENDROOT
BRANCH   4  12
HETATM   12  C7  UNK     1      19.790  -4.326  36.532  1.00  0.00     0.276 C 
HETATM   13  O2  UNK     1      20.938  -4.699  36.768  1.00  0.00    -0.266 OA
HETATM   14  N1  UNK     1      18.657  -5.119  36.503  1.00  0.00    -0.257 N 
HETATM   15  H4  UNK     1      17.727  -4.782  36.280  1.00  0.00     0.191 HD
BRANCH  14  16
HETATM   16  N2  UNK     1      18.755  -6.459  36.754  1.00  0.00    -0.237 N 
HETATM   17  C11 UNK     1      18.837  -7.037  37.967  1.00  0.00     0.258 A 
HETATM   18  N3  UNK     1      18.914  -8.338  37.810  1.00  0.00    -0.142 NA
HETATM   19  N4  UNK     1      18.879  -8.595  36.454  1.00  0.00    -0.142 NA
HETATM   20  C12 UNK     1      18.783  -7.440  35.836  1.00  0.00     0.258 A 
ENDBRANCH  14  16
ENDBRANCH   4  12
TORSDOF 2
ENDMDL
MODEL 3
REMARK VINA RESULT:      -8.0      2.811      7.206
REMARK  2 active torsions:
REMARK  status: ('A' for Active; 'I' for Inactive)
REMARK       I    between atoms: C7_14  and  N1_4 
REMARK    1  A    between atoms: N1_4  and  N2_5 
REMARK    2  A    between atoms: C2_9  and  C7_14 
ROOT
HETATM    1  O1  UNK     1      19.423   7.204  32.465  1.00  0.00    -0.274 OA
HETATM    2  O3  UNK     1      20.510   5.529  31.355  1.00  0.00    -0.259 OA
HETATM    3  C1  UNK     1      17.136   6.860  33.215  1.00  0.00    -0.001 A 
HETATM    4  C2  UNK     1      18.286   5.081  32.039  1.00  0.00     0.110 A 
HETATM    5  C3  UNK     1      18.261   7.672  33.109  1.00  0.00     0.089 A 
HETATM    6  C4  UNK     1      17.180   5.521  32.650  1.00  0.00     0.037 A 
HETATM    7  C5  UNK     1      16.003   7.359  33.862  1.00  0.00     0.014 A 
HETATM    8  C6  UNK     1      19.495   5.928  31.915  1.00  0.00     0.304 A 
HETATM    9  C8  UNK     1      18.285   8.964  33.629  1.00  0.00     0.038 A 
HETATM   10  C9  UNK     1      16.012   8.653  34.389  1.00  0.00     0.001 A 
HETATM   11  C10 UNK     1      17.150   9.454  34.273  1.00  0.00     0.003 A 
ENDROOT
BRANCH   4  12
HETATM   12  C7  UNK     1      18.233   3.717  31.500  1.00  0.00     0.276 C 
HETATM   13  O2  UNK     1      17.786   2.789  32.172  1.00  0.00    -0.266 OA
HETATM   14  N1  UNK     1      18.728   3.637  30.212  1.00  0.00    -0.257 N 
HETATM   15  H4  UNK     1      19.113   4.421  29.695  1.00  0.00     0.191 HD
BRANCH  14  16
HETATM   16  N2  UNK     1      18.751   2.434  29.563  1.00  0.00    -0.237 N 
HETATM   17  C11 UNK     1      17.951   2.065  28.546  1.00  0.00     0.258 A 
HETATM   18  N3  UNK     1      18.269   0.845  28.180  1.00  0.00    -0.142 NA
HETATM   19  N4  UNK     1      19.305   0.426  28.991  1.00  0.00    -0.142 NA
HETATM   20  C12 UNK     1      19.578   1.407  29.820  1.00  0.00     0.258 A 
ENDBRANCH  14  16
ENDBRANCH   4  12
TORSDOF 2
ENDMDL
MODEL 4
REMARK VINA RESULT:      -8.0      1.415      2.438
REMARK  2 active torsions:
REMARK  status: ('A' for Active; 'I' for Inactive)
REMARK       I    between atoms: C7_14  and  N1_4 
REMARK    1  A    between atoms: N1_4  and  N2_5 
REMARK    2  A    between atoms: C2_9  and  C7_14 
ROOT
HETATM    1  O1  UNK     1      18.715   0.783  32.643  1.00  0.00    -0.274 OA
HETATM    2  O3  UNK     1      17.914   2.695  33.603  1.00  0.00    -0.259 OA
HETATM    3  C1  UNK     1      19.466   0.825  30.330  1.00  0.00    -0.001 A 
HETATM    4  C2  UNK     1      18.618   2.854  31.346  1.00  0.00     0.110 A 
HETATM    5  C3  UNK     1      19.251   0.129  31.516  1.00  0.00     0.089 A 
HETATM    6  C4  UNK     1      19.126   2.238  30.273  1.00  0.00     0.037 A 
HETATM    7  C5  UNK     1      20.001   0.142  29.235  1.00  0.00     0.014 A 
HETATM    8  C6  UNK     1      18.381   2.133  32.618  1.00  0.00     0.304 A 
HETATM    9  C8  UNK     1      19.555  -1.226  31.637  1.00  0.00     0.038 A 
HETATM   10  C9  UNK     1      20.310  -1.217  29.341  1.00  0.00     0.001 A 
HETATM   11  C10 UNK     1      20.087  -1.899  30.539  1.00  0.00     0.003 A 
ENDROOT
BRANCH   4  12
HETATM   12  C7  UNK     1      18.306   4.280  31.190  1.00  0.00     0.276 C 
HETATM   13  O2  UNK     1      18.664   4.899  30.189  1.00  0.00    -0.266 OA
HETATM   14  N1  UNK     1      17.601   4.788  32.265  1.00  0.00    -0.257 N 
HETATM   15  H4  UNK     1      17.343   4.254  33.087  1.00  0.00     0.191 HD
BRANCH  14  16
HETATM   16  N2  UNK     1      17.232   6.105  32.277  1.00  0.00    -0.237 N 
HETATM   17  C11 UNK     1      18.028   7.151  32.564  1.00  0.00     0.258 A 
HETATM   18  N3  UNK     1      17.324   8.255  32.470  1.00  0.00    -0.142 NA
HETATM   19  N4  UNK     1      16.039   7.898  32.112  1.00  0.00    -0.142 NA
HETATM   20  C12 UNK     1      16.009   6.590  32.001  1.00  0.00     0.258 A 
ENDBRANCH  14  16
ENDBRANCH   4  12
TORSDOF 2
ENDMDL
MODEL 5
REMARK VINA RESULT:      -7.9     14.250     16.691
REMARK  2 active torsions:
REMARK  status: ('A' for Active; 'I' for Inactive)
REMARK       I    between atoms: C7_14  and  N1_4 
REMARK    1  A    between atoms: N1_4  and  N2_5 
REMARK    2  A    between atoms: C2_9  and  C7_14 
ROOT
HETATM    1  O1  UNK     1      19.284   1.139  15.639  1.00  0.00    -0.274 OA
HETATM    2  O3  UNK     1      19.520  -0.341  13.914  1.00  0.00    -0.259 OA
HETATM    3  C1  UNK     1      18.948   0.305  17.898  1.00  0.00    -0.001 A 
HETATM    4  C2  UNK     1      19.200  -1.267  16.072  1.00  0.00     0.110 A 
HETATM    5  C3  UNK     1      19.085   1.370  17.014  1.00  0.00     0.089 A 
HETATM    6  C4  UNK     1      19.012  -1.052  17.379  1.00  0.00     0.037 A 
HETATM    7  C5  UNK     1      18.755   0.575  19.255  1.00  0.00     0.014 A 
HETATM    8  C6  UNK     1      19.349  -0.148  15.113  1.00  0.00     0.304 A 
HETATM    9  C8  UNK     1      19.034   2.694  17.446  1.00  0.00     0.038 A 
HETATM   10  C9  UNK     1      18.701   1.898  19.704  1.00  0.00     0.001 A 
HETATM   11  C10 UNK     1      18.840   2.955  18.801  1.00  0.00     0.003 A 
ENDROOT
BRANCH   4  12
HETATM   12  C7  UNK     1      19.249  -2.670  15.644  1.00  0.00     0.276 C 
HETATM   13  O2  UNK     1      18.246  -3.380  15.690  1.00  0.00    -0.266 OA
HETATM   14  N1  UNK     1      20.507  -3.049  15.213  1.00  0.00    -0.257 N 
HETATM   15  H4  UNK     1      21.320  -2.442  15.213  1.00  0.00     0.191 HD
BRANCH  14  16
HETATM   16  N2  UNK     1      20.724  -4.327  14.781  1.00  0.00    -0.237 N 
HETATM   17  C11 UNK     1      20.437  -4.812  13.559  1.00  0.00     0.258 A 
HETATM   18  N3  UNK     1      20.790  -6.076  13.513  1.00  0.00    -0.142 NA
HETATM   19  N4  UNK     1      21.319  -6.404  14.746  1.00  0.00    -0.142 NA
HETATM   20  C12 UNK     1      21.268  -5.327  15.496  1.00  0.00     0.258 A 
ENDBRANCH  14  16
ENDBRANCH   4  12
TORSDOF 2
ENDMDL
MODEL 6
REMARK VINA RESULT:      -7.9      4.335      5.123
REMARK  2 active torsions:
REMARK  status: ('A' for Active; 'I' for Inactive)
REMARK       I    between atoms: C7_14  and  N1_4 
REMARK    1  A    between atoms: N1_4  and  N2_5 
REMARK    2  A    between atoms: C2_9  and  C7_14 
ROOT
HETATM    1  O1  UNK     1      18.969   1.535  30.848  1.00  0.00    -0.274 OA
HETATM    2  O3  UNK     1      17.878   2.755  32.442  1.00  0.00    -0.259 OA
HETATM    3  C1  UNK     1      19.559  -0.779  31.303  1.00  0.00    -0.001 A 
HETATM    4  C2  UNK     1      18.401   0.511  32.995  1.00  0.00     0.110 A 
HETATM    5  C3  UNK     1      19.553   0.318  30.447  1.00  0.00     0.089 A 
HETATM    6  C4  UNK     1      18.954  -0.648  32.619  1.00  0.00     0.037 A 
HETATM    7  C5  UNK     1      20.146  -1.970  30.868  1.00  0.00     0.014 A 
HETATM    8  C6  UNK     1      18.383   1.691  32.101  1.00  0.00     0.304 A 
HETATM    9  C8  UNK     1      20.116   0.258  29.173  1.00  0.00     0.038 A 
HETATM   10  C9  UNK     1      20.715  -2.045  29.593  1.00  0.00     0.001 A 
HETATM   11  C10 UNK     1      20.699  -0.933  28.748  1.00  0.00     0.003 A 
ENDROOT
BRANCH   4  12
HETATM   12  C7  UNK     1      17.817   0.546  34.341  1.00  0.00     0.276 C 
HETATM   13  O2  UNK     1      16.598   0.563  34.501  1.00  0.00    -0.266 OA
HETATM   14  N1  UNK     1      18.778   0.557  35.335  1.00  0.00    -0.257 N 
HETATM   15  H4  UNK     1      19.778   0.568  35.166  1.00  0.00     0.191 HD
BRANCH  14  16
HETATM   16  N2  UNK     1      18.401   0.590  36.648  1.00  0.00    -0.237 N 
HETATM   17  C11 UNK     1      18.264  -0.473  37.462  1.00  0.00     0.258 A 
HETATM   18  N3  UNK     1      17.893  -0.050  38.649  1.00  0.00    -0.142 NA
HETATM   19  N4  UNK     1      17.791   1.326  38.586  1.00  0.00    -0.142 NA
HETATM   20  C12 UNK     1      18.104   1.689  37.363  1.00  0.00     0.258 A 
ENDBRANCH  14  16
ENDBRANCH   4  12
TORSDOF 2
ENDMDL
MODEL 7
REMARK VINA RESULT:      -7.8      9.069     10.742
REMARK  2 active torsions:
REMARK  status: ('A' for Active; 'I' for Inactive)
REMARK       I    between atoms: C7_14  and  N1_4 
REMARK    1  A    between atoms: N1_4  and  N2_5 
REMARK    2  A    between atoms: C2_9  and  C7_14 
ROOT
HETATM    1  O1  UNK     1      20.070  -8.057  35.671  1.00  0.00    -0.274 OA
HETATM    2  O3  UNK     1      20.285  -6.133  34.459  1.00  0.00    -0.259 OA
HETATM    3  C1  UNK     1      19.864  -7.934  38.091  1.00  0.00    -0.001 A 
HETATM    4  C2  UNK     1      20.090  -5.892  36.808  1.00  0.00     0.110 A 
HETATM    5  C3  UNK     1      19.925  -8.687  36.923  1.00  0.00     0.089 A 
HETATM    6  C4  UNK     1      19.953  -6.485  37.999  1.00  0.00     0.037 A 
HETATM    7  C5  UNK     1      19.718  -8.595  39.313  1.00  0.00     0.014 A 
HETATM    8  C6  UNK     1      20.158  -6.673  35.552  1.00  0.00     0.304 A 
HETATM    9  C8  UNK     1      19.846 -10.078  36.942  1.00  0.00     0.038 A 
HETATM   10  C9  UNK     1      19.638  -9.990  39.348  1.00  0.00     0.001 A 
HETATM   11  C10 UNK     1      19.701 -10.730  38.165  1.00  0.00     0.003 A 
ENDROOT
BRANCH   4  12
HETATM   12  C7  UNK     1      20.172  -4.426  36.818  1.00  0.00     0.276 C 
HETATM   13  O2  UNK     1      21.206  -3.853  37.159  1.00  0.00    -0.266 OA
HETATM   14  N1  UNK     1      18.993  -3.827  36.415  1.00  0.00    -0.257 N 
HETATM   15  H4  UNK     1      18.150  -4.332  36.164  1.00  0.00     0.191 HD
BRANCH  14  16
HETATM   16  N2  UNK     1      18.901  -2.464  36.369  1.00  0.00    -0.237 N 
HETATM   17  C11 UNK     1      19.441  -1.663  35.432  1.00  0.00     0.258 A 
HETATM   18  N3  UNK     1      19.138  -0.417  35.717  1.00  0.00    -0.142 NA
HETATM   19  N4  UNK     1      18.381  -0.429  36.872  1.00  0.00    -0.142 NA
HETATM   20  C12 UNK     1      18.252  -1.680  37.247  1.00  0.00     0.258 A 
ENDBRANCH  14  16
ENDBRANCH   4  12
TORSDOF 2
ENDMDL
MODEL 8
REMARK VINA RESULT:      -7.7      2.732      7.472
REMARK  2 active torsions:
REMARK  status: ('A' for Active; 'I' for Inactive)
REMARK       I    between atoms: C7_14  and  N1_4 
REMARK    1  A    between atoms: N1_4  and  N2_5 
REMARK    2  A    between atoms: C2_9  and  C7_14 
ROOT
HETATM    1  O1  UNK     1      17.579   5.654  34.437  1.00  0.00    -0.274 OA
HETATM    2  O3  UNK     1      18.575   3.673  33.889  1.00  0.00    -0.259 OA
HETATM    3  C1  UNK     1      17.010   7.237  32.681  1.00  0.00    -0.001 A 
HETATM    4  C2  UNK     1      18.065   5.136  32.097  1.00  0.00     0.110 A 
HETATM    5  C3  UNK     1      17.037   6.888  34.028  1.00  0.00     0.089 A 
HETATM    6  C4  UNK     1      17.551   6.307  31.703  1.00  0.00     0.037 A 
HETATM    7  C5  UNK     1      16.462   8.469  32.315  1.00  0.00     0.014 A 
HETATM    8  C6  UNK     1      18.104   4.744  33.524  1.00  0.00     0.304 A 
HETATM    9  C8  UNK     1      16.535   7.734  35.015  1.00  0.00     0.038 A 
HETATM   10  C9  UNK     1      15.955   9.328  33.294  1.00  0.00     0.001 A 
HETATM   11  C10 UNK     1      15.991   8.961  34.641  1.00  0.00     0.003 A 
ENDROOT
BRANCH   4  12
HETATM   12  C7  UNK     1      18.587   4.267  31.036  1.00  0.00     0.276 C 
HETATM   13  O2  UNK     1      19.454   4.666  30.260  1.00  0.00    -0.266 OA
HETATM   14  N1  UNK     1      17.998   3.016  31.039  1.00  0.00    -0.257 N 
HETATM   15  H4  UNK     1      17.267   2.728  31.680  1.00  0.00     0.191 HD
BRANCH  14  16
HETATM   16  N2  UNK     1      18.372   2.083  30.113  1.00  0.00    -0.237 N 
HETATM   17  C11 UNK     1      19.284   1.109  30.289  1.00  0.00     0.258 A 
HETATM   18  N3  UNK     1      19.372   0.408  29.182  1.00  0.00    -0.142 NA
HETATM   19  N4  UNK     1      18.488   0.955  28.273  1.00  0.00    -0.142 NA
HETATM   20  C12 UNK     1      17.895   1.968  28.861  1.00  0.00     0.258 A 
ENDBRANCH  14  16
ENDBRANCH   4  12
TORSDOF 2
ENDMDL
MODEL 9
REMARK VINA RESULT:      -7.7      4.329      6.488
REMARK  2 active torsions:
REMARK  status: ('A' for Active; 'I' for Inactive)
REMARK       I    between atoms: C7_14  and  N1_4 
REMARK    1  A    between atoms: N1_4  and  N2_5 
REMARK    2  A    between atoms: C2_9  and  C7_14 
ROOT
HETATM    1  O1  UNK     1      18.982   2.544  30.754  1.00  0.00    -0.274 OA
HETATM    2  O3  UNK     1      18.799   0.380  31.464  1.00  0.00    -0.259 OA
HETATM    3  C1  UNK     1      18.329   4.353  32.241  1.00  0.00    -0.001 A 
HETATM    4  C2  UNK     1      18.135   2.060  32.997  1.00  0.00     0.110 A 
HETATM    5  C3  UNK     1      18.822   3.919  31.015  1.00  0.00     0.089 A 
HETATM    6  C4  UNK     1      17.981   3.365  33.249  1.00  0.00     0.037 A 
HETATM    7  C5  UNK     1      18.186   5.725  32.463  1.00  0.00     0.014 A 
HETATM    8  C6  UNK     1      18.657   1.575  31.699  1.00  0.00     0.304 A 
HETATM    9  C8  UNK     1      19.174   4.814  30.007  1.00  0.00     0.038 A 
HETATM   10  C9  UNK     1      18.534   6.635  31.461  1.00  0.00     0.001 A 
HETATM   11  C10 UNK     1      19.027   6.181  30.236  1.00  0.00     0.003 A 
ENDROOT
BRANCH   4  12
HETATM   12  C7  UNK     1      17.755   1.140  34.076  1.00  0.00     0.276 C 
HETATM   13  O2  UNK     1      16.583   0.802  34.236  1.00  0.00    -0.266 OA
HETATM   14  N1  UNK     1      18.839   0.738  34.835  1.00  0.00    -0.257 N 
HETATM   15  H4  UNK     1      19.791   1.057  34.689  1.00  0.00     0.191 HD
BRANCH  14  16
HETATM   16  N2  UNK     1      18.657  -0.121  35.882  1.00  0.00    -0.237 N 
HETATM   17  C11 UNK     1      19.001  -1.421  35.913  1.00  0.00     0.258 A 
HETATM   18  N3  UNK     1      18.676  -1.916  37.085  1.00  0.00    -0.142 NA
HETATM   19  N4  UNK     1      18.107  -0.897  37.822  1.00  0.00    -0.142 NA
HETATM   20  C12 UNK     1      18.108   0.181  37.072  1.00  0.00     0.258 A 
ENDBRANCH  14  16
ENDBRANCH   4  12
TORSDOF 2
ENDMDL
MODEL 10
REMARK VINA RESULT:      -7.7     13.236     15.092
REMARK  2 active torsions:
REMARK  status: ('A' for Active; 'I' for Inactive)
REMARK       I    between atoms: C7_14  and  N1_4 
REMARK    1  A    between atoms: N1_4  and  N2_5 
REMARK    2  A    between atoms: C2_9  and  C7_14 
ROOT
HETATM    1  O1  UNK     1      19.645  -0.427  13.854  1.00  0.00    -0.274 OA
HETATM    2  O3  UNK     1      19.655   1.334  15.308  1.00  0.00    -0.259 OA
HETATM    3  C1  UNK     1      18.877  -2.606  14.613  1.00  0.00    -0.001 A 
HETATM    4  C2  UNK     1      18.885  -0.739  16.157  1.00  0.00     0.110 A 
HETATM    5  C3  UNK     1      19.380  -1.788  13.605  1.00  0.00     0.089 A 
HETATM    6  C4  UNK     1      18.631  -2.033  15.926  1.00  0.00     0.037 A 
HETATM    7  C5  UNK     1      18.625  -3.950  14.327  1.00  0.00     0.014 A 
HETATM    8  C6  UNK     1      19.420   0.149  15.100  1.00  0.00     0.304 A 
HETATM    9  C8  UNK     1      19.637  -2.275  12.325  1.00  0.00     0.038 A 
HETATM   10  C9  UNK     1      18.878  -4.452  13.047  1.00  0.00     0.001 A 
HETATM   11  C10 UNK     1      19.383  -3.617  12.049  1.00  0.00     0.003 A 
ENDROOT
BRANCH   4  12
HETATM   12  C7  UNK     1      18.606  -0.254  17.514  1.00  0.00     0.276 C 
HETATM   13  O2  UNK     1      17.548  -0.528  18.078  1.00  0.00    -0.266 OA
HETATM   14  N1  UNK     1      19.640   0.506  18.027  1.00  0.00    -0.257 N 
HETATM   15  H4  UNK     1      20.491   0.733  17.523  1.00  0.00     0.191 HD
BRANCH  14  16
HETATM   16  N2  UNK     1      19.539   1.036  19.283  1.00  0.00    -0.237 N 
HETATM   17  C11 UNK     1      19.810   0.400  20.438  1.00  0.00     0.258 A 
HETATM   18  N3  UNK     1      19.602   1.229  21.435  1.00  0.00    -0.142 NA
HETATM   19  N4  UNK     1      19.186   2.430  20.895  1.00  0.00    -0.142 NA
HETATM   20  C12 UNK     1      19.156   2.287  19.590  1.00  0.00     0.258 A 
ENDBRANCH  14  16
ENDBRANCH   4  12
TORSDOF 2
ENDMDL
