MODEL 1
REMARK VINA RESULT:      -7.7      0.000      0.000
REMARK  8 active torsions:
REMARK  status: ('A' for Active; 'I' for Inactive)
REMARK    1  A    between atoms: C6_10  and  S1_1 
REMARK    2  A    between atoms: C9_13  and  S1_1 
REMARK    3  A    between atoms: C1_5  and  C2_6 
REMARK    4  A    between atoms: C1_5  and  C3_7 
REMARK    5  A    between atoms: C2_6  and  C4_8 
REMARK    6  A    between atoms: C3_7  and  C5_9 
REMARK    7  A    between atoms: C4_8  and  C6_10 
REMARK    8  A    between atoms: C8_12  and  C9_13 
ROOT
HETATM    1  O1  UNK     1      18.747   0.394  32.674  1.00  0.00    -0.274 OA
HETATM    2  O3  UNK     1      17.830   2.232  33.676  1.00  0.00    -0.259 OA
HETATM    3  C8  UNK     1      18.553   2.493  31.434  1.00  0.00     0.097 A 
HETATM    4  C10 UNK     1      19.523   0.542  30.375  1.00  0.00    -0.001 A 
HETATM    5  C11 UNK     1      19.108   1.937  30.351  1.00  0.00     0.036 A 
HETATM    6  C12 UNK     1      19.333  -0.197  31.537  1.00  0.00     0.089 A 
HETATM    7  C13 UNK     1      18.340   1.726  32.682  1.00  0.00     0.303 A 
HETATM    8  C14 UNK     1      20.108  -0.079  29.269  1.00  0.00     0.014 A 
HETATM    9  C15 UNK     1      19.708  -1.536  31.625  1.00  0.00     0.038 A 
HETATM   10  C16 UNK     1      20.489  -1.422  29.342  1.00  0.00     0.001 A 
HETATM   11  C17 UNK     1      20.289  -2.148  30.517  1.00  0.00     0.003 A 
ENDROOT
BRANCH   3  12
HETATM   12  C9  UNK     1      18.167   3.907  31.313  1.00  0.00     0.225 C 
HETATM   13  O2  UNK     1      17.413   4.446  32.112  1.00  0.00    -0.280 OA
BRANCH  12  14
HETATM   14  S1  UNK     1      18.891   4.704  29.932  1.00  0.00    -0.087 SA
BRANCH  14  15
HETATM   15  C6  UNK     1      19.584   6.177  30.739  1.00  0.00     0.082 C 
BRANCH  15  16
HETATM   16  C4  UNK     1      20.913   5.845  31.413  1.00  0.00     0.010 C 
BRANCH  16  17
HETATM   17  C2  UNK     1      21.053   6.478  32.803  1.00  0.00     0.001 C 
BRANCH  17  18
HETATM   18  C1  UNK     1      19.712   6.740  33.490  1.00  0.00     0.000 C 
BRANCH  18  19
HETATM   19  C3  UNK     1      19.682   8.127  34.137  1.00  0.00    -0.000 C 
BRANCH  19  20
HETATM   20  C5  UNK     1      18.267   8.705  34.150  1.00  0.00    -0.005 C 
HETATM   21  C7  UNK     1      17.481   8.286  32.919  1.00  0.00     0.005 C 
ENDBRANCH  19  20
ENDBRANCH  18  19
ENDBRANCH  17  18
ENDBRANCH  16  17
ENDBRANCH  15  16
ENDBRANCH  14  15
ENDBRANCH  12  14
ENDBRANCH   3  12
TORSDOF 8
ENDMDL
MODEL 2
REMARK VINA RESULT:      -7.5      1.461      7.945
REMARK  8 active torsions:
REMARK  status: ('A' for Active; 'I' for Inactive)
REMARK    1  A    between atoms: C6_10  and  S1_1 
REMARK    2  A    between atoms: C9_13  and  S1_1 
REMARK    3  A    between atoms: C1_5  and  C2_6 
REMARK    4  A    between atoms: C1_5  and  C3_7 
REMARK    5  A    between atoms: C2_6  and  C4_8 
REMARK    6  A    between atoms: C3_7  and  C5_9 
REMARK    7  A    between atoms: C4_8  and  C6_10 
REMARK    8  A    between atoms: C8_12  and  C9_13 
ROOT
HETATM    1  O1  UNK     1      16.926   7.864  32.848  1.00  0.00    -0.274 OA
HETATM    2  O3  UNK     1      15.832   6.068  31.953  1.00  0.00    -0.259 OA
HETATM    3  C8  UNK     1      18.098   5.737  32.560  1.00  0.00     0.097 A 
HETATM    4  C10 UNK     1      19.254   7.642  33.510  1.00  0.00    -0.001 A 
HETATM    5  C11 UNK     1      19.221   6.255  33.072  1.00  0.00     0.036 A 
HETATM    6  C12 UNK     1      18.105   8.415  33.387  1.00  0.00     0.089 A 
HETATM    7  C13 UNK     1      16.863   6.539  32.421  1.00  0.00     0.303 A 
HETATM    8  C14 UNK     1      20.404   8.225  34.048  1.00  0.00     0.014 A 
HETATM    9  C15 UNK     1      18.071   9.749  33.787  1.00  0.00     0.038 A 
HETATM   10  C16 UNK     1      20.385   9.562  34.454  1.00  0.00     0.001 A 
HETATM   11  C17 UNK     1      19.221  10.322  34.324  1.00  0.00     0.003 A 
ENDROOT
BRANCH   3  12
HETATM   12  C9  UNK     1      18.163   4.327  32.147  1.00  0.00     0.225 C 
HETATM   13  O2  UNK     1      17.796   3.418  32.879  1.00  0.00    -0.280 OA
BRANCH  12  14
HETATM   14  S1  UNK     1      18.805   4.110  30.532  1.00  0.00    -0.087 SA
BRANCH  14  15
HETATM   15  C6  UNK     1      18.842   2.295  30.443  1.00  0.00     0.082 C 
BRANCH  15  16
HETATM   16  C4  UNK     1      18.287   1.812  29.105  1.00  0.00     0.010 C 
BRANCH  16  17
HETATM   17  C2  UNK     1      18.958   0.526  28.608  1.00  0.00     0.001 C 
BRANCH  17  18
HETATM   18  C1  UNK     1      20.217   0.155  29.394  1.00  0.00     0.000 C 
BRANCH  18  19
HETATM   19  C3  UNK     1      20.313  -1.358  29.604  1.00  0.00    -0.000 C 
BRANCH  19  20
HETATM   20  C5  UNK     1      20.550  -1.703  31.074  1.00  0.00    -0.005 C 
HETATM   21  C7  UNK     1      19.329  -1.391  31.924  1.00  0.00     0.005 C 
ENDBRANCH  19  20
ENDBRANCH  18  19
ENDBRANCH  17  18
ENDBRANCH  16  17
ENDBRANCH  15  16
ENDBRANCH  14  15
ENDBRANCH  12  14
ENDBRANCH   3  12
TORSDOF 8
ENDMDL
MODEL 3
REMARK VINA RESULT:      -7.4      3.684      6.223
REMARK  8 active torsions:
REMARK  status: ('A' for Active; 'I' for Inactive)
REMARK    1  A    between atoms: C6_10  and  S1_1 
REMARK    2  A    between atoms: C9_13  and  S1_1 
REMARK    3  A    between atoms: C1_5  and  C2_6 
REMARK    4  A    between atoms: C1_5  and  C3_7 
REMARK    5  A    between atoms: C2_6  and  C4_8 
REMARK    6  A    between atoms: C3_7  and  C5_9 
REMARK    7  A    between atoms: C4_8  and  C6_10 
REMARK    8  A    between atoms: C8_12  and  C9_13 
ROOT
HETATM    1  O1  UNK     1      19.041   1.786  30.818  1.00  0.00    -0.274 OA
HETATM    2  O3  UNK     1      17.940   3.196  32.241  1.00  0.00    -0.259 OA
HETATM    3  C8  UNK     1      18.251   0.967  32.983  1.00  0.00     0.097 A 
HETATM    4  C10 UNK     1      19.420  -0.524  31.472  1.00  0.00    -0.001 A 
HETATM    5  C11 UNK     1      18.738  -0.253  32.729  1.00  0.00     0.036 A 
HETATM    6  C12 UNK     1      19.555   0.503  30.546  1.00  0.00     0.089 A 
HETATM    7  C13 UNK     1      18.384   2.076  32.012  1.00  0.00     0.303 A 
HETATM    8  C14 UNK     1      19.942  -1.783  31.165  1.00  0.00     0.014 A 
HETATM    9  C15 UNK     1      20.197   0.310  29.324  1.00  0.00     0.038 A 
HETATM   10  C16 UNK     1      20.589  -1.991  29.944  1.00  0.00     0.001 A 
HETATM   11  C17 UNK     1      20.716  -0.947  29.026  1.00  0.00     0.003 A 
ENDROOT
BRANCH   3  12
HETATM   12  C9  UNK     1      17.580   1.142  34.280  1.00  0.00     0.225 C 
HETATM   13  O2  UNK     1      16.386   0.920  34.428  1.00  0.00    -0.280 OA
BRANCH  12  14
HETATM   14  S1  UNK     1      18.658   1.688  35.547  1.00  0.00    -0.087 SA
BRANCH  14  15
HETATM   15  C6  UNK     1      17.474   1.891  36.910  1.00  0.00     0.082 C 
BRANCH  15  16
HETATM   16  C4  UNK     1      17.668   0.797  37.957  1.00  0.00     0.010 C 
BRANCH  16  17
HETATM   17  C2  UNK     1      17.473  -0.614  37.391  1.00  0.00     0.001 C 
BRANCH  17  18
HETATM   18  C1  UNK     1      18.453  -1.640  37.966  1.00  0.00     0.000 C 
BRANCH  18  19
HETATM   19  C3  UNK     1      18.971  -2.581  36.876  1.00  0.00    -0.000 C 
BRANCH  19  20
HETATM   20  C5  UNK     1      19.856  -1.840  35.874  1.00  0.00    -0.005 C 
HETATM   21  C7  UNK     1      20.329  -2.759  34.759  1.00  0.00     0.005 C 
ENDBRANCH  19  20
ENDBRANCH  18  19
ENDBRANCH  17  18
ENDBRANCH  16  17
ENDBRANCH  15  16
ENDBRANCH  14  15
ENDBRANCH  12  14
ENDBRANCH   3  12
TORSDOF 8
ENDMDL
MODEL 4
REMARK VINA RESULT:      -7.4      2.941      5.313
REMARK  8 active torsions:
REMARK  status: ('A' for Active; 'I' for Inactive)
REMARK    1  A    between atoms: C6_10  and  S1_1 
REMARK    2  A    between atoms: C9_13  and  S1_1 
REMARK    3  A    between atoms: C1_5  and  C2_6 
REMARK    4  A    between atoms: C1_5  and  C3_7 
REMARK    5  A    between atoms: C2_6  and  C4_8 
REMARK    6  A    between atoms: C3_7  and  C5_9 
REMARK    7  A    between atoms: C4_8  and  C6_10 
REMARK    8  A    between atoms: C8_12  and  C9_13 
ROOT
HETATM    1  O1  UNK     1      20.142  -2.266  34.672  1.00  0.00    -0.274 OA
HETATM    2  O3  UNK     1      21.476  -2.954  32.948  1.00  0.00    -0.259 OA
HETATM    3  C8  UNK     1      19.697  -1.489  32.397  1.00  0.00     0.097 A 
HETATM    4  C10 UNK     1      18.286  -0.761  34.227  1.00  0.00    -0.001 A 
HETATM    5  C11 UNK     1      18.651  -0.769  32.818  1.00  0.00     0.036 A 
HETATM    6  C12 UNK     1      19.041  -1.511  35.122  1.00  0.00     0.089 A 
HETATM    7  C13 UNK     1      20.516  -2.294  33.331  1.00  0.00     0.303 A 
HETATM    8  C14 UNK     1      17.202  -0.026  34.711  1.00  0.00     0.014 A 
HETATM    9  C15 UNK     1      18.745  -1.545  36.483  1.00  0.00     0.038 A 
HETATM   10  C16 UNK     1      16.893  -0.050  36.074  1.00  0.00     0.001 A 
HETATM   11  C17 UNK     1      17.663  -0.808  36.957  1.00  0.00     0.003 A 
ENDROOT
BRANCH   3  12
HETATM   12  C9  UNK     1      19.987  -1.433  30.956  1.00  0.00     0.225 C 
HETATM   13  O2  UNK     1      19.925  -2.424  30.242  1.00  0.00    -0.280 OA
BRANCH  12  14
HETATM   14  S1  UNK     1      20.416   0.172  30.400  1.00  0.00    -0.087 SA
BRANCH  14  15
HETATM   15  C6  UNK     1      19.358   0.294  28.928  1.00  0.00     0.082 C 
BRANCH  15  16
HETATM   16  C4  UNK     1      18.441   1.511  29.025  1.00  0.00     0.010 C 
BRANCH  16  17
HETATM   17  C2  UNK     1      18.654   2.320  30.310  1.00  0.00     0.001 C 
BRANCH  17  18
HETATM   18  C1  UNK     1      18.860   3.815  30.058  1.00  0.00     0.000 C 
BRANCH  18  19
HETATM   19  C3  UNK     1      18.726   4.618  31.355  1.00  0.00    -0.000 C 
BRANCH  19  20
HETATM   20  C5  UNK     1      19.443   5.964  31.253  1.00  0.00    -0.005 C 
HETATM   21  C7  UNK     1      20.167   6.310  32.544  1.00  0.00     0.005 C 
ENDBRANCH  19  20
ENDBRANCH  18  19
ENDBRANCH  17  18
ENDBRANCH  16  17
ENDBRANCH  15  16
ENDBRANCH  14  15
ENDBRANCH  12  14
ENDBRANCH   3  12
TORSDOF 8
ENDMDL
MODEL 5
REMARK VINA RESULT:      -7.4      1.673      2.319
REMARK  8 active torsions:
REMARK  status: ('A' for Active; 'I' for Inactive)
REMARK    1  A    between atoms: C6_10  and  S1_1 
REMARK    2  A    between atoms: C9_13  and  S1_1 
REMARK    3  A    between atoms: C1_5  and  C2_6 
REMARK    4  A    between atoms: C1_5  and  C3_7 
REMARK    5  A    between atoms: C2_6  and  C4_8 
REMARK    6  A    between atoms: C3_7  and  C5_9 
REMARK    7  A    between atoms: C4_8  and  C6_10 
REMARK    8  A    between atoms: C8_12  and  C9_13 
ROOT
HETATM    1  O1  UNK     1      18.942   0.745  28.569  1.00  0.00    -0.274 OA
HETATM    2  O3  UNK     1      18.009   2.796  28.187  1.00  0.00    -0.259 OA
HETATM    3  C8  UNK     1      18.713   2.345  30.404  1.00  0.00     0.097 A 
HETATM    4  C10 UNK     1      19.703   0.170  30.805  1.00  0.00    -0.001 A 
HETATM    5  C11 UNK     1      19.270   1.482  31.262  1.00  0.00     0.036 A 
HETATM    6  C12 UNK     1      19.528  -0.168  29.468  1.00  0.00     0.089 A 
HETATM    7  C13 UNK     1      18.518   2.007  28.976  1.00  0.00     0.303 A 
HETATM    8  C14 UNK     1      20.288  -0.762  31.665  1.00  0.00     0.014 A 
HETATM    9  C15 UNK     1      19.921  -1.408  28.966  1.00  0.00     0.038 A 
HETATM   10  C16 UNK     1      20.687  -2.009  31.177  1.00  0.00     0.001 A 
HETATM   11  C17 UNK     1      20.505  -2.331  29.831  1.00  0.00     0.003 A 
ENDROOT
BRANCH   3  12
HETATM   12  C9  UNK     1      18.309   3.645  30.960  1.00  0.00     0.225 C 
HETATM   13  O2  UNK     1      17.431   3.746  31.805  1.00  0.00    -0.280 OA
BRANCH  12  14
HETATM   14  S1  UNK     1      19.207   4.991  30.289  1.00  0.00    -0.087 SA
BRANCH  14  15
HETATM   15  C6  UNK     1      18.813   6.279  31.509  1.00  0.00     0.082 C 
BRANCH  15  16
HETATM   16  C4  UNK     1      19.917   6.380  32.559  1.00  0.00     0.010 C 
BRANCH  16  17
HETATM   17  C2  UNK     1      19.386   6.301  33.995  1.00  0.00     0.001 C 
BRANCH  17  18
HETATM   18  C1  UNK     1      19.220   7.671  34.657  1.00  0.00     0.000 C 
BRANCH  18  19
HETATM   19  C3  UNK     1      17.773   8.162  34.557  1.00  0.00    -0.000 C 
BRANCH  19  20
HETATM   20  C5  UNK     1      16.791   6.992  34.490  1.00  0.00    -0.005 C 
HETATM   21  C7  UNK     1      15.397   7.456  34.103  1.00  0.00     0.005 C 
ENDBRANCH  19  20
ENDBRANCH  18  19
ENDBRANCH  17  18
ENDBRANCH  16  17
ENDBRANCH  15  16
ENDBRANCH  14  15
ENDBRANCH  12  14
ENDBRANCH   3  12
TORSDOF 8
ENDMDL
MODEL 6
REMARK VINA RESULT:      -7.3      4.953      8.569
REMARK  8 active torsions:
REMARK  status: ('A' for Active; 'I' for Inactive)
REMARK    1  A    between atoms: C6_10  and  S1_1 
REMARK    2  A    between atoms: C9_13  and  S1_1 
REMARK    3  A    between atoms: C1_5  and  C2_6 
REMARK    4  A    between atoms: C1_5  and  C3_7 
REMARK    5  A    between atoms: C2_6  and  C4_8 
REMARK    6  A    between atoms: C3_7  and  C5_9 
REMARK    7  A    between atoms: C4_8  and  C6_10 
REMARK    8  A    between atoms: C8_12  and  C9_13 
ROOT
HETATM    1  O1  UNK     1      18.757   1.167  31.765  1.00  0.00    -0.274 OA
HETATM    2  O3  UNK     1      17.661   1.844  33.653  1.00  0.00    -0.259 OA
HETATM    3  C8  UNK     1      18.354  -0.421  33.580  1.00  0.00     0.097 A 
HETATM    4  C10 UNK     1      19.516  -1.134  31.578  1.00  0.00    -0.001 A 
HETATM    5  C11 UNK     1      18.964  -1.397  32.898  1.00  0.00     0.036 A 
HETATM    6  C12 UNK     1      19.399   0.143  31.042  1.00  0.00     0.089 A 
HETATM    7  C13 UNK     1      18.218   0.947  33.030  1.00  0.00     0.303 A 
HETATM    8  C14 UNK     1      20.160  -2.123  30.830  1.00  0.00     0.014 A 
HETATM    9  C15 UNK     1      19.907   0.461  29.783  1.00  0.00     0.038 A 
HETATM   10  C16 UNK     1      20.674  -1.820  29.566  1.00  0.00     0.001 A 
HETATM   11  C17 UNK     1      20.548  -0.531  29.045  1.00  0.00     0.003 A 
ENDROOT
BRANCH   3  12
HETATM   12  C9  UNK     1      17.829  -0.783  34.905  1.00  0.00     0.225 C 
HETATM   13  O2  UNK     1      16.645  -1.029  35.090  1.00  0.00    -0.280 OA
BRANCH  12  14
HETATM   14  S1  UNK     1      19.062  -0.822  36.149  1.00  0.00    -0.087 SA
BRANCH  14  15
HETATM   15  C6  UNK     1      18.957  -2.565  36.650  1.00  0.00     0.082 C 
BRANCH  15  16
HETATM   16  C4  UNK     1      20.352  -3.145  36.869  1.00  0.00     0.010 C 
BRANCH  16  17
HETATM   17  C2  UNK     1      20.330  -4.627  37.260  1.00  0.00     0.001 C 
BRANCH  17  18
HETATM   18  C1  UNK     1      21.602  -5.086  37.975  1.00  0.00     0.000 C 
BRANCH  18  19
HETATM   19  C3  UNK     1      21.498  -6.552  38.405  1.00  0.00    -0.000 C 
BRANCH  19  20
HETATM   20  C5  UNK     1      20.282  -6.785  39.300  1.00  0.00    -0.005 C 
HETATM   21  C7  UNK     1      19.477  -7.993  38.848  1.00  0.00     0.005 C 
ENDBRANCH  19  20
ENDBRANCH  18  19
ENDBRANCH  17  18
ENDBRANCH  16  17
ENDBRANCH  15  16
ENDBRANCH  14  15
ENDBRANCH  12  14
ENDBRANCH   3  12
TORSDOF 8
ENDMDL
MODEL 7
REMARK VINA RESULT:      -7.2      7.055     11.439
REMARK  8 active torsions:
REMARK  status: ('A' for Active; 'I' for Inactive)
REMARK    1  A    between atoms: C6_10  and  S1_1 
REMARK    2  A    between atoms: C9_13  and  S1_1 
REMARK    3  A    between atoms: C1_5  and  C2_6 
REMARK    4  A    between atoms: C1_5  and  C3_7 
REMARK    5  A    between atoms: C2_6  and  C4_8 
REMARK    6  A    between atoms: C3_7  and  C5_9 
REMARK    7  A    between atoms: C4_8  and  C6_10 
REMARK    8  A    between atoms: C8_12  and  C9_13 
ROOT
HETATM    1  O1  UNK     1      19.557  -1.209  34.714  1.00  0.00    -0.274 OA
HETATM    2  O3  UNK     1      20.685  -3.111  34.138  1.00  0.00    -0.259 OA
HETATM    3  C8  UNK     1      19.748  -3.049  36.314  1.00  0.00     0.097 A 
HETATM    4  C10 UNK     1      18.552  -1.032  36.921  1.00  0.00    -0.001 A 
HETATM    5  C11 UNK     1      19.047  -2.366  37.226  1.00  0.00     0.036 A 
HETATM    6  C12 UNK     1      18.819  -0.484  35.671  1.00  0.00     0.089 A 
HETATM    7  C13 UNK     1      20.044  -2.487  34.977  1.00  0.00     0.303 A 
HETATM    8  C14 UNK     1      17.817  -0.282  37.842  1.00  0.00     0.014 A 
HETATM    9  C15 UNK     1      18.373   0.788  35.316  1.00  0.00     0.038 A 
HETATM   10  C16 UNK     1      17.363   0.995  37.501  1.00  0.00     0.001 A 
HETATM   11  C17 UNK     1      17.640   1.528  36.240  1.00  0.00     0.003 A 
ENDROOT
BRANCH   3  12
HETATM   12  C9  UNK     1      20.206  -4.388  36.715  1.00  0.00     0.225 C 
HETATM   13  O2  UNK     1      21.338  -4.591  37.131  1.00  0.00    -0.280 OA
BRANCH  12  14
HETATM   14  S1  UNK     1      18.974  -5.621  36.533  1.00  0.00    -0.087 SA
BRANCH  14  15
HETATM   15  C6  UNK     1      19.768  -6.685  35.292  1.00  0.00     0.082 C 
BRANCH  15  16
HETATM   16  C4  UNK     1      19.913  -8.110  35.821  1.00  0.00     0.010 C 
BRANCH  16  17
HETATM   17  C2  UNK     1      18.898  -8.447  36.920  1.00  0.00     0.001 C 
BRANCH  17  18
HETATM   18  C1  UNK     1      19.203  -9.758  37.647  1.00  0.00     0.000 C 
BRANCH  18  19
HETATM   19  C3  UNK     1      20.053  -9.513  38.897  1.00  0.00    -0.000 C 
BRANCH  19  20
HETATM   20  C5  UNK     1      19.914  -8.073  39.391  1.00  0.00    -0.005 C 
HETATM   21  C7  UNK     1      21.259  -7.366  39.435  1.00  0.00     0.005 C 
ENDBRANCH  19  20
ENDBRANCH  18  19
ENDBRANCH  17  18
ENDBRANCH  16  17
ENDBRANCH  15  16
ENDBRANCH  14  15
ENDBRANCH  12  14
ENDBRANCH   3  12
TORSDOF 8
ENDMDL
MODEL 8
REMARK VINA RESULT:      -7.2      2.401      8.301
REMARK  8 active torsions:
REMARK  status: ('A' for Active; 'I' for Inactive)
REMARK    1  A    between atoms: C6_10  and  S1_1 
REMARK    2  A    between atoms: C9_13  and  S1_1 
REMARK    3  A    between atoms: C1_5  and  C2_6 
REMARK    4  A    between atoms: C1_5  and  C3_7 
REMARK    5  A    between atoms: C2_6  and  C4_8 
REMARK    6  A    between atoms: C3_7  and  C5_9 
REMARK    7  A    between atoms: C4_8  and  C6_10 
REMARK    8  A    between atoms: C8_12  and  C9_13 
ROOT
HETATM    1  O1  UNK     1      18.594   8.026  33.865  1.00  0.00    -0.274 OA
HETATM    2  O3  UNK     1      20.305   6.617  33.306  1.00  0.00    -0.259 OA
HETATM    3  C8  UNK     1      18.466   6.699  31.815  1.00  0.00     0.097 A 
HETATM    4  C10 UNK     1      16.655   8.194  32.410  1.00  0.00    -0.001 A 
HETATM    5  C11 UNK     1      17.268   7.218  31.521  1.00  0.00     0.036 A 
HETATM    6  C12 UNK     1      17.333   8.575  33.562  1.00  0.00     0.089 A 
HETATM    7  C13 UNK     1      19.207   7.090  33.035  1.00  0.00     0.303 A 
HETATM    8  C14 UNK     1      15.406   8.761  32.144  1.00  0.00     0.014 A 
HETATM    9  C15 UNK     1      16.801   9.505  34.454  1.00  0.00     0.038 A 
HETATM   10  C16 UNK     1      14.860   9.695  33.029  1.00  0.00     0.001 A 
HETATM   11  C17 UNK     1      15.556  10.066  34.181  1.00  0.00     0.003 A 
ENDROOT
BRANCH   3  12
HETATM   12  C9  UNK     1      19.003   5.721  30.856  1.00  0.00     0.225 C 
HETATM   13  O2  UNK     1      19.728   6.052  29.928  1.00  0.00    -0.280 OA
BRANCH  12  14
HETATM   14  S1  UNK     1      18.498   4.078  31.191  1.00  0.00    -0.087 SA
BRANCH  14  15
HETATM   15  C6  UNK     1      18.777   3.320  29.563  1.00  0.00     0.082 C 
BRANCH  15  16
HETATM   16  C4  UNK     1      17.897   2.085  29.388  1.00  0.00     0.010 C 
BRANCH  16  17
HETATM   17  C2  UNK     1      18.612   0.938  28.664  1.00  0.00     0.001 C 
BRANCH  17  18
HETATM   18  C1  UNK     1      19.785   0.357  29.455  1.00  0.00     0.000 C 
BRANCH  18  19
HETATM   19  C3  UNK     1      20.330  -0.909  28.789  1.00  0.00    -0.000 C 
BRANCH  19  20
HETATM   20  C5  UNK     1      20.508  -2.039  29.802  1.00  0.00    -0.005 C 
HETATM   21  C7  UNK     1      20.078  -1.612  31.196  1.00  0.00     0.005 C 
ENDBRANCH  19  20
ENDBRANCH  18  19
ENDBRANCH  17  18
ENDBRANCH  16  17
ENDBRANCH  15  16
ENDBRANCH  14  15
ENDBRANCH  12  14
ENDBRANCH   3  12
TORSDOF 8
ENDMDL
MODEL 9
REMARK VINA RESULT:      -7.0     14.310     17.872
REMARK  8 active torsions:
REMARK  status: ('A' for Active; 'I' for Inactive)
REMARK    1  A    between atoms: C6_10  and  S1_1 
REMARK    2  A    between atoms: C9_13  and  S1_1 
REMARK    3  A    between atoms: C1_5  and  C2_6 
REMARK    4  A    between atoms: C1_5  and  C3_7 
REMARK    5  A    between atoms: C2_6  and  C4_8 
REMARK    6  A    between atoms: C3_7  and  C5_9 
REMARK    7  A    between atoms: C4_8  and  C6_10 
REMARK    8  A    between atoms: C8_12  and  C9_13 
ROOT
HETATM    1  O1  UNK     1      19.325   1.087  15.366  1.00  0.00    -0.274 OA
HETATM    2  O3  UNK     1      19.279  -0.549  13.771  1.00  0.00    -0.259 OA
HETATM    3  C8  UNK     1      18.903  -1.235  16.008  1.00  0.00     0.097 A 
HETATM    4  C10 UNK     1      18.951   0.503  17.696  1.00  0.00    -0.001 A 
HETATM    5  C11 UNK     1      18.795  -0.888  17.296  1.00  0.00     0.036 A 
HETATM    6  C12 UNK     1      19.213   1.458  16.720  1.00  0.00     0.089 A 
HETATM    7  C13 UNK     1      19.181  -0.235  14.952  1.00  0.00     0.303 A 
HETATM    8  C14 UNK     1      18.848   0.910  19.028  1.00  0.00     0.014 A 
HETATM    9  C15 UNK     1      19.373   2.806  17.037  1.00  0.00     0.038 A 
HETATM   10  C16 UNK     1      19.005   2.258  19.361  1.00  0.00     0.001 A 
HETATM   11  C17 UNK     1      19.267   3.203  18.368  1.00  0.00     0.003 A 
ENDROOT
BRANCH   3  12
HETATM   12  C9  UNK     1      18.729  -2.663  15.703  1.00  0.00     0.225 C 
HETATM   13  O2  UNK     1      17.625  -3.163  15.541  1.00  0.00    -0.280 OA
BRANCH  12  14
HETATM   14  S1  UNK     1      20.244  -3.536  15.601  1.00  0.00    -0.087 SA
BRANCH  14  15
HETATM   15  C6  UNK     1      19.956  -4.502  14.089  1.00  0.00     0.082 C 
BRANCH  15  16
HETATM   16  C4  UNK     1      19.704  -5.968  14.428  1.00  0.00     0.010 C 
BRANCH  16  17
HETATM   17  C2  UNK     1      18.213  -6.325  14.473  1.00  0.00     0.001 C 
BRANCH  17  18
HETATM   18  C1  UNK     1      17.702  -6.621  15.885  1.00  0.00     0.000 C 
BRANCH  18  19
HETATM   19  C3  UNK     1      16.184  -6.819  15.894  1.00  0.00    -0.000 C 
BRANCH  19  20
HETATM   20  C5  UNK     1      15.528  -6.036  17.030  1.00  0.00    -0.005 C 
HETATM   21  C7  UNK     1      15.934  -6.579  18.391  1.00  0.00     0.005 C 
ENDBRANCH  19  20
ENDBRANCH  18  19
ENDBRANCH  17  18
ENDBRANCH  16  17
ENDBRANCH  15  16
ENDBRANCH  14  15
ENDBRANCH  12  14
ENDBRANCH   3  12
TORSDOF 8
ENDMDL
MODEL 10
REMARK VINA RESULT:      -7.0     13.823     17.145
REMARK  8 active torsions:
REMARK  status: ('A' for Active; 'I' for Inactive)
REMARK    1  A    between atoms: C6_10  and  S1_1 
REMARK    2  A    between atoms: C9_13  and  S1_1 
REMARK    3  A    between atoms: C1_5  and  C2_6 
REMARK    4  A    between atoms: C1_5  and  C3_7 
REMARK    5  A    between atoms: C2_6  and  C4_8 
REMARK    6  A    between atoms: C3_7  and  C5_9 
REMARK    7  A    between atoms: C4_8  and  C6_10 
REMARK    8  A    between atoms: C8_12  and  C9_13 
ROOT
HETATM    1  O1  UNK     1      19.331   1.060  15.514  1.00  0.00    -0.274 OA
HETATM    2  O3  UNK     1      19.358  -0.418  13.770  1.00  0.00    -0.259 OA
HETATM    3  C8  UNK     1      18.888  -1.312  15.914  1.00  0.00     0.097 A 
HETATM    4  C10 UNK     1      18.859   0.258  17.759  1.00  0.00    -0.001 A 
HETATM    5  C11 UNK     1      18.723  -1.088  17.223  1.00  0.00     0.036 A 
HETATM    6  C12 UNK     1      19.160   1.301  16.891  1.00  0.00     0.089 A 
HETATM    7  C13 UNK     1      19.208  -0.217  14.971  1.00  0.00     0.303 A 
HETATM    8  C14 UNK     1      18.697   0.537  19.119  1.00  0.00     0.014 A 
HETATM    9  C15 UNK     1      19.303   2.612  17.341  1.00  0.00     0.038 A 
HETATM   10  C16 UNK     1      18.837   1.847  19.584  1.00  0.00     0.001 A 
HETATM   11  C17 UNK     1      19.138   2.882  18.697  1.00  0.00     0.003 A 
ENDROOT
BRANCH   3  12
HETATM   12  C9  UNK     1      18.731  -2.704  15.467  1.00  0.00     0.225 C 
HETATM   13  O2  UNK     1      17.689  -3.325  15.628  1.00  0.00    -0.280 OA
BRANCH  12  14
HETATM   14  S1  UNK     1      20.168  -3.349  14.701  1.00  0.00    -0.087 SA
BRANCH  14  15
HETATM   15  C6  UNK     1      20.626  -4.630  15.906  1.00  0.00     0.082 C 
BRANCH  15  16
HETATM   16  C4  UNK     1      22.141  -4.809  15.949  1.00  0.00     0.010 C 
BRANCH  16  17
HETATM   17  C2  UNK     1      22.889  -3.506  16.257  1.00  0.00     0.001 C 
BRANCH  17  18
HETATM   18  C1  UNK     1      22.929  -3.166  17.748  1.00  0.00     0.000 C 
BRANCH  18  19
HETATM   19  C3  UNK     1      24.214  -3.682  18.400  1.00  0.00    -0.000 C 
BRANCH  19  20
HETATM   20  C5  UNK     1      25.395  -3.616  17.432  1.00  0.00    -0.005 C 
HETATM   21  C7  UNK     1      25.929  -5.001  17.106  1.00  0.00     0.005 C 
ENDBRANCH  19  20
ENDBRANCH  18  19
ENDBRANCH  17  18
ENDBRANCH  16  17
ENDBRANCH  15  16
ENDBRANCH  14  15
ENDBRANCH  12  14
ENDBRANCH   3  12
TORSDOF 8
ENDMDL
