MODEL 1
REMARK VINA RESULT:      -7.1      0.000      0.000
REMARK  3 active torsions:
REMARK  status: ('A' for Active; 'I' for Inactive)
REMARK       I    between atoms: C7_9  and  N1_2 
REMARK    1  A    between atoms: C7_9  and  C8_10 
REMARK    2  A    between atoms: C8_10  and  C9_11 
REMARK    3  A    between atoms: C10_12  and  C11_13 
ROOT
HETATM    1  C8  UNK     1      30.909  -7.338  37.407  1.00  0.00     0.043 C 
HETATM    2  C10 UNK     1      31.601  -6.216  37.669  1.00  0.00     0.029 C 
ENDROOT
BRANCH   1   3
HETATM    3  C7  UNK     1      31.376  -8.102  36.231  1.00  0.00     0.255 C 
HETATM    4  O1  UNK     1      32.241  -8.958  36.420  1.00  0.00    -0.267 OA
HETATM    5  N1  UNK     1      30.808  -7.805  34.989  1.00  0.00    -0.344 N 
HETATM    6  C1  UNK     1      29.669  -6.881  34.765  1.00  0.00     0.083 C 
HETATM    7  C5  UNK     1      31.267  -8.563  33.819  1.00  0.00     0.126 C 
HETATM    8  C2  UNK     1      29.884  -6.015  33.513  1.00  0.00     0.025 C 
HETATM    9  C6  UNK     1      28.346  -7.649  34.716  1.00  0.00     0.032 C 
HETATM   10  C3  UNK     1      30.295  -6.825  32.289  1.00  0.00     0.004 C 
HETATM   11  C4  UNK     1      31.519  -7.672  32.609  1.00  0.00     0.020 C 
ENDBRANCH   1   3
BRANCH   1  12
HETATM   12  C9  UNK     1      29.764  -7.834  38.182  1.00  0.00    -0.021 A 
HETATM   13  C12 UNK     1      29.565  -9.201  38.310  1.00  0.00     0.012 A 
HETATM   14  C14 UNK     1      28.478  -9.672  39.046  1.00  0.00     0.001 A 
HETATM   15  C18 UNK     1      27.599  -8.770  39.646  1.00  0.00     0.000 A 
HETATM   16  C15 UNK     1      27.809  -7.398  39.510  1.00  0.00     0.001 A 
HETATM   17  C13 UNK     1      28.896  -6.927  38.774  1.00  0.00     0.012 A 
ENDBRANCH   1  12
BRANCH   2  18
HETATM   18  C11 UNK     1      32.748  -5.714  36.897  1.00  0.00    -0.035 A 
HETATM   19  C16 UNK     1      34.025  -6.152  37.212  1.00  0.00     0.011 A 
HETATM   20  C19 UNK     1      35.113  -5.675  36.480  1.00  0.00     0.001 A 
HETATM   21  C21 UNK     1      34.910  -4.766  35.442  1.00  0.00     0.000 A 
HETATM   22  C20 UNK     1      33.620  -4.334  35.136  1.00  0.00     0.001 A 
HETATM   23  C17 UNK     1      32.533  -4.810  35.867  1.00  0.00     0.011 A 
ENDBRANCH   2  18
TORSDOF 3
ENDMDL
MODEL 2
REMARK VINA RESULT:      -7.1      2.054      6.024
REMARK  3 active torsions:
REMARK  status: ('A' for Active; 'I' for Inactive)
REMARK       I    between atoms: C7_9  and  N1_2 
REMARK    1  A    between atoms: C7_9  and  C8_10 
REMARK    2  A    between atoms: C8_10  and  C9_11 
REMARK    3  A    between atoms: C10_12  and  C11_13 
ROOT
HETATM    1  C8  UNK     1      28.461  -8.163  35.190  1.00  0.00     0.043 C 
HETATM    2  C10 UNK     1      27.428  -8.126  36.050  1.00  0.00     0.029 C 
ENDROOT
BRANCH   1   3
HETATM    3  C7  UNK     1      29.710  -8.731  35.736  1.00  0.00     0.255 C 
HETATM    4  O1  UNK     1      29.881  -9.945  35.614  1.00  0.00    -0.267 OA
HETATM    5  N1  UNK     1      30.613  -7.860  36.352  1.00  0.00    -0.344 N 
HETATM    6  C1  UNK     1      30.493  -6.381  36.383  1.00  0.00     0.083 C 
HETATM    7  C5  UNK     1      31.857  -8.420  36.894  1.00  0.00     0.126 C 
HETATM    8  C2  UNK     1      30.879  -5.813  37.758  1.00  0.00     0.025 C 
HETATM    9  C6  UNK     1      31.299  -5.745  35.248  1.00  0.00     0.032 C 
HETATM   10  C3  UNK     1      32.206  -6.354  38.277  1.00  0.00     0.004 C 
HETATM   11  C4  UNK     1      32.187  -7.877  38.278  1.00  0.00     0.020 C 
ENDBRANCH   1   3
BRANCH   1  12
HETATM   12  C9  UNK     1      28.429  -7.693  33.798  1.00  0.00    -0.021 A 
HETATM   13  C12 UNK     1      28.719  -8.579  32.770  1.00  0.00     0.012 A 
HETATM   14  C14 UNK     1      28.689  -8.132  31.449  1.00  0.00     0.001 A 
HETATM   15  C18 UNK     1      28.369  -6.803  31.170  1.00  0.00     0.000 A 
HETATM   16  C15 UNK     1      28.080  -5.922  32.211  1.00  0.00     0.001 A 
HETATM   17  C13 UNK     1      28.110  -6.369  33.532  1.00  0.00     0.012 A 
ENDBRANCH   1  12
BRANCH   2  18
HETATM   18  C11 UNK     1      27.454  -8.595  37.444  1.00  0.00    -0.035 A 
HETATM   19  C16 UNK     1      27.120  -9.910  37.726  1.00  0.00     0.011 A 
HETATM   20  C19 UNK     1      27.143 -10.354  39.048  1.00  0.00     0.001 A 
HETATM   21  C21 UNK     1      27.500  -9.477  40.073  1.00  0.00     0.000 A 
HETATM   22  C20 UNK     1      27.833  -8.156  39.774  1.00  0.00     0.001 A 
HETATM   23  C17 UNK     1      27.810  -7.712  38.453  1.00  0.00     0.011 A 
ENDBRANCH   2  18
TORSDOF 3
ENDMDL
MODEL 3
REMARK VINA RESULT:      -7.1      2.054      6.038
REMARK  3 active torsions:
REMARK  status: ('A' for Active; 'I' for Inactive)
REMARK       I    between atoms: C7_9  and  N1_2 
REMARK    1  A    between atoms: C7_9  and  C8_10 
REMARK    2  A    between atoms: C8_10  and  C9_11 
REMARK    3  A    between atoms: C10_12  and  C11_13 
ROOT
HETATM    1  C8  UNK     1      28.460  -8.148  35.190  1.00  0.00     0.043 C 
HETATM    2  C10 UNK     1      27.425  -8.113  36.048  1.00  0.00     0.029 C 
ENDROOT
BRANCH   1   3
HETATM    3  C7  UNK     1      29.708  -8.715  35.738  1.00  0.00     0.255 C 
HETATM    4  O1  UNK     1      29.880  -9.929  35.616  1.00  0.00    -0.267 OA
HETATM    5  N1  UNK     1      30.609  -7.843  36.355  1.00  0.00    -0.344 N 
HETATM    6  C1  UNK     1      30.488  -6.364  36.386  1.00  0.00     0.083 C 
HETATM    7  C5  UNK     1      31.853  -8.402  36.899  1.00  0.00     0.126 C 
HETATM    8  C2  UNK     1      30.871  -5.796  37.761  1.00  0.00     0.025 C 
HETATM    9  C6  UNK     1      31.295  -5.728  35.252  1.00  0.00     0.032 C 
HETATM   10  C3  UNK     1      32.198  -6.335  38.283  1.00  0.00     0.004 C 
HETATM   11  C4  UNK     1      32.180  -7.858  38.283  1.00  0.00     0.020 C 
ENDBRANCH   1   3
BRANCH   1  12
HETATM   12  C9  UNK     1      28.430  -7.678  33.798  1.00  0.00    -0.021 A 
HETATM   13  C12 UNK     1      28.722  -8.562  32.770  1.00  0.00     0.012 A 
HETATM   14  C14 UNK     1      28.694  -8.115  31.450  1.00  0.00     0.001 A 
HETATM   15  C18 UNK     1      28.374  -6.787  31.170  1.00  0.00     0.000 A 
HETATM   16  C15 UNK     1      28.082  -5.906  32.211  1.00  0.00     0.001 A 
HETATM   17  C13 UNK     1      28.110  -6.353  33.532  1.00  0.00     0.012 A 
ENDBRANCH   1  12
BRANCH   2  18
HETATM   18  C11 UNK     1      27.448  -8.582  37.441  1.00  0.00    -0.035 A 
HETATM   19  C16 UNK     1      27.808  -7.702  38.451  1.00  0.00     0.011 A 
HETATM   20  C19 UNK     1      27.830  -8.148  39.772  1.00  0.00     0.001 A 
HETATM   21  C21 UNK     1      27.492  -9.468  40.069  1.00  0.00     0.000 A 
HETATM   22  C20 UNK     1      27.133 -10.343  39.044  1.00  0.00     0.001 A 
HETATM   23  C17 UNK     1      27.111  -9.897  37.723  1.00  0.00     0.011 A 
ENDBRANCH   2  18
TORSDOF 3
ENDMDL
MODEL 4
REMARK VINA RESULT:      -7.0      2.054      4.914
REMARK  3 active torsions:
REMARK  status: ('A' for Active; 'I' for Inactive)
REMARK       I    between atoms: C7_9  and  N1_2 
REMARK    1  A    between atoms: C7_9  and  C8_10 
REMARK    2  A    between atoms: C8_10  and  C9_11 
REMARK    3  A    between atoms: C10_12  and  C11_13 
ROOT
HETATM    1  C8  UNK     1      30.696  -8.647  36.097  1.00  0.00     0.043 C 
HETATM    2  C10 UNK     1      29.687  -7.763  36.177  1.00  0.00     0.029 C 
ENDROOT
BRANCH   1   3
HETATM    3  C7  UNK     1      31.806  -8.416  37.044  1.00  0.00     0.255 C 
HETATM    4  O1  UNK     1      31.707  -8.917  38.165  1.00  0.00    -0.267 OA
HETATM    5  N1  UNK     1      32.891  -7.650  36.609  1.00  0.00    -0.344 N 
HETATM    6  C1  UNK     1      33.094  -7.160  35.223  1.00  0.00     0.083 C 
HETATM    7  C5  UNK     1      33.998  -7.421  37.546  1.00  0.00     0.126 C 
HETATM    8  C2  UNK     1      33.629  -5.718  35.208  1.00  0.00     0.025 C 
HETATM    9  C6  UNK     1      33.991  -8.117  34.433  1.00  0.00     0.032 C 
HETATM   10  C3  UNK     1      34.820  -5.513  36.136  1.00  0.00     0.004 C 
HETATM   11  C4  UNK     1      34.472  -5.973  37.545  1.00  0.00     0.020 C 
ENDBRANCH   1   3
BRANCH   1  12
HETATM   12  C9  UNK     1      30.765  -9.781  35.166  1.00  0.00    -0.021 A 
HETATM   13  C12 UNK     1      30.007  -9.759  34.004  1.00  0.00     0.012 A 
HETATM   14  C14 UNK     1      30.073 -10.836  33.120  1.00  0.00     0.001 A 
HETATM   15  C18 UNK     1      30.895 -11.925  33.408  1.00  0.00     0.000 A 
HETATM   16  C15 UNK     1      31.652 -11.936  34.579  1.00  0.00     0.001 A 
HETATM   17  C13 UNK     1      31.586 -10.860  35.463  1.00  0.00     0.012 A 
ENDBRANCH   1  12
BRANCH   2  18
HETATM   18  C11 UNK     1      29.612  -6.626  37.106  1.00  0.00    -0.035 A 
HETATM   19  C16 UNK     1      28.958  -6.779  38.320  1.00  0.00     0.011 A 
HETATM   20  C19 UNK     1      28.887  -5.700  39.200  1.00  0.00     0.001 A 
HETATM   21  C21 UNK     1      29.470  -4.480  38.858  1.00  0.00     0.000 A 
HETATM   22  C20 UNK     1      30.124  -4.339  37.634  1.00  0.00     0.001 A 
HETATM   23  C17 UNK     1      30.196  -5.418  36.753  1.00  0.00     0.011 A 
ENDBRANCH   2  18
TORSDOF 3
ENDMDL
MODEL 5
REMARK VINA RESULT:      -7.0      1.635      6.057
REMARK  3 active torsions:
REMARK  status: ('A' for Active; 'I' for Inactive)
REMARK       I    between atoms: C7_9  and  N1_2 
REMARK    1  A    between atoms: C7_9  and  C8_10 
REMARK    2  A    between atoms: C8_10  and  C9_11 
REMARK    3  A    between atoms: C10_12  and  C11_13 
ROOT
HETATM    1  C8  UNK     1      29.274  -7.118  34.694  1.00  0.00     0.043 C 
HETATM    2  C10 UNK     1      28.101  -7.062  35.348  1.00  0.00     0.029 C 
ENDROOT
BRANCH   1   3
HETATM    3  C7  UNK     1      30.396  -7.684  35.471  1.00  0.00     0.255 C 
HETATM    4  O1  UNK     1      30.561  -8.903  35.421  1.00  0.00    -0.267 OA
HETATM    5  N1  UNK     1      31.194  -6.802  36.206  1.00  0.00    -0.344 N 
HETATM    6  C1  UNK     1      31.100  -5.322  36.165  1.00  0.00     0.083 C 
HETATM    7  C5  UNK     1      32.312  -7.360  36.977  1.00  0.00     0.126 C 
HETATM    8  C2  UNK     1      31.250  -4.709  37.567  1.00  0.00     0.025 C 
HETATM    9  C6  UNK     1      32.106  -4.740  35.169  1.00  0.00     0.032 C 
HETATM   10  C3  UNK     1      32.455  -5.249  38.330  1.00  0.00     0.004 C 
HETATM   11  C4  UNK     1      32.405  -6.770  38.378  1.00  0.00     0.020 C 
ENDBRANCH   1   3
BRANCH   1  12
HETATM   12  C9  UNK     1      29.503  -6.672  33.314  1.00  0.00    -0.021 A 
HETATM   13  C12 UNK     1      30.652  -7.073  32.647  1.00  0.00     0.012 A 
HETATM   14  C14 UNK     1      30.869  -6.649  31.336  1.00  0.00     0.001 A 
HETATM   15  C18 UNK     1      29.936  -5.826  30.706  1.00  0.00     0.000 A 
HETATM   16  C15 UNK     1      28.786  -5.429  31.386  1.00  0.00     0.001 A 
HETATM   17  C13 UNK     1      28.568  -5.853  32.697  1.00  0.00     0.012 A 
ENDBRANCH   1  12
BRANCH   2  18
HETATM   18  C11 UNK     1      27.864  -7.507  36.729  1.00  0.00    -0.035 A 
HETATM   19  C16 UNK     1      28.053  -6.616  37.774  1.00  0.00     0.011 A 
HETATM   20  C19 UNK     1      27.829  -7.038  39.085  1.00  0.00     0.001 A 
HETATM   21  C21 UNK     1      27.419  -8.348  39.334  1.00  0.00     0.000 A 
HETATM   22  C20 UNK     1      27.233  -9.234  38.274  1.00  0.00     0.001 A 
HETATM   23  C17 UNK     1      27.457  -8.812  36.964  1.00  0.00     0.011 A 
ENDBRANCH   2  18
TORSDOF 3
ENDMDL
MODEL 6
REMARK VINA RESULT:      -6.9      2.007      6.023
REMARK  3 active torsions:
REMARK  status: ('A' for Active; 'I' for Inactive)
REMARK       I    between atoms: C7_9  and  N1_2 
REMARK    1  A    between atoms: C7_9  and  C8_10 
REMARK    2  A    between atoms: C8_10  and  C9_11 
REMARK    3  A    between atoms: C10_12  and  C11_13 
ROOT
HETATM    1  C8  UNK     1      31.318  -6.184  33.410  1.00  0.00     0.043 C 
HETATM    2  C10 UNK     1      30.535  -5.497  32.560  1.00  0.00     0.029 C 
ENDROOT
BRANCH   1   3
HETATM    3  C7  UNK     1      30.948  -7.602  33.593  1.00  0.00     0.255 C 
HETATM    4  O1  UNK     1      31.435  -8.420  32.811  1.00  0.00    -0.267 OA
HETATM    5  N1  UNK     1      30.076  -7.922  34.638  1.00  0.00    -0.344 N 
HETATM    6  C1  UNK     1      29.593  -6.976  35.673  1.00  0.00     0.083 C 
HETATM    7  C5  UNK     1      29.708  -9.332  34.825  1.00  0.00     0.126 C 
HETATM    8  C2  UNK     1      28.102  -7.190  35.981  1.00  0.00     0.025 C 
HETATM    9  C6  UNK     1      30.460  -7.058  36.932  1.00  0.00     0.032 C 
HETATM   10  C3  UNK     1      27.748  -8.650  36.240  1.00  0.00     0.004 C 
HETATM   11  C4  UNK     1      28.217  -9.516  35.078  1.00  0.00     0.020 C 
ENDBRANCH   1   3
BRANCH   1  12
HETATM   12  C9  UNK     1      32.470  -5.638  34.140  1.00  0.00    -0.021 A 
HETATM   13  C12 UNK     1      33.684  -6.307  34.101  1.00  0.00     0.012 A 
HETATM   14  C14 UNK     1      34.778  -5.788  34.794  1.00  0.00     0.001 A 
HETATM   15  C18 UNK     1      34.645  -4.604  35.520  1.00  0.00     0.000 A 
HETATM   16  C15 UNK     1      33.420  -3.940  35.551  1.00  0.00     0.001 A 
HETATM   17  C13 UNK     1      32.326  -4.459  34.859  1.00  0.00     0.012 A 
ENDBRANCH   1  12
BRANCH   2  18
HETATM   18  C11 UNK     1      29.381  -6.038  31.827  1.00  0.00    -0.035 A 
HETATM   19  C16 UNK     1      28.122  -5.990  32.406  1.00  0.00     0.011 A 
HETATM   20  C19 UNK     1      27.028  -6.503  31.711  1.00  0.00     0.001 A 
HETATM   21  C21 UNK     1      27.205  -7.058  30.443  1.00  0.00     0.000 A 
HETATM   22  C20 UNK     1      28.476  -7.100  29.872  1.00  0.00     0.001 A 
HETATM   23  C17 UNK     1      29.571  -6.587  30.567  1.00  0.00     0.011 A 
ENDBRANCH   2  18
TORSDOF 3
ENDMDL
MODEL 7
REMARK VINA RESULT:      -6.9      1.415      5.514
REMARK  3 active torsions:
REMARK  status: ('A' for Active; 'I' for Inactive)
REMARK       I    between atoms: C7_9  and  N1_2 
REMARK    1  A    between atoms: C7_9  and  C8_10 
REMARK    2  A    between atoms: C8_10  and  C9_11 
REMARK    3  A    between atoms: C10_12  and  C11_13 
ROOT
HETATM    1  C8  UNK     1      31.289  -6.511  36.659  1.00  0.00     0.043 C 
HETATM    2  C10 UNK     1      31.019  -6.836  37.935  1.00  0.00     0.029 C 
ENDROOT
BRANCH   1   3
HETATM    3  C7  UNK     1      30.250  -6.894  35.682  1.00  0.00     0.255 C 
HETATM    4  O1  UNK     1      29.293  -6.130  35.545  1.00  0.00    -0.267 OA
HETATM    5  N1  UNK     1      30.419  -8.090  34.980  1.00  0.00    -0.344 N 
HETATM    6  C1  UNK     1      31.628  -8.949  35.026  1.00  0.00     0.083 C 
HETATM    7  C5  UNK     1      29.389  -8.473  34.005  1.00  0.00     0.126 C 
HETATM    8  C2  UNK     1      31.258 -10.441  35.071  1.00  0.00     0.025 C 
HETATM    9  C6  UNK     1      32.573  -8.623  33.866  1.00  0.00     0.032 C 
HETATM   10  C3  UNK     1      30.238 -10.836  34.010  1.00  0.00     0.004 C 
HETATM   11  C4  UNK     1      29.007  -9.944  34.108  1.00  0.00     0.020 C 
ENDBRANCH   1   3
BRANCH   1  12
HETATM   12  C9  UNK     1      32.504  -5.829  36.192  1.00  0.00    -0.021 A 
HETATM   13  C12 UNK     1      33.741  -6.222  36.682  1.00  0.00     0.012 A 
HETATM   14  C14 UNK     1      34.894  -5.575  36.238  1.00  0.00     0.001 A 
HETATM   15  C18 UNK     1      34.797  -4.539  35.309  1.00  0.00     0.000 A 
HETATM   16  C15 UNK     1      33.549  -4.152  34.824  1.00  0.00     0.001 A 
HETATM   17  C13 UNK     1      32.396  -4.799  35.267  1.00  0.00     0.012 A 
ENDBRANCH   1  12
BRANCH   2  18
HETATM   18  C11 UNK     1      29.805  -7.518  38.409  1.00  0.00    -0.035 A 
HETATM   19  C16 UNK     1      28.773  -6.771  38.956  1.00  0.00     0.011 A 
HETATM   20  C19 UNK     1      27.623  -7.419  39.406  1.00  0.00     0.001 A 
HETATM   21  C21 UNK     1      27.518  -8.807  39.304  1.00  0.00     0.000 A 
HETATM   22  C20 UNK     1      28.564  -9.546  38.753  1.00  0.00     0.001 A 
HETATM   23  C17 UNK     1      29.714  -8.898  38.302  1.00  0.00     0.011 A 
ENDBRANCH   2  18
TORSDOF 3
ENDMDL
MODEL 8
REMARK VINA RESULT:      -6.9      1.449      2.291
REMARK  3 active torsions:
REMARK  status: ('A' for Active; 'I' for Inactive)
REMARK       I    between atoms: C7_9  and  N1_2 
REMARK    1  A    between atoms: C7_9  and  C8_10 
REMARK    2  A    between atoms: C8_10  and  C9_11 
REMARK    3  A    between atoms: C10_12  and  C11_13 
ROOT
HETATM    1  C8  UNK     1      30.949  -7.411  37.380  1.00  0.00     0.043 C 
HETATM    2  C10 UNK     1      32.234  -7.737  37.602  1.00  0.00     0.029 C 
ENDROOT
BRANCH   1   3
HETATM    3  C7  UNK     1      30.725  -6.494  36.243  1.00  0.00     0.255 C 
HETATM    4  O1  UNK     1      31.056  -5.316  36.392  1.00  0.00    -0.267 OA
HETATM    5  N1  UNK     1      30.156  -7.019  35.080  1.00  0.00    -0.344 N 
HETATM    6  C1  UNK     1      29.884  -8.456  34.831  1.00  0.00     0.083 C 
HETATM    7  C5  UNK     1      29.934  -6.112  33.947  1.00  0.00     0.126 C 
HETATM    8  C2  UNK     1      28.530  -8.660  34.132  1.00  0.00     0.025 C 
HETATM    9  C6  UNK     1      31.036  -9.103  34.058  1.00  0.00     0.032 C 
HETATM   10  C3  UNK     1      28.342  -7.758  32.917  1.00  0.00     0.004 C 
HETATM   11  C4  UNK     1      28.565  -6.303  33.306  1.00  0.00     0.020 C 
ENDBRANCH   1   3
BRANCH   1  12
HETATM   12  C9  UNK     1      29.800  -7.886  38.162  1.00  0.00    -0.021 A 
HETATM   13  C12 UNK     1      28.928  -6.966  38.725  1.00  0.00     0.012 A 
HETATM   14  C14 UNK     1      27.837  -7.418  39.468  1.00  0.00     0.001 A 
HETATM   15  C18 UNK     1      27.631  -8.787  39.640  1.00  0.00     0.000 A 
HETATM   16  C15 UNK     1      28.515  -9.703  39.070  1.00  0.00     0.001 A 
HETATM   17  C13 UNK     1      29.605  -9.251  38.327  1.00  0.00     0.012 A 
ENDBRANCH   1  12
BRANCH   2  18
HETATM   18  C11 UNK     1      33.388  -7.264  36.823  1.00  0.00    -0.035 A 
HETATM   19  C16 UNK     1      33.709  -7.894  35.630  1.00  0.00     0.011 A 
HETATM   20  C19 UNK     1      34.804  -7.446  34.892  1.00  0.00     0.001 A 
HETATM   21  C21 UNK     1      35.566  -6.373  35.356  1.00  0.00     0.000 A 
HETATM   22  C20 UNK     1      35.233  -5.749  36.557  1.00  0.00     0.001 A 
HETATM   23  C17 UNK     1      34.138  -6.197  37.296  1.00  0.00     0.011 A 
ENDBRANCH   2  18
TORSDOF 3
ENDMDL
MODEL 9
REMARK VINA RESULT:      -6.9      2.536      5.081
REMARK  3 active torsions:
REMARK  status: ('A' for Active; 'I' for Inactive)
REMARK       I    between atoms: C7_9  and  N1_2 
REMARK    1  A    between atoms: C7_9  and  C8_10 
REMARK    2  A    between atoms: C8_10  and  C9_11 
REMARK    3  A    between atoms: C10_12  and  C11_13 
ROOT
HETATM    1  C8  UNK     1      29.514  -6.344  35.153  1.00  0.00     0.043 C 
HETATM    2  C10 UNK     1      28.391  -6.814  34.583  1.00  0.00     0.029 C 
ENDROOT
BRANCH   1   3
HETATM    3  C7  UNK     1      30.714  -6.380  34.292  1.00  0.00     0.255 C 
HETATM    4  O1  UNK     1      30.880  -5.440  33.513  1.00  0.00    -0.267 OA
HETATM    5  N1  UNK     1      31.579  -7.470  34.418  1.00  0.00    -0.344 N 
HETATM    6  C1  UNK     1      31.474  -8.535  35.446  1.00  0.00     0.083 C 
HETATM    7  C5  UNK     1      32.775  -7.508  33.567  1.00  0.00     0.126 C 
HETATM    8  C2  UNK     1      31.766  -9.923  34.851  1.00  0.00     0.025 C 
HETATM    9  C6  UNK     1      32.367  -8.222  36.649  1.00  0.00     0.032 C 
HETATM   10  C3  UNK     1      33.046  -9.962  34.025  1.00  0.00     0.004 C 
HETATM   11  C4  UNK     1      33.010  -8.881  32.952  1.00  0.00     0.020 C 
ENDBRANCH   1   3
BRANCH   1  12
HETATM   12  C9  UNK     1      29.622  -5.820  36.521  1.00  0.00    -0.021 A 
HETATM   13  C12 UNK     1      30.616  -4.902  36.826  1.00  0.00     0.012 A 
HETATM   14  C14 UNK     1      30.718  -4.405  38.125  1.00  0.00     0.001 A 
HETATM   15  C18 UNK     1      29.824  -4.832  39.107  1.00  0.00     0.000 A 
HETATM   16  C15 UNK     1      28.829  -5.756  38.789  1.00  0.00     0.001 A 
HETATM   17  C13 UNK     1      28.728  -6.254  37.490  1.00  0.00     0.012 A 
ENDBRANCH   1  12
BRANCH   2  18
HETATM   18  C11 UNK     1      28.277  -7.339  33.215  1.00  0.00    -0.035 A 
HETATM   19  C16 UNK     1      27.734  -6.539  32.220  1.00  0.00     0.011 A 
HETATM   20  C19 UNK     1      27.625  -7.038  30.923  1.00  0.00     0.001 A 
HETATM   21  C21 UNK     1      28.060  -8.332  30.634  1.00  0.00     0.000 A 
HETATM   22  C20 UNK     1      28.604  -9.126  31.643  1.00  0.00     0.001 A 
HETATM   23  C17 UNK     1      28.713  -8.627  32.941  1.00  0.00     0.011 A 
ENDBRANCH   2  18
TORSDOF 3
ENDMDL
MODEL 10
REMARK VINA RESULT:      -6.8      1.998      5.624
REMARK  3 active torsions:
REMARK  status: ('A' for Active; 'I' for Inactive)
REMARK       I    between atoms: C7_9  and  N1_2 
REMARK    1  A    between atoms: C7_9  and  C8_10 
REMARK    2  A    between atoms: C8_10  and  C9_11 
REMARK    3  A    between atoms: C10_12  and  C11_13 
ROOT
HETATM    1  C8  UNK     1      28.526  -7.755  34.288  1.00  0.00     0.043 C 
HETATM    2  C10 UNK     1      27.911  -6.939  35.161  1.00  0.00     0.029 C 
ENDROOT
BRANCH   1   3
HETATM    3  C7  UNK     1      29.487  -8.703  34.889  1.00  0.00     0.255 C 
HETATM    4  O1  UNK     1      29.045  -9.785  35.279  1.00  0.00    -0.267 OA
HETATM    5  N1  UNK     1      30.826  -8.314  34.974  1.00  0.00    -0.344 N 
HETATM    6  C1  UNK     1      31.400  -7.080  34.383  1.00  0.00     0.083 C 
HETATM    7  C5  UNK     1      31.785  -9.254  35.567  1.00  0.00     0.126 C 
HETATM    8  C2  UNK     1      32.409  -6.416  35.335  1.00  0.00     0.025 C 
HETATM    9  C6  UNK     1      32.006  -7.365  33.007  1.00  0.00     0.032 C 
HETATM   10  C3  UNK     1      33.439  -7.393  35.891  1.00  0.00     0.004 C 
HETATM   11  C4  UNK     1      32.738  -8.577  36.543  1.00  0.00     0.020 C 
ENDBRANCH   1   3
BRANCH   1  12
HETATM   12  C9  UNK     1      28.316  -7.764  32.834  1.00  0.00    -0.021 A 
HETATM   13  C12 UNK     1      28.663  -8.888  32.100  1.00  0.00     0.012 A 
HETATM   14  C14 UNK     1      28.463  -8.897  30.719  1.00  0.00     0.001 A 
HETATM   15  C18 UNK     1      27.917  -7.779  30.088  1.00  0.00     0.000 A 
HETATM   16  C15 UNK     1      27.572  -6.654  30.836  1.00  0.00     0.001 A 
HETATM   17  C13 UNK     1      27.772  -6.646  32.216  1.00  0.00     0.012 A 
ENDBRANCH   1  12
BRANCH   2  18
HETATM   18  C11 UNK     1      28.117  -6.925  36.617  1.00  0.00    -0.035 A 
HETATM   19  C16 UNK     1      29.131  -6.145  37.154  1.00  0.00     0.011 A 
HETATM   20  C19 UNK     1      29.327  -6.133  38.535  1.00  0.00     0.001 A 
HETATM   21  C21 UNK     1      28.506  -6.899  39.363  1.00  0.00     0.000 A 
HETATM   22  C20 UNK     1      27.491  -7.679  38.810  1.00  0.00     0.001 A 
HETATM   23  C17 UNK     1      27.295  -7.692  37.429  1.00  0.00     0.011 A 
ENDBRANCH   2  18
TORSDOF 3
ENDMDL
