MODEL 1
REMARK VINA RESULT:      -9.0      0.000      0.000
REMARK  6 active torsions:
REMARK  status: ('A' for Active; 'I' for Inactive)
REMARK    1  A    between atoms: C1_6  and  N1_5 
REMARK       I    between atoms: C14_19  and  N1_5 
REMARK    2  A    between atoms: C1_6  and  C3_8 
REMARK    3  A    between atoms: C1_6  and  C5_10 
REMARK    4  A    between atoms: C2_7  and  C4_9 
REMARK    5  A    between atoms: C2_7  and  C6_11 
REMARK    6  A    between atoms: C14_19  and  C15_20 
ROOT
HETATM    1  O2  UNK     1      20.910  -4.015  37.777  1.00  0.00    -0.267 OA
HETATM    2  N1  UNK     1      19.370  -3.876  36.032  1.00  0.00    -0.348 N 
HETATM    3  C14 UNK     1      20.150  -4.538  36.963  1.00  0.00     0.258 C 
HETATM    4  H14 UNK     1      18.792  -4.404  35.386  1.00  0.00     0.163 HD
ENDROOT
BRANCH   2   5
HETATM    5  C1  UNK     1      19.352  -2.437  35.899  1.00  0.00     0.117 C 
BRANCH   5   6
HETATM    6  C3  UNK     1      19.469  -2.036  34.443  1.00  0.00    -0.035 A 
HETATM    7  C7  UNK     1      20.442  -2.626  33.657  1.00  0.00     0.010 A 
HETATM    8  C9  UNK     1      20.550  -2.257  32.316  1.00  0.00     0.008 A 
HETATM    9  C4  UNK     1      19.683  -1.304  31.784  1.00  0.00    -0.054 A 
HETATM   10  C10 UNK     1      18.706  -0.720  32.592  1.00  0.00     0.008 A 
HETATM   11  C8  UNK     1      18.600  -1.089  33.933  1.00  0.00     0.010 A 
BRANCH   9  12
HETATM   12  C2  UNK     1      19.798  -0.909  30.351  1.00  0.00     0.014 C 
HETATM   13  C11 UNK     1      20.820  -1.786  29.598  1.00  0.00     0.015 C 
BRANCH  12  14
HETATM   14  C6  UNK     1      20.172   0.583  30.126  1.00  0.00     0.004 C 
HETATM   15  C13 UNK     1      19.057   1.374  29.454  1.00  0.00     0.006 C 
ENDBRANCH  12  14
ENDBRANCH   9  12
ENDBRANCH   5   6
BRANCH   5  16
HETATM   16  C5  UNK     1      18.106  -1.820  36.558  1.00  0.00     0.025 C 
HETATM   17  C12 UNK     1      18.344  -1.442  38.015  1.00  0.00     0.007 C 
ENDBRANCH   5  16
ENDBRANCH   2   5
BRANCH   3  18
HETATM   18  C15 UNK     1      19.994  -5.995  36.906  1.00  0.00     0.108 A 
HETATM   19  C16 UNK     1      21.110  -6.702  36.692  1.00  0.00     0.037 A 
HETATM   20  C17 UNK     1      21.056  -8.154  36.620  1.00  0.00     0.001 A 
HETATM   21  C19 UNK     1      19.829  -8.791  36.778  1.00  0.00     0.089 A 
HETATM   22  C20 UNK     1      22.195  -8.932  36.398  1.00  0.00     0.038 A 
HETATM   23  O1  UNK     1      18.658  -8.041  37.003  1.00  0.00    -0.274 OA
HETATM   24  C21 UNK     1      19.709 -10.177  36.719  1.00  0.00     0.040 A 
HETATM   25  C18 UNK     1      18.678  -6.651  37.076  1.00  0.00     0.304 A 
HETATM   26  O3  UNK     1      17.654  -6.007  37.273  1.00  0.00    -0.259 OA
HETATM   27  C23 UNK     1      20.850 -10.946  36.497  1.00  0.00     0.026 A 
HETATM   28  C22 UNK     1      22.091 -10.324  36.337  1.00  0.00     0.035 A 
HETATM   29 Cl1  UNK     1      23.497 -11.279  36.064  1.00  0.00    -0.084 Cl
ENDBRANCH   3  18
TORSDOF 6
ENDMDL
MODEL 2
REMARK VINA RESULT:      -8.7     27.400     29.374
REMARK  6 active torsions:
REMARK  status: ('A' for Active; 'I' for Inactive)
REMARK    1  A    between atoms: C1_6  and  N1_5 
REMARK       I    between atoms: C14_19  and  N1_5 
REMARK    2  A    between atoms: C1_6  and  C3_8 
REMARK    3  A    between atoms: C1_6  and  C5_10 
REMARK    4  A    between atoms: C2_7  and  C4_9 
REMARK    5  A    between atoms: C2_7  and  C6_11 
REMARK    6  A    between atoms: C14_19  and  C15_20 
ROOT
HETATM    1  O2  UNK     1       7.011   7.012   8.915  1.00  0.00    -0.267 OA
HETATM    2  N1  UNK     1       8.863   5.597   8.860  1.00  0.00    -0.348 N 
HETATM    3  C14 UNK     1       7.591   5.979   9.245  1.00  0.00     0.258 C 
HETATM    4  H14 UNK     1       9.261   4.731   9.209  1.00  0.00     0.163 HD
ENDROOT
BRANCH   2   5
HETATM    5  C1  UNK     1       9.696   6.395   7.990  1.00  0.00     0.117 C 
BRANCH   5   6
HETATM    6  C3  UNK     1      11.156   6.245   8.366  1.00  0.00    -0.035 A 
HETATM    7  C7  UNK     1      11.797   5.046   8.113  1.00  0.00     0.010 A 
HETATM    8  C9  UNK     1      13.142   4.908   8.460  1.00  0.00     0.008 A 
HETATM    9  C4  UNK     1      13.822   5.971   9.053  1.00  0.00    -0.054 A 
HETATM   10  C10 UNK     1      13.158   7.173   9.300  1.00  0.00     0.008 A 
HETATM   11  C8  UNK     1      11.813   7.311   8.955  1.00  0.00     0.010 A 
BRANCH   9  12
HETATM   12  C2  UNK     1      15.258   5.824   9.424  1.00  0.00     0.014 C 
HETATM   13  C11 UNK     1      15.568   4.407   9.951  1.00  0.00     0.015 C 
BRANCH  12  14
HETATM   14  C6  UNK     1      15.758   6.857  10.473  1.00  0.00     0.004 C 
HETATM   15  C13 UNK     1      17.115   7.448  10.115  1.00  0.00     0.006 C 
ENDBRANCH  12  14
ENDBRANCH   9  12
ENDBRANCH   5   6
BRANCH   5  16
HETATM   16  C5  UNK     1       9.456   6.061   6.508  1.00  0.00     0.025 C 
HETATM   17  C12 UNK     1      10.397   6.820   5.579  1.00  0.00     0.007 C 
ENDBRANCH   5  16
ENDBRANCH   2   5
BRANCH   3  18
HETATM   18  C15 UNK     1       6.944   5.001  10.127  1.00  0.00     0.108 A 
HETATM   19  C16 UNK     1       6.680   5.412  11.373  1.00  0.00     0.037 A 
HETATM   20  C17 UNK     1       6.039   4.514  12.321  1.00  0.00     0.001 A 
HETATM   21  C19 UNK     1       5.707   3.227  11.910  1.00  0.00     0.089 A 
HETATM   22  C20 UNK     1       5.746   4.899  13.632  1.00  0.00     0.038 A 
HETATM   23  O1  UNK     1       5.986   2.800  10.597  1.00  0.00    -0.274 OA
HETATM   24  C21 UNK     1       5.093   2.318  12.769  1.00  0.00     0.040 A 
HETATM   25  C18 UNK     1       6.599   3.637   9.667  1.00  0.00     0.304 A 
HETATM   26  O3  UNK     1       6.839   3.257   8.527  1.00  0.00    -0.259 OA
HETATM   27  C23 UNK     1       4.803   2.711  14.074  1.00  0.00     0.026 A 
HETATM   28  C22 UNK     1       5.130   3.999  14.504  1.00  0.00     0.035 A 
HETATM   29 Cl1  UNK     1       4.769   4.479  16.118  1.00  0.00    -0.084 Cl
ENDBRANCH   3  18
TORSDOF 6
ENDMDL
MODEL 3
REMARK VINA RESULT:      -8.5      6.850     10.078
REMARK  6 active torsions:
REMARK  status: ('A' for Active; 'I' for Inactive)
REMARK    1  A    between atoms: C1_6  and  N1_5 
REMARK       I    between atoms: C14_19  and  N1_5 
REMARK    2  A    between atoms: C1_6  and  C3_8 
REMARK    3  A    between atoms: C1_6  and  C5_10 
REMARK    4  A    between atoms: C2_7  and  C4_9 
REMARK    5  A    between atoms: C2_7  and  C6_11 
REMARK    6  A    between atoms: C14_19  and  C15_20 
ROOT
HETATM    1  O2  UNK     1      17.228   2.817  30.515  1.00  0.00    -0.267 OA
HETATM    2  N1  UNK     1      18.778   4.048  31.747  1.00  0.00    -0.348 N 
HETATM    3  C14 UNK     1      18.054   2.916  31.422  1.00  0.00     0.258 C 
HETATM    4  H14 UNK     1      19.420   4.031  32.534  1.00  0.00     0.163 HD
ENDROOT
BRANCH   2   5
HETATM    5  C1  UNK     1      18.649   5.298  31.035  1.00  0.00     0.117 C 
BRANCH   5   6
HETATM    6  C3  UNK     1      17.934   6.326  31.889  1.00  0.00    -0.035 A 
HETATM    7  C7  UNK     1      17.235   7.346  31.272  1.00  0.00     0.010 A 
HETATM    8  C9  UNK     1      16.576   8.292  32.059  1.00  0.00     0.008 A 
HETATM    9  C4  UNK     1      16.629   8.200  33.449  1.00  0.00    -0.054 A 
HETATM   10  C10 UNK     1      17.339   7.162  34.054  1.00  0.00     0.008 A 
HETATM   11  C8  UNK     1      17.998   6.218  33.267  1.00  0.00     0.010 A 
BRANCH   9  12
HETATM   12  C2  UNK     1      15.926   9.210  34.291  1.00  0.00     0.014 C 
HETATM   13  C11 UNK     1      14.395   9.029  34.239  1.00  0.00     0.015 C 
BRANCH  12  14
HETATM   14  C6  UNK     1      16.258  10.686  33.932  1.00  0.00     0.004 C 
HETATM   15  C13 UNK     1      17.718  11.039  34.184  1.00  0.00     0.006 C 
ENDBRANCH  12  14
ENDBRANCH   9  12
ENDBRANCH   5   6
BRANCH   5  16
HETATM   16  C5  UNK     1      20.012   5.818  30.545  1.00  0.00     0.025 C 
HETATM   17  C12 UNK     1      21.041   5.902  31.666  1.00  0.00     0.007 C 
ENDBRANCH   5  16
ENDBRANCH   2   5
BRANCH   3  18
HETATM   18  C15 UNK     1      18.362   1.772  32.287  1.00  0.00     0.108 A 
HETATM   19  C16 UNK     1      18.026   1.898  33.577  1.00  0.00     0.037 A 
HETATM   20  C17 UNK     1      18.290   0.817  34.513  1.00  0.00     0.001 A 
HETATM   21  C19 UNK     1      18.897  -0.345  34.045  1.00  0.00     0.089 A 
HETATM   22  C20 UNK     1      17.957   0.904  35.867  1.00  0.00     0.038 A 
HETATM   23  O1  UNK     1      19.249  -0.472  32.687  1.00  0.00    -0.274 OA
HETATM   24  C21 UNK     1      19.180  -1.417  34.890  1.00  0.00     0.040 A 
HETATM   25  C18 UNK     1      19.009   0.546  31.768  1.00  0.00     0.304 A 
HETATM   26  O3  UNK     1      19.318   0.427  30.588  1.00  0.00    -0.259 OA
HETATM   27  C23 UNK     1      18.843  -1.321  36.239  1.00  0.00     0.026 A 
HETATM   28  C22 UNK     1      18.233  -0.163  36.726  1.00  0.00     0.035 A 
HETATM   29 Cl1  UNK     1      17.819  -0.051  38.393  1.00  0.00    -0.084 Cl
ENDBRANCH   3  18
TORSDOF 6
ENDMDL
MODEL 4
REMARK VINA RESULT:      -8.2      6.191      9.743
REMARK  6 active torsions:
REMARK  status: ('A' for Active; 'I' for Inactive)
REMARK    1  A    between atoms: C1_6  and  N1_5 
REMARK       I    between atoms: C14_19  and  N1_5 
REMARK    2  A    between atoms: C1_6  and  C3_8 
REMARK    3  A    between atoms: C1_6  and  C5_10 
REMARK    4  A    between atoms: C2_7  and  C4_9 
REMARK    5  A    between atoms: C2_7  and  C6_11 
REMARK    6  A    between atoms: C14_19  and  C15_20 
ROOT
HETATM    1  O2  UNK     1      26.866 -10.522  38.960  1.00  0.00    -0.267 OA
HETATM    2  N1  UNK     1      25.765  -9.437  37.215  1.00  0.00    -0.348 N 
HETATM    3  C14 UNK     1      26.736  -9.571  38.191  1.00  0.00     0.258 C 
HETATM    4  H14 UNK     1      25.729  -8.597  36.646  1.00  0.00     0.163 HD
ENDROOT
BRANCH   2   5
HETATM    5  C1  UNK     1      24.749 -10.435  36.971  1.00  0.00     0.117 C 
BRANCH   5   6
HETATM    6  C3  UNK     1      23.445  -9.779  36.566  1.00  0.00    -0.035 A 
HETATM    7  C7  UNK     1      23.049  -8.616  37.200  1.00  0.00     0.010 A 
HETATM    8  C9  UNK     1      21.848  -8.012  36.826  1.00  0.00     0.008 A 
HETATM    9  C4  UNK     1      21.064  -8.582  35.824  1.00  0.00    -0.054 A 
HETATM   10  C10 UNK     1      21.481  -9.755  35.194  1.00  0.00     0.008 A 
HETATM   11  C8  UNK     1      22.680 -10.359  35.569  1.00  0.00     0.010 A 
BRANCH   9  12
HETATM   12  C2  UNK     1      19.781  -7.937  35.424  1.00  0.00     0.014 C 
HETATM   13  C11 UNK     1      19.962  -6.429  35.150  1.00  0.00     0.015 C 
BRANCH  12  14
HETATM   14  C6  UNK     1      18.628  -8.113  36.451  1.00  0.00     0.004 C 
HETATM   15  C13 UNK     1      18.146  -6.788  37.028  1.00  0.00     0.006 C 
ENDBRANCH  12  14
ENDBRANCH   9  12
ENDBRANCH   5   6
BRANCH   5  16
HETATM   16  C5  UNK     1      25.209 -11.473  35.933  1.00  0.00     0.025 C 
HETATM   17  C12 UNK     1      24.840 -12.898  36.330  1.00  0.00     0.007 C 
ENDBRANCH   5  16
ENDBRANCH   2   5
BRANCH   3  18
HETATM   18  C15 UNK     1      27.655  -8.428  38.243  1.00  0.00     0.108 A 
HETATM   19  C16 UNK     1      28.957  -8.710  38.115  1.00  0.00     0.037 A 
HETATM   20  C17 UNK     1      29.945  -7.644  38.152  1.00  0.00     0.001 A 
HETATM   21  C19 UNK     1      29.514  -6.332  38.323  1.00  0.00     0.089 A 
HETATM   22  C20 UNK     1      31.314  -7.891  38.024  1.00  0.00     0.038 A 
HETATM   23  O1  UNK     1      28.142  -6.041  38.456  1.00  0.00    -0.274 OA
HETATM   24  C21 UNK     1      30.409  -5.265  38.369  1.00  0.00     0.040 A 
HETATM   25  C18 UNK     1      27.173  -7.041  38.425  1.00  0.00     0.304 A 
HETATM   26  O3  UNK     1      25.981  -6.779  38.542  1.00  0.00    -0.259 OA
HETATM   27  C23 UNK     1      31.772  -5.521  38.239  1.00  0.00     0.026 A 
HETATM   28  C22 UNK     1      32.224  -6.832  38.067  1.00  0.00     0.035 A 
HETATM   29 Cl1  UNK     1      33.910  -7.141  37.907  1.00  0.00    -0.084 Cl
ENDBRANCH   3  18
TORSDOF 6
ENDMDL
MODEL 5
REMARK VINA RESULT:      -8.0      6.010      9.501
REMARK  6 active torsions:
REMARK  status: ('A' for Active; 'I' for Inactive)
REMARK    1  A    between atoms: C1_6  and  N1_5 
REMARK       I    between atoms: C14_19  and  N1_5 
REMARK    2  A    between atoms: C1_6  and  C3_8 
REMARK    3  A    between atoms: C1_6  and  C5_10 
REMARK    4  A    between atoms: C2_7  and  C4_9 
REMARK    5  A    between atoms: C2_7  and  C6_11 
REMARK    6  A    between atoms: C14_19  and  C15_20 
ROOT
HETATM    1  O2  UNK     1      24.261 -10.230  36.279  1.00  0.00    -0.267 OA
HETATM    2  N1  UNK     1      25.315  -8.785  37.776  1.00  0.00    -0.348 N 
HETATM    3  C14 UNK     1      24.230  -9.313  37.099  1.00  0.00     0.258 C 
HETATM    4  H14 UNK     1      25.185  -8.009  38.416  1.00  0.00     0.163 HD
ENDROOT
BRANCH   2   5
HETATM    5  C1  UNK     1      26.666  -9.265  37.595  1.00  0.00     0.117 C 
BRANCH   5   6
HETATM    6  C3  UNK     1      27.664  -8.157  37.862  1.00  0.00    -0.035 A 
HETATM    7  C7  UNK     1      27.237  -7.002  38.489  1.00  0.00     0.010 A 
HETATM    8  C9  UNK     1      28.156  -5.981  38.735  1.00  0.00     0.008 A 
HETATM    9  C4  UNK     1      29.487  -6.135  38.349  1.00  0.00    -0.054 A 
HETATM   10  C10 UNK     1      29.900  -7.310  37.718  1.00  0.00     0.008 A 
HETATM   11  C8  UNK     1      28.980  -8.328  37.472  1.00  0.00     0.010 A 
BRANCH   9  12
HETATM   12  C2  UNK     1      30.471  -5.045  38.611  1.00  0.00     0.014 C 
HETATM   13  C11 UNK     1      30.198  -3.809  37.729  1.00  0.00     0.015 C 
BRANCH  12  14
HETATM   14  C6  UNK     1      31.956  -5.464  38.423  1.00  0.00     0.004 C 
HETATM   15  C13 UNK     1      32.592  -4.836  37.190  1.00  0.00     0.006 C 
ENDBRANCH  12  14
ENDBRANCH   9  12
ENDBRANCH   5   6
BRANCH   5  16
HETATM   16  C5  UNK     1      26.949 -10.505  38.462  1.00  0.00     0.025 C 
HETATM   17  C12 UNK     1      27.088 -10.163  39.941  1.00  0.00     0.007 C 
ENDBRANCH   5  16
ENDBRANCH   2   5
BRANCH   3  18
HETATM   18  C15 UNK     1      22.964  -8.662  37.453  1.00  0.00     0.108 A 
HETATM   19  C16 UNK     1      21.992  -8.720  36.535  1.00  0.00     0.037 A 
HETATM   20  C17 UNK     1      20.700  -8.104  36.795  1.00  0.00     0.001 A 
HETATM   21  C19 UNK     1      20.495  -7.457  38.010  1.00  0.00     0.089 A 
HETATM   22  C20 UNK     1      19.657  -8.139  35.867  1.00  0.00     0.038 A 
HETATM   23  O1  UNK     1      21.522  -7.399  38.972  1.00  0.00    -0.274 OA
HETATM   24  C21 UNK     1      19.283  -6.845  38.321  1.00  0.00     0.040 A 
HETATM   25  C18 UNK     1      22.769  -7.979  38.752  1.00  0.00     0.304 A 
HETATM   26  O3  UNK     1      23.657  -7.924  39.595  1.00  0.00    -0.259 OA
HETATM   27  C23 UNK     1      18.247  -6.886  37.389  1.00  0.00     0.026 A 
HETATM   28  C22 UNK     1      18.434  -7.531  36.164  1.00  0.00     0.035 A 
HETATM   29 Cl1  UNK     1      17.151  -7.579  35.017  1.00  0.00    -0.084 Cl
ENDBRANCH   3  18
TORSDOF 6
ENDMDL
MODEL 6
REMARK VINA RESULT:      -8.0      7.006     10.277
REMARK  6 active torsions:
REMARK  status: ('A' for Active; 'I' for Inactive)
REMARK    1  A    between atoms: C1_6  and  N1_5 
REMARK       I    between atoms: C14_19  and  N1_5 
REMARK    2  A    between atoms: C1_6  and  C3_8 
REMARK    3  A    between atoms: C1_6  and  C5_10 
REMARK    4  A    between atoms: C2_7  and  C4_9 
REMARK    5  A    between atoms: C2_7  and  C6_11 
REMARK    6  A    between atoms: C14_19  and  C15_20 
ROOT
HETATM    1  O2  UNK     1      27.935  -8.180  39.806  1.00  0.00    -0.267 OA
HETATM    2  N1  UNK     1      26.805  -7.889  37.788  1.00  0.00    -0.348 N 
HETATM    3  C14 UNK     1      27.778  -7.606  38.730  1.00  0.00     0.258 C 
HETATM    4  H14 UNK     1      26.745  -7.337  36.938  1.00  0.00     0.163 HD
ENDROOT
BRANCH   2   5
HETATM    5  C1  UNK     1      25.819  -8.931  37.962  1.00  0.00     0.117 C 
BRANCH   5   6
HETATM    6  C3  UNK     1      24.435  -8.333  38.113  1.00  0.00    -0.035 A 
HETATM    7  C7  UNK     1      24.215  -7.381  39.091  1.00  0.00     0.010 A 
HETATM    8  C9  UNK     1      22.940  -6.830  39.229  1.00  0.00     0.008 A 
HETATM    9  C4  UNK     1      21.908  -7.243  38.388  1.00  0.00    -0.054 A 
HETATM   10  C10 UNK     1      22.149  -8.205  37.406  1.00  0.00     0.008 A 
HETATM   11  C8  UNK     1      23.423  -8.755  37.269  1.00  0.00     0.010 A 
BRANCH   9  12
HETATM   12  C2  UNK     1      20.545  -6.656  38.536  1.00  0.00     0.014 C 
HETATM   13  C11 UNK     1      19.472  -7.748  38.729  1.00  0.00     0.015 C 
BRANCH  12  14
HETATM   14  C6  UNK     1      20.109  -5.743  37.355  1.00  0.00     0.004 C 
HETATM   15  C13 UNK     1      20.610  -4.312  37.502  1.00  0.00     0.006 C 
ENDBRANCH  12  14
ENDBRANCH   9  12
ENDBRANCH   5   6
BRANCH   5  16
HETATM   16  C5  UNK     1      25.871  -9.959  36.819  1.00  0.00     0.025 C 
HETATM   17  C12 UNK     1      27.197  -9.930  36.068  1.00  0.00     0.007 C 
ENDBRANCH   5  16
ENDBRANCH   2   5
BRANCH   3  18
HETATM   18  C15 UNK     1      28.663  -6.509  38.324  1.00  0.00     0.108 A 
HETATM   19  C16 UNK     1      29.829  -6.863  37.770  1.00  0.00     0.037 A 
HETATM   20  C17 UNK     1      30.773  -5.846  37.335  1.00  0.00     0.001 A 
HETATM   21  C19 UNK     1      30.443  -4.505  37.505  1.00  0.00     0.089 A 
HETATM   22  C20 UNK     1      32.001  -6.169  36.752  1.00  0.00     0.038 A 
HETATM   23  O1  UNK     1      29.215  -4.138  38.089  1.00  0.00    -0.274 OA
HETATM   24  C21 UNK     1      31.303  -3.482  37.112  1.00  0.00     0.040 A 
HETATM   25  C18 UNK     1      28.291  -5.089  38.515  1.00  0.00     0.304 A 
HETATM   26  O3  UNK     1      27.225  -4.761  39.022  1.00  0.00    -0.259 OA
HETATM   27  C23 UNK     1      32.526  -3.813  36.531  1.00  0.00     0.026 A 
HETATM   28  C22 UNK     1      32.874  -5.154  36.352  1.00  0.00     0.035 A 
HETATM   29 Cl1  UNK     1      34.385  -5.557  35.632  1.00  0.00    -0.084 Cl
ENDBRANCH   3  18
TORSDOF 6
ENDMDL
MODEL 7
REMARK VINA RESULT:      -8.0     17.782     21.861
REMARK  6 active torsions:
REMARK  status: ('A' for Active; 'I' for Inactive)
REMARK    1  A    between atoms: C1_6  and  N1_5 
REMARK       I    between atoms: C14_19  and  N1_5 
REMARK    2  A    between atoms: C1_6  and  C3_8 
REMARK    3  A    between atoms: C1_6  and  C5_10 
REMARK    4  A    between atoms: C2_7  and  C4_9 
REMARK    5  A    between atoms: C2_7  and  C6_11 
REMARK    6  A    between atoms: C14_19  and  C15_20 
ROOT
HETATM    1  O2  UNK     1      17.610  -3.258  15.610  1.00  0.00    -0.267 OA
HETATM    2  N1  UNK     1      19.891  -3.297  15.132  1.00  0.00    -0.348 N 
HETATM    3  C14 UNK     1      18.711  -2.712  15.553  1.00  0.00     0.258 C 
HETATM    4  H14 UNK     1      20.745  -2.749  15.099  1.00  0.00     0.163 HD
ENDROOT
BRANCH   2   5
HETATM    5  C1  UNK     1      19.978  -4.671  14.692  1.00  0.00     0.117 C 
BRANCH   5   6
HETATM    6  C3  UNK     1      20.202  -4.737  13.195  1.00  0.00    -0.035 A 
HETATM    7  C7  UNK     1      20.234  -3.563  12.466  1.00  0.00     0.010 A 
HETATM    8  C9  UNK     1      20.440  -3.625  11.087  1.00  0.00     0.008 A 
HETATM    9  C4  UNK     1      20.611  -4.860  10.462  1.00  0.00    -0.054 A 
HETATM   10  C10 UNK     1      20.577  -6.034  11.216  1.00  0.00     0.008 A 
HETATM   11  C8  UNK     1      20.370  -5.972  12.594  1.00  0.00     0.010 A 
BRANCH   9  12
HETATM   12  C2  UNK     1      20.831  -4.926   8.989  1.00  0.00     0.014 C 
HETATM   13  C11 UNK     1      22.267  -4.509   8.609  1.00  0.00     0.015 C 
BRANCH  12  14
HETATM   14  C6  UNK     1      19.835  -4.075   8.154  1.00  0.00     0.004 C 
HETATM   15  C13 UNK     1      20.528  -3.238   7.086  1.00  0.00     0.006 C 
ENDBRANCH  12  14
ENDBRANCH   9  12
ENDBRANCH   5   6
BRANCH   5  16
HETATM   16  C5  UNK     1      21.060  -5.447  15.463  1.00  0.00     0.025 C 
HETATM   17  C12 UNK     1      22.106  -4.529  16.084  1.00  0.00     0.007 C 
ENDBRANCH   5  16
ENDBRANCH   2   5
BRANCH   3  18
HETATM   18  C15 UNK     1      18.878  -1.311  15.952  1.00  0.00     0.108 A 
HETATM   19  C16 UNK     1      18.815  -1.058  17.266  1.00  0.00     0.037 A 
HETATM   20  C17 UNK     1      18.971   0.301  17.759  1.00  0.00     0.001 A 
HETATM   21  C19 UNK     1      19.185   1.329  16.846  1.00  0.00     0.089 A 
HETATM   22  C20 UNK     1      18.912   0.611  19.120  1.00  0.00     0.038 A 
HETATM   23  O1  UNK     1      19.250   1.057  15.465  1.00  0.00    -0.274 OA
HETATM   24  C21 UNK     1      19.340   2.652  17.252  1.00  0.00     0.040 A 
HETATM   25  C18 UNK     1      19.105  -0.234  14.963  1.00  0.00     0.304 A 
HETATM   26  O3  UNK     1      19.163  -0.461  13.760  1.00  0.00    -0.259 OA
HETATM   27  C23 UNK     1      19.280   2.952  18.612  1.00  0.00     0.026 A 
HETATM   28  C22 UNK     1      19.066   1.934  19.543  1.00  0.00     0.035 A 
HETATM   29 Cl1  UNK     1      18.995   2.311  21.222  1.00  0.00    -0.084 Cl
ENDBRANCH   3  18
TORSDOF 6
ENDMDL
MODEL 8
REMARK VINA RESULT:      -8.0     28.321     31.537
REMARK  6 active torsions:
REMARK  status: ('A' for Active; 'I' for Inactive)
REMARK    1  A    between atoms: C1_6  and  N1_5 
REMARK       I    between atoms: C14_19  and  N1_5 
REMARK    2  A    between atoms: C1_6  and  C3_8 
REMARK    3  A    between atoms: C1_6  and  C5_10 
REMARK    4  A    between atoms: C2_7  and  C4_9 
REMARK    5  A    between atoms: C2_7  and  C6_11 
REMARK    6  A    between atoms: C14_19  and  C15_20 
ROOT
HETATM    1  O2  UNK     1      14.495   9.607  11.088  1.00  0.00    -0.267 OA
HETATM    2  N1  UNK     1      14.958   8.011   9.452  1.00  0.00    -0.348 N 
HETATM    3  C14 UNK     1      15.044   9.258  10.044  1.00  0.00     0.258 C 
HETATM    4  H14 UNK     1      15.433   7.833   8.573  1.00  0.00     0.163 HD
ENDROOT
BRANCH   2   5
HETATM    5  C1  UNK     1      14.184   6.926  10.010  1.00  0.00     0.117 C 
BRANCH   5   6
HETATM    6  C3  UNK     1      12.959   6.655   9.160  1.00  0.00    -0.035 A 
HETATM    7  C7  UNK     1      11.979   7.625   9.063  1.00  0.00     0.010 A 
HETATM    8  C9  UNK     1      10.851   7.376   8.280  1.00  0.00     0.008 A 
HETATM    9  C4  UNK     1      10.724   6.160   7.608  1.00  0.00    -0.054 A 
HETATM   10  C10 UNK     1      11.724   5.194   7.718  1.00  0.00     0.008 A 
HETATM   11  C8  UNK     1      12.851   5.443   8.502  1.00  0.00     0.010 A 
BRANCH   9  12
HETATM   12  C2  UNK     1       9.518   5.893   6.772  1.00  0.00     0.014 C 
HETATM   13  C11 UNK     1       9.636   6.544   5.378  1.00  0.00     0.015 C 
BRANCH  12  14
HETATM   14  C6  UNK     1       8.179   6.348   7.415  1.00  0.00     0.004 C 
HETATM   15  C13 UNK     1       7.779   5.493   8.611  1.00  0.00     0.006 C 
ENDBRANCH  12  14
ENDBRANCH   9  12
ENDBRANCH   5   6
BRANCH   5  16
HETATM   16  C5  UNK     1      15.035   5.658  10.198  1.00  0.00     0.025 C 
HETATM   17  C12 UNK     1      16.411   5.778   9.553  1.00  0.00     0.007 C 
ENDBRANCH   5  16
ENDBRANCH   2   5
BRANCH   3  18
HETATM   18  C15 UNK     1      15.891  10.190   9.292  1.00  0.00     0.108 A 
HETATM   19  C16 UNK     1      15.280  11.267   8.782  1.00  0.00     0.037 A 
HETATM   20  C17 UNK     1      16.036  12.249   8.022  1.00  0.00     0.001 A 
HETATM   21  C19 UNK     1      17.401  12.049   7.834  1.00  0.00     0.089 A 
HETATM   22  C20 UNK     1      15.441  13.387   7.472  1.00  0.00     0.038 A 
HETATM   23  O1  UNK     1      18.039  10.914   8.372  1.00  0.00    -0.274 OA
HETATM   24  C21 UNK     1      18.182  12.950   7.114  1.00  0.00     0.040 A 
HETATM   25  C18 UNK     1      17.341   9.957   9.104  1.00  0.00     0.304 A 
HETATM   26  O3  UNK     1      17.904   8.973   9.569  1.00  0.00    -0.259 OA
HETATM   27  C23 UNK     1      17.580  14.083   6.570  1.00  0.00     0.026 A 
HETATM   28  C22 UNK     1      16.211  14.300   6.748  1.00  0.00     0.035 A 
HETATM   29 Cl1  UNK     1      15.472  15.701   6.074  1.00  0.00    -0.084 Cl
ENDBRANCH   3  18
TORSDOF 6
ENDMDL
MODEL 9
REMARK VINA RESULT:      -7.9      6.862      8.967
REMARK  6 active torsions:
REMARK  status: ('A' for Active; 'I' for Inactive)
REMARK    1  A    between atoms: C1_6  and  N1_5 
REMARK       I    between atoms: C14_19  and  N1_5 
REMARK    2  A    between atoms: C1_6  and  C3_8 
REMARK    3  A    between atoms: C1_6  and  C5_10 
REMARK    4  A    between atoms: C2_7  and  C4_9 
REMARK    5  A    between atoms: C2_7  and  C6_11 
REMARK    6  A    between atoms: C14_19  and  C15_20 
ROOT
HETATM    1  O2  UNK     1      27.656  -8.400  39.242  1.00  0.00    -0.267 OA
HETATM    2  N1  UNK     1      27.844  -6.637  37.729  1.00  0.00    -0.348 N 
HETATM    3  C14 UNK     1      27.175  -7.452  38.623  1.00  0.00     0.258 C 
HETATM    4  H14 UNK     1      27.347  -5.893  37.250  1.00  0.00     0.163 HD
ENDROOT
BRANCH   2   5
HETATM    5  C1  UNK     1      29.241  -6.806  37.400  1.00  0.00     0.117 C 
BRANCH   5   6
HETATM    6  C3  UNK     1      29.478  -6.537  35.928  1.00  0.00    -0.035 A 
HETATM    7  C7  UNK     1      28.436  -6.705  35.036  1.00  0.00     0.010 A 
HETATM    8  C9  UNK     1      28.654  -6.456  33.680  1.00  0.00     0.008 A 
HETATM    9  C4  UNK     1      29.912  -6.044  33.241  1.00  0.00    -0.054 A 
HETATM   10  C10 UNK     1      30.952  -5.879  34.157  1.00  0.00     0.008 A 
HETATM   11  C8  UNK     1      30.733  -6.129  35.512  1.00  0.00     0.010 A 
BRANCH   9  12
HETATM   12  C2  UNK     1      30.146  -5.779  31.793  1.00  0.00     0.014 C 
HETATM   13  C11 UNK     1      29.776  -4.330  31.412  1.00  0.00     0.015 C 
BRANCH  12  14
HETATM   14  C6  UNK     1      29.395  -6.745  30.835  1.00  0.00     0.004 C 
HETATM   15  C13 UNK     1      28.159  -6.110  30.210  1.00  0.00     0.006 C 
ENDBRANCH  12  14
ENDBRANCH   9  12
ENDBRANCH   5   6
BRANCH   5  16
HETATM   16  C5  UNK     1      30.144  -5.934  38.289  1.00  0.00     0.025 C 
HETATM   17  C12 UNK     1      29.541  -4.561  38.563  1.00  0.00     0.007 C 
ENDBRANCH   5  16
ENDBRANCH   2   5
BRANCH   3  18
HETATM   18  C15 UNK     1      25.766  -7.080  38.792  1.00  0.00     0.108 A 
HETATM   19  C16 UNK     1      24.885  -8.088  38.810  1.00  0.00     0.037 A 
HETATM   20  C17 UNK     1      23.466  -7.818  38.974  1.00  0.00     0.001 A 
HETATM   21  C19 UNK     1      23.042  -6.500  39.111  1.00  0.00     0.089 A 
HETATM   22  C20 UNK     1      22.511  -8.838  38.998  1.00  0.00     0.038 A 
HETATM   23  O1  UNK     1      23.974  -5.443  39.091  1.00  0.00    -0.274 OA
HETATM   24  C21 UNK     1      21.697  -6.174  39.269  1.00  0.00     0.040 A 
HETATM   25  C18 UNK     1      25.339  -5.670  38.936  1.00  0.00     0.304 A 
HETATM   26  O3  UNK     1      26.142  -4.744  38.920  1.00  0.00    -0.259 OA
HETATM   27  C23 UNK     1      20.752  -7.197  39.293  1.00  0.00     0.026 A 
HETATM   28  C22 UNK     1      21.159  -8.527  39.157  1.00  0.00     0.035 A 
HETATM   29 Cl1  UNK     1      19.986  -9.787  39.188  1.00  0.00    -0.084 Cl
ENDBRANCH   3  18
TORSDOF 6
ENDMDL
MODEL 10
REMARK VINA RESULT:      -7.9     28.229     30.394
REMARK  6 active torsions:
REMARK  status: ('A' for Active; 'I' for Inactive)
REMARK    1  A    between atoms: C1_6  and  N1_5 
REMARK       I    between atoms: C14_19  and  N1_5 
REMARK    2  A    between atoms: C1_6  and  C3_8 
REMARK    3  A    between atoms: C1_6  and  C5_10 
REMARK    4  A    between atoms: C2_7  and  C4_9 
REMARK    5  A    between atoms: C2_7  and  C6_11 
REMARK    6  A    between atoms: C14_19  and  C15_20 
ROOT
HETATM    1  O2  UNK     1      12.583   4.527   8.251  1.00  0.00    -0.267 OA
HETATM    2  N1  UNK     1      11.225   6.407   8.488  1.00  0.00    -0.348 N 
HETATM    3  C14 UNK     1      12.417   5.709   8.548  1.00  0.00     0.258 C 
HETATM    4  H14 UNK     1      11.189   7.378   8.780  1.00  0.00     0.163 HD
ENDROOT
BRANCH   2   5
HETATM    5  C1  UNK     1       9.983   5.810   8.052  1.00  0.00     0.117 C 
BRANCH   5   6
HETATM    6  C3  UNK     1       8.842   6.239   8.951  1.00  0.00    -0.035 A 
HETATM    7  C7  UNK     1       8.733   7.569   9.314  1.00  0.00     0.010 A 
HETATM    8  C9  UNK     1       7.682   7.964  10.141  1.00  0.00     0.008 A 
HETATM    9  C4  UNK     1       6.757   7.023  10.591  1.00  0.00    -0.054 A 
HETATM   10  C10 UNK     1       6.883   5.685  10.214  1.00  0.00     0.008 A 
HETATM   11  C8  UNK     1       7.935   5.290   9.387  1.00  0.00     0.010 A 
BRANCH   9  12
HETATM   12  C2  UNK     1       5.634   7.444  11.476  1.00  0.00     0.014 C 
HETATM   13  C11 UNK     1       5.155   8.874  11.147  1.00  0.00     0.015 C 
BRANCH  12  14
HETATM   14  C6  UNK     1       5.953   7.371  12.996  1.00  0.00     0.004 C 
HETATM   15  C13 UNK     1       5.510   6.058  13.627  1.00  0.00     0.006 C 
ENDBRANCH  12  14
ENDBRANCH   9  12
ENDBRANCH   5   6
BRANCH   5  16
HETATM   16  C5  UNK     1       9.690   6.122   6.574  1.00  0.00     0.025 C 
HETATM   17  C12 UNK     1      10.782   6.966   5.928  1.00  0.00     0.007 C 
ENDBRANCH   5  16
ENDBRANCH   2   5
BRANCH   3  18
HETATM   18  C15 UNK     1      13.537   6.532   9.018  1.00  0.00     0.108 A 
HETATM   19  C16 UNK     1      13.660   7.741   8.457  1.00  0.00     0.037 A 
HETATM   20  C17 UNK     1      14.738   8.630   8.858  1.00  0.00     0.001 A 
HETATM   21  C19 UNK     1      15.636   8.202   9.831  1.00  0.00     0.089 A 
HETATM   22  C20 UNK     1      14.905   9.900   8.300  1.00  0.00     0.038 A 
HETATM   23  O1  UNK     1      15.503   6.929  10.418  1.00  0.00    -0.274 OA
HETATM   24  C21 UNK     1      16.692   9.004  10.259  1.00  0.00     0.040 A 
HETATM   25  C18 UNK     1      14.481   6.056  10.055  1.00  0.00     0.304 A 
HETATM   26  O3  UNK     1      14.372   4.949  10.570  1.00  0.00    -0.259 OA
HETATM   27  C23 UNK     1      16.850  10.269   9.697  1.00  0.00     0.026 A 
HETATM   28  C22 UNK     1      15.958  10.716   8.719  1.00  0.00     0.035 A 
HETATM   29 Cl1  UNK     1      16.159  12.281   8.030  1.00  0.00    -0.084 Cl
ENDBRANCH   3  18
TORSDOF 6
ENDMDL
