MODEL 1
REMARK VINA RESULT:      -8.7      0.000      0.000
REMARK  3 active torsions:
REMARK  status: ('A' for Active; 'I' for Inactive)
REMARK    1  A    between atoms: C7_13  and  O2_3 
REMARK    2  A    between atoms: C11_17  and  N1_6 
REMARK       I    between atoms: C9_15  and  N1_6 
REMARK    3  A    between atoms: C3_9  and  C9_15 
ROOT
HETATM    1  O1  UNK     1      19.301   1.171  15.552  1.00  0.00    -0.274 OA
HETATM    2  O3  UNK     1      19.400  -0.320  13.824  1.00  0.00    -0.259 OA
HETATM    3  C1  UNK     1      18.888   0.367  17.809  1.00  0.00     0.002 A 
HETATM    4  C2  UNK     1      19.125   1.417  16.928  1.00  0.00     0.089 A 
HETATM    5  C3  UNK     1      18.992  -1.218  15.979  1.00  0.00     0.108 A 
HETATM    6  C4  UNK     1      18.824  -0.990  17.287  1.00  0.00     0.037 A 
HETATM    7  C5  UNK     1      18.717   0.651  19.166  1.00  0.00     0.051 A 
HETATM    8  C6  UNK     1      19.197   2.738  17.364  1.00  0.00     0.041 A 
HETATM    9  C7  UNK     1      18.787   1.972  19.618  1.00  0.00     0.069 A 
HETATM   10  C8  UNK     1      19.246  -0.116  15.023  1.00  0.00     0.304 A 
HETATM   11  C10 UNK     1      19.026   3.013  18.719  1.00  0.00     0.039 A 
ENDROOT
BRANCH   5  12
HETATM   12  C9  UNK     1      18.910  -2.619  15.548  1.00  0.00     0.262 C 
HETATM   13  O4  UNK     1      17.899  -3.245  15.856  1.00  0.00    -0.267 OA
HETATM   14  N1  UNK     1      20.023  -3.036  14.836  1.00  0.00    -0.323 N 
HETATM   15  H5  UNK     1      20.764  -2.360  14.663  1.00  0.00     0.169 HD
BRANCH  14  16
HETATM   16  C11 UNK     1      20.266  -4.314  14.279  1.00  0.00     0.035 A 
HETATM   17  C12 UNK     1      20.772  -5.319  15.086  1.00  0.00     0.031 A 
HETATM   18  C14 UNK     1      21.012  -6.579  14.537  1.00  0.00     0.020 A 
HETATM   19  C16 UNK     1      20.740  -6.815  13.189  1.00  0.00     0.006 A 
HETATM   20  C15 UNK     1      20.230  -5.792  12.390  1.00  0.00     0.020 A 
HETATM   21  I1  UNK     1      21.096  -8.692  12.372  1.00  0.00    -0.045 I 
HETATM   22  C13 UNK     1      19.991  -4.533  12.939  1.00  0.00     0.031 A 
ENDBRANCH  14  16
ENDBRANCH   5  12
BRANCH   9  23
HETATM   23  O2  UNK     1      18.622   2.245  20.942  1.00  0.00    -0.356 OA
HETATM   24  C17 UNK     1      19.753   2.052  21.791  1.00  0.00     0.210 C 
ENDBRANCH   9  23
TORSDOF 3
ENDMDL
MODEL 2
REMARK VINA RESULT:      -8.7     14.282     17.799
REMARK  3 active torsions:
REMARK  status: ('A' for Active; 'I' for Inactive)
REMARK    1  A    between atoms: C7_13  and  O2_3 
REMARK    2  A    between atoms: C11_17  and  N1_6 
REMARK       I    between atoms: C9_15  and  N1_6 
REMARK    3  A    between atoms: C3_9  and  C9_15 
ROOT
HETATM    1  O1  UNK     1      19.029   1.589  28.731  1.00  0.00    -0.274 OA
HETATM    2  O3  UNK     1      18.209   3.713  28.918  1.00  0.00    -0.259 OA
HETATM    3  C1  UNK     1      19.540   0.318  30.740  1.00  0.00     0.002 A 
HETATM    4  C2  UNK     1      19.491   0.412  29.353  1.00  0.00     0.089 A 
HETATM    5  C3  UNK     1      18.671   2.570  30.943  1.00  0.00     0.108 A 
HETATM    6  C4  UNK     1      19.108   1.455  31.539  1.00  0.00     0.037 A 
HETATM    7  C5  UNK     1      20.004  -0.865  31.320  1.00  0.00     0.051 A 
HETATM    8  C6  UNK     1      19.891  -0.640  28.532  1.00  0.00     0.041 A 
HETATM    9  C7  UNK     1      20.409  -1.929  30.508  1.00  0.00     0.069 A 
HETATM   10  C8  UNK     1      18.609   2.693  29.469  1.00  0.00     0.304 A 
HETATM   11  C10 UNK     1      20.352  -1.817  29.117  1.00  0.00     0.039 A 
ENDROOT
BRANCH   5  12
HETATM   12  C9  UNK     1      18.257   3.662  31.832  1.00  0.00     0.262 C 
HETATM   13  O4  UNK     1      17.618   3.359  32.837  1.00  0.00    -0.267 OA
HETATM   14  N1  UNK     1      18.664   4.911  31.389  1.00  0.00    -0.323 N 
HETATM   15  H5  UNK     1      19.208   4.961  30.530  1.00  0.00     0.169 HD
BRANCH  14  16
HETATM   16  C11 UNK     1      18.436   6.164  32.003  1.00  0.00     0.035 A 
HETATM   17  C12 UNK     1      17.259   6.845  31.737  1.00  0.00     0.031 A 
HETATM   18  C14 UNK     1      17.033   8.081  32.343  1.00  0.00     0.020 A 
HETATM   19  C16 UNK     1      17.988   8.618  33.206  1.00  0.00     0.006 A 
HETATM   20  C15 UNK     1      19.168   7.921  33.463  1.00  0.00     0.020 A 
HETATM   21  I1  UNK     1      17.652  10.460  34.107  1.00  0.00    -0.045 I 
HETATM   22  C13 UNK     1      19.394   6.685  32.858  1.00  0.00     0.031 A 
ENDBRANCH  14  16
ENDBRANCH   5  12
BRANCH   9  23
HETATM   23  O2  UNK     1      20.860  -3.082  31.077  1.00  0.00    -0.356 OA
HETATM   24  C17 UNK     1      21.017  -3.087  32.495  1.00  0.00     0.210 C 
ENDBRANCH   9  23
TORSDOF 3
ENDMDL
MODEL 3
REMARK VINA RESULT:      -8.4      1.854      2.085
REMARK  3 active torsions:
REMARK  status: ('A' for Active; 'I' for Inactive)
REMARK    1  A    between atoms: C7_13  and  O2_3 
REMARK    2  A    between atoms: C11_17  and  N1_6 
REMARK       I    between atoms: C9_15  and  N1_6 
REMARK    3  A    between atoms: C3_9  and  C9_15 
ROOT
HETATM    1  O1  UNK     1      19.235   1.280  15.679  1.00  0.00    -0.274 OA
HETATM    2  O3  UNK     1      19.467  -0.196  13.951  1.00  0.00    -0.259 OA
HETATM    3  C1  UNK     1      19.036   0.444  17.953  1.00  0.00     0.002 A 
HETATM    4  C2  UNK     1      19.085   1.510  17.061  1.00  0.00     0.089 A 
HETATM    5  C3  UNK     1      19.282  -1.125  16.123  1.00  0.00     0.108 A 
HETATM    6  C4  UNK     1      19.141  -0.912  17.437  1.00  0.00     0.037 A 
HETATM    7  C5  UNK     1      18.886   0.712  19.316  1.00  0.00     0.051 A 
HETATM    8  C6  UNK     1      18.990   2.832  17.491  1.00  0.00     0.041 A 
HETATM    9  C7  UNK     1      18.790   2.033  19.762  1.00  0.00     0.069 A 
HETATM   10  C8  UNK     1      19.338  -0.006  15.155  1.00  0.00     0.304 A 
HETATM   11  C10 UNK     1      18.841   3.091  18.852  1.00  0.00     0.039 A 
ENDROOT
BRANCH   5  12
HETATM   12  C9  UNK     1      19.379  -2.527  15.699  1.00  0.00     0.262 C 
HETATM   13  O4  UNK     1      20.486  -3.057  15.752  1.00  0.00    -0.267 OA
HETATM   14  N1  UNK     1      18.166  -3.057  15.289  1.00  0.00    -0.323 N 
HETATM   15  H5  UNK     1      17.342  -2.461  15.333  1.00  0.00     0.169 HD
BRANCH  14  16
HETATM   16  C11 UNK     1      17.907  -4.368  14.824  1.00  0.00     0.035 A 
HETATM   17  C12 UNK     1      18.369  -4.747  13.574  1.00  0.00     0.031 A 
HETATM   18  C14 UNK     1      18.115  -6.039  13.115  1.00  0.00     0.020 A 
HETATM   19  C16 UNK     1      17.402  -6.934  13.913  1.00  0.00     0.006 A 
HETATM   20  C15 UNK     1      16.942  -6.537  15.169  1.00  0.00     0.020 A 
HETATM   21  I1  UNK     1      17.022  -8.859  13.229  1.00  0.00    -0.045 I 
HETATM   22  C13 UNK     1      17.197  -5.245  15.628  1.00  0.00     0.031 A 
ENDBRANCH  14  16
ENDBRANCH   5  12
BRANCH   9  23
HETATM   23  O2  UNK     1      18.645   2.290  21.092  1.00  0.00    -0.356 OA
HETATM   24  C17 UNK     1      19.805   2.144  21.911  1.00  0.00     0.210 C 
ENDBRANCH   9  23
TORSDOF 3
ENDMDL
MODEL 4
REMARK VINA RESULT:      -8.2     23.282     24.932
REMARK  3 active torsions:
REMARK  status: ('A' for Active; 'I' for Inactive)
REMARK    1  A    between atoms: C7_13  and  O2_3 
REMARK    2  A    between atoms: C11_17  and  N1_6 
REMARK       I    between atoms: C9_15  and  N1_6 
REMARK    3  A    between atoms: C3_9  and  C9_15 
ROOT
HETATM    1  O1  UNK     1      28.308  -4.861  38.597  1.00  0.00    -0.274 OA
HETATM    2  O3  UNK     1      26.050  -5.074  38.877  1.00  0.00    -0.259 OA
HETATM    3  C1  UNK     1      29.695  -6.854  38.469  1.00  0.00     0.002 A 
HETATM    4  C2  UNK     1      29.571  -5.469  38.456  1.00  0.00     0.089 A 
HETATM    5  C3  UNK     1      27.301  -7.084  38.766  1.00  0.00     0.108 A 
HETATM    6  C4  UNK     1      28.499  -7.666  38.632  1.00  0.00     0.037 A 
HETATM    7  C5  UNK     1      30.964  -7.419  38.327  1.00  0.00     0.051 A 
HETATM    8  C6  UNK     1      30.677  -4.635  38.304  1.00  0.00     0.041 A 
HETATM    9  C7  UNK     1      32.083  -6.595  38.173  1.00  0.00     0.069 A 
HETATM   10  C8  UNK     1      27.145  -5.612  38.754  1.00  0.00     0.304 A 
HETATM   11  C10 UNK     1      31.940  -5.206  38.162  1.00  0.00     0.039 A 
ENDROOT
BRANCH   5  12
HETATM   12  C9  UNK     1      26.154  -7.987  38.925  1.00  0.00     0.262 C 
HETATM   13  O4  UNK     1      26.357  -9.061  39.487  1.00  0.00    -0.267 OA
HETATM   14  N1  UNK     1      24.979  -7.473  38.400  1.00  0.00    -0.323 N 
HETATM   15  H5  UNK     1      25.005  -6.545  37.983  1.00  0.00     0.169 HD
BRANCH  14  16
HETATM   16  C11 UNK     1      23.700  -8.078  38.387  1.00  0.00     0.035 A 
HETATM   17  C12 UNK     1      23.270  -8.727  37.241  1.00  0.00     0.031 A 
HETATM   18  C14 UNK     1      22.009  -9.323  37.227  1.00  0.00     0.020 A 
HETATM   19  C16 UNK     1      21.197  -9.261  38.359  1.00  0.00     0.006 A 
HETATM   20  C15 UNK     1      21.644  -8.604  39.505  1.00  0.00     0.020 A 
HETATM   21  I1  UNK     1      19.318 -10.149  38.338  1.00  0.00    -0.045 I 
HETATM   22  C13 UNK     1      22.905  -8.008  39.519  1.00  0.00     0.031 A 
ENDBRANCH  14  16
ENDBRANCH   5  12
BRANCH   9  23
HETATM   23  O2  UNK     1      33.319  -7.150  38.034  1.00  0.00    -0.356 OA
HETATM   24  C17 UNK     1      34.377  -6.283  37.626  1.00  0.00     0.210 C 
ENDBRANCH   9  23
TORSDOF 3
ENDMDL
MODEL 5
REMARK VINA RESULT:      -8.1     16.160     20.184
REMARK  3 active torsions:
REMARK  status: ('A' for Active; 'I' for Inactive)
REMARK    1  A    between atoms: C7_13  and  O2_3 
REMARK    2  A    between atoms: C11_17  and  N1_6 
REMARK       I    between atoms: C9_15  and  N1_6 
REMARK    3  A    between atoms: C3_9  and  C9_15 
ROOT
HETATM    1  O1  UNK     1      18.314  -0.174  36.789  1.00  0.00    -0.274 OA
HETATM    2  O3  UNK     1      18.741  -1.781  38.356  1.00  0.00    -0.259 OA
HETATM    3  C1  UNK     1      18.895  -0.581  34.463  1.00  0.00     0.002 A 
HETATM    4  C2  UNK     1      18.365   0.249  35.446  1.00  0.00     0.089 A 
HETATM    5  C3  UNK     1      19.349  -2.288  36.122  1.00  0.00     0.108 A 
HETATM    6  C4  UNK     1      19.399  -1.892  34.845  1.00  0.00     0.037 A 
HETATM    7  C5  UNK     1      18.928  -0.126  33.143  1.00  0.00     0.051 A 
HETATM    8  C6  UNK     1      17.867   1.515  35.147  1.00  0.00     0.041 A 
HETATM    9  C7  UNK     1      18.432   1.143  32.828  1.00  0.00     0.069 A 
HETATM   10  C8  UNK     1      18.788  -1.423  37.184  1.00  0.00     0.304 A 
HETATM   11  C10 UNK     1      17.903   1.961  33.827  1.00  0.00     0.039 A 
ENDROOT
BRANCH   5  12
HETATM   12  C9  UNK     1      19.881  -3.626  36.408  1.00  0.00     0.262 C 
HETATM   13  O4  UNK     1      21.103  -3.754  36.426  1.00  0.00    -0.267 OA
HETATM   14  N1  UNK     1      18.891  -4.572  36.621  1.00  0.00    -0.323 N 
HETATM   15  H5  UNK     1      17.921  -4.268  36.582  1.00  0.00     0.169 HD
BRANCH  14  16
HETATM   16  C11 UNK     1      19.056  -5.945  36.919  1.00  0.00     0.035 A 
HETATM   17  C12 UNK     1      18.644  -6.892  35.996  1.00  0.00     0.031 A 
HETATM   18  C14 UNK     1      18.806  -8.246  36.289  1.00  0.00     0.020 A 
HETATM   19  C16 UNK     1      19.379  -8.633  37.501  1.00  0.00     0.006 A 
HETATM   20  C15 UNK     1      19.788  -7.667  38.420  1.00  0.00     0.020 A 
HETATM   21  I1  UNK     1      19.620 -10.650  37.938  1.00  0.00    -0.045 I 
HETATM   22  C13 UNK     1      19.626  -6.314  38.127  1.00  0.00     0.031 A 
ENDBRANCH  14  16
ENDBRANCH   5  12
BRANCH   9  23
HETATM   23  O2  UNK     1      18.465   1.582  31.539  1.00  0.00    -0.356 OA
HETATM   24  C17 UNK     1      19.249   0.827  30.616  1.00  0.00     0.210 C 
ENDBRANCH   9  23
TORSDOF 3
ENDMDL
MODEL 6
REMARK VINA RESULT:      -7.7     15.408     18.601
REMARK  3 active torsions:
REMARK  status: ('A' for Active; 'I' for Inactive)
REMARK    1  A    between atoms: C7_13  and  O2_3 
REMARK    2  A    between atoms: C11_17  and  N1_6 
REMARK       I    between atoms: C9_15  and  N1_6 
REMARK    3  A    between atoms: C3_9  and  C9_15 
ROOT
HETATM    1  O1  UNK     1      16.205   8.471  31.426  1.00  0.00    -0.274 OA
HETATM    2  O3  UNK     1      17.354   6.884  30.249  1.00  0.00    -0.259 OA
HETATM    3  C1  UNK     1      16.115   8.335  33.852  1.00  0.00     0.002 A 
HETATM    4  C2  UNK     1      15.773   8.979  32.667  1.00  0.00     0.089 A 
HETATM    5  C3  UNK     1      17.334   6.651  32.608  1.00  0.00     0.108 A 
HETATM    6  C4  UNK     1      16.926   7.129  33.789  1.00  0.00     0.037 A 
HETATM    7  C5  UNK     1      15.666   8.869  35.062  1.00  0.00     0.051 A 
HETATM    8  C6  UNK     1      14.998  10.137  32.658  1.00  0.00     0.041 A 
HETATM    9  C7  UNK     1      14.888  10.031  35.069  1.00  0.00     0.069 A 
HETATM   10  C8  UNK     1      16.983   7.319  31.334  1.00  0.00     0.304 A 
HETATM   11  C10 UNK     1      14.555  10.664  33.869  1.00  0.00     0.039 A 
ENDROOT
BRANCH   5  12
HETATM   12  C9  UNK     1      18.147   5.429  32.647  1.00  0.00     0.262 C 
HETATM   13  O4  UNK     1      19.126   5.428  33.391  1.00  0.00    -0.267 OA
HETATM   14  N1  UNK     1      17.671   4.430  31.813  1.00  0.00    -0.323 N 
HETATM   15  H5  UNK     1      16.824   4.614  31.280  1.00  0.00     0.169 HD
BRANCH  14  16
HETATM   16  C11 UNK     1      18.212   3.138  31.614  1.00  0.00     0.035 A 
HETATM   17  C12 UNK     1      18.659   2.778  30.354  1.00  0.00     0.031 A 
HETATM   18  C14 UNK     1      19.192   1.505  30.157  1.00  0.00     0.020 A 
HETATM   19  C16 UNK     1      19.271   0.609  31.224  1.00  0.00     0.006 A 
HETATM   20  C15 UNK     1      18.815   0.987  32.486  1.00  0.00     0.020 A 
HETATM   21  I1  UNK     1      20.064  -1.288  30.930  1.00  0.00    -0.045 I 
HETATM   22  C13 UNK     1      18.282   2.260  32.683  1.00  0.00     0.031 A 
ENDBRANCH  14  16
ENDBRANCH   5  12
BRANCH   9  23
HETATM   23  O2  UNK     1      14.454  10.549  36.251  1.00  0.00    -0.356 OA
HETATM   24  C17 UNK     1      14.267  11.962  36.311  1.00  0.00     0.210 C 
ENDBRANCH   9  23
TORSDOF 3
ENDMDL
MODEL 7
REMARK VINA RESULT:      -7.6     20.477     22.563
REMARK  3 active torsions:
REMARK  status: ('A' for Active; 'I' for Inactive)
REMARK    1  A    between atoms: C7_13  and  O2_3 
REMARK    2  A    between atoms: C11_17  and  N1_6 
REMARK       I    between atoms: C9_15  and  N1_6 
REMARK    3  A    between atoms: C3_9  and  C9_15 
ROOT
HETATM    1  O1  UNK     1      19.058  -8.493  36.991  1.00  0.00    -0.274 OA
HETATM    2  O3  UNK     1      17.818  -6.615  37.383  1.00  0.00    -0.259 OA
HETATM    3  C1  UNK     1      21.466  -8.303  36.706  1.00  0.00     0.002 A 
HETATM    4  C2  UNK     1      20.316  -9.084  36.756  1.00  0.00     0.089 A 
HETATM    5  C3  UNK     1      20.153  -6.309  37.122  1.00  0.00     0.108 A 
HETATM    6  C4  UNK     1      21.350  -6.866  36.899  1.00  0.00     0.037 A 
HETATM    7  C5  UNK     1      22.694  -8.926  36.471  1.00  0.00     0.051 A 
HETATM    8  C6  UNK     1      20.359 -10.465  36.579  1.00  0.00     0.041 A 
HETATM    9  C7  UNK     1      22.752 -10.311  36.291  1.00  0.00     0.069 A 
HETATM   10  C8  UNK     1      18.916  -7.120  37.180  1.00  0.00     0.304 A 
HETATM   11  C10 UNK     1      21.587 -11.079  36.345  1.00  0.00     0.039 A 
ENDROOT
BRANCH   5  12
HETATM   12  C9  UNK     1      20.138  -4.852  37.304  1.00  0.00     0.262 C 
HETATM   13  O4  UNK     1      20.981  -4.370  38.057  1.00  0.00    -0.267 OA
HETATM   14  N1  UNK     1      19.143  -4.222  36.575  1.00  0.00    -0.323 N 
HETATM   15  H5  UNK     1      18.544  -4.796  35.985  1.00  0.00     0.169 HD
BRANCH  14  16
HETATM   16  C11 UNK     1      18.854  -2.838  36.521  1.00  0.00     0.035 A 
HETATM   17  C12 UNK     1      19.488  -2.050  35.575  1.00  0.00     0.031 A 
HETATM   18  C14 UNK     1      19.203  -0.686  35.521  1.00  0.00     0.020 A 
HETATM   19  C16 UNK     1      18.287  -0.130  36.415  1.00  0.00     0.006 A 
HETATM   20  C15 UNK     1      17.658  -0.936  37.362  1.00  0.00     0.020 A 
HETATM   21  I1  UNK     1      17.864   1.903  36.335  1.00  0.00    -0.045 I 
HETATM   22  C13 UNK     1      17.943  -2.300  37.416  1.00  0.00     0.031 A 
ENDBRANCH  14  16
ENDBRANCH   5  12
BRANCH   9  23
HETATM   23  O2  UNK     1      23.951 -10.915  36.062  1.00  0.00    -0.356 OA
HETATM   24  C17 UNK     1      23.924 -12.290  35.684  1.00  0.00     0.210 C 
ENDBRANCH   9  23
TORSDOF 3
ENDMDL
MODEL 8
REMARK VINA RESULT:      -7.6     17.581     20.505
REMARK  3 active torsions:
REMARK  status: ('A' for Active; 'I' for Inactive)
REMARK    1  A    between atoms: C7_13  and  O2_3 
REMARK    2  A    between atoms: C11_17  and  N1_6 
REMARK       I    between atoms: C9_15  and  N1_6 
REMARK    3  A    between atoms: C3_9  and  C9_15 
ROOT
HETATM    1  O1  UNK     1      18.242   1.558  32.380  1.00  0.00    -0.274 OA
HETATM    2  O3  UNK     1      18.258   3.198  30.789  1.00  0.00    -0.259 OA
HETATM    3  C1  UNK     1      18.258   2.168  34.734  1.00  0.00     0.002 A 
HETATM    4  C2  UNK     1      18.242   1.194  33.741  1.00  0.00     0.089 A 
HETATM    5  C3  UNK     1      18.275   3.910  33.050  1.00  0.00     0.108 A 
HETATM    6  C4  UNK     1      18.275   3.570  34.344  1.00  0.00     0.037 A 
HETATM    7  C5  UNK     1      18.259   1.768  36.072  1.00  0.00     0.051 A 
HETATM    8  C6  UNK     1      18.227  -0.165  34.048  1.00  0.00     0.041 A 
HETATM    9  C7  UNK     1      18.243   0.407  36.394  1.00  0.00     0.069 A 
HETATM   10  C8  UNK     1      18.257   2.891  31.977  1.00  0.00     0.304 A 
HETATM   11  C10 UNK     1      18.226  -0.557  35.385  1.00  0.00     0.039 A 
ENDROOT
BRANCH   5  12
HETATM   12  C9  UNK     1      18.293   5.349  32.756  1.00  0.00     0.262 C 
HETATM   13  O4  UNK     1      18.425   5.682  31.581  1.00  0.00    -0.267 OA
HETATM   14  N1  UNK     1      18.153   6.137  33.887  1.00  0.00    -0.323 N 
HETATM   15  H5  UNK     1      18.036   5.672  34.785  1.00  0.00     0.169 HD
BRANCH  14  16
HETATM   16  C11 UNK     1      18.128   7.550  33.960  1.00  0.00     0.035 A 
HETATM   17  C12 UNK     1      16.917   8.212  33.836  1.00  0.00     0.031 A 
HETATM   18  C14 UNK     1      16.891   9.605  33.908  1.00  0.00     0.020 A 
HETATM   19  C16 UNK     1      18.076  10.315  34.102  1.00  0.00     0.006 A 
HETATM   20  C15 UNK     1      19.287   9.634  34.224  1.00  0.00     0.020 A 
HETATM   21  I1  UNK     1      18.037  12.390  34.208  1.00  0.00    -0.045 I 
HETATM   22  C13 UNK     1      19.313   8.241  34.152  1.00  0.00     0.031 A 
ENDBRANCH  14  16
ENDBRANCH   5  12
BRANCH   9  23
HETATM   23  O2  UNK     1      18.242   0.021  37.700  1.00  0.00    -0.356 OA
HETATM   24  C17 UNK     1      18.210  -1.382  37.962  1.00  0.00     0.210 C 
ENDBRANCH   9  23
TORSDOF 3
ENDMDL
MODEL 9
REMARK VINA RESULT:      -7.6     16.974     18.974
REMARK  3 active torsions:
REMARK  status: ('A' for Active; 'I' for Inactive)
REMARK    1  A    between atoms: C7_13  and  O2_3 
REMARK    2  A    between atoms: C11_17  and  N1_6 
REMARK       I    between atoms: C9_15  and  N1_6 
REMARK    3  A    between atoms: C3_9  and  C9_15 
ROOT
HETATM    1  O1  UNK     1      18.644   0.523  31.908  1.00  0.00    -0.274 OA
HETATM    2  O3  UNK     1      18.846  -1.712  32.337  1.00  0.00    -0.259 OA
HETATM    3  C1  UNK     1      18.288   2.071  33.749  1.00  0.00     0.002 A 
HETATM    4  C2  UNK     1      18.451   1.834  32.388  1.00  0.00     0.089 A 
HETATM    5  C3  UNK     1      18.502  -0.298  34.208  1.00  0.00     0.108 A 
HETATM    6  C4  UNK     1      18.319   0.945  34.669  1.00  0.00     0.037 A 
HETATM    7  C5  UNK     1      18.098   3.384  34.186  1.00  0.00     0.051 A 
HETATM    8  C6  UNK     1      18.430   2.868  31.455  1.00  0.00     0.041 A 
HETATM    9  C7  UNK     1      18.076   4.432  33.261  1.00  0.00     0.069 A 
HETATM   10  C8  UNK     1      18.679  -0.575  32.765  1.00  0.00     0.304 A 
HETATM   11  C10 UNK     1      18.241   4.175  31.899  1.00  0.00     0.039 A 
ENDROOT
BRANCH   5  12
HETATM   12  C9  UNK     1      18.518  -1.368  35.213  1.00  0.00     0.262 C 
HETATM   13  O4  UNK     1      17.577  -1.414  36.002  1.00  0.00    -0.267 OA
HETATM   14  N1  UNK     1      19.629  -2.191  35.116  1.00  0.00    -0.323 N 
HETATM   15  H5  UNK     1      20.301  -2.004  34.375  1.00  0.00     0.169 HD
BRANCH  14  16
HETATM   16  C11 UNK     1      19.951  -3.309  35.921  1.00  0.00     0.035 A 
HETATM   17  C12 UNK     1      20.455  -3.103  37.195  1.00  0.00     0.031 A 
HETATM   18  C14 UNK     1      20.773  -4.204  37.989  1.00  0.00     0.020 A 
HETATM   19  C16 UNK     1      20.583  -5.496  37.498  1.00  0.00     0.006 A 
HETATM   20  C15 UNK     1      20.076  -5.687  36.214  1.00  0.00     0.020 A 
HETATM   21  I1  UNK     1      21.058  -7.136  38.682  1.00  0.00    -0.045 I 
HETATM   22  C13 UNK     1      19.757  -4.585  35.419  1.00  0.00     0.031 A 
ENDBRANCH  14  16
ENDBRANCH   5  12
BRANCH   9  23
HETATM   23  O2  UNK     1      17.892   5.712  33.692  1.00  0.00    -0.356 OA
HETATM   24  C17 UNK     1      17.091   6.563  32.873  1.00  0.00     0.210 C 
ENDBRANCH   9  23
TORSDOF 3
ENDMDL
MODEL 10
REMARK VINA RESULT:      -7.6     15.273     19.213
REMARK  3 active torsions:
REMARK  status: ('A' for Active; 'I' for Inactive)
REMARK    1  A    between atoms: C7_13  and  O2_3 
REMARK    2  A    between atoms: C11_17  and  N1_6 
REMARK       I    between atoms: C9_15  and  N1_6 
REMARK    3  A    between atoms: C3_9  and  C9_15 
ROOT
HETATM    1  O1  UNK     1      18.794  -0.442  34.530  1.00  0.00    -0.274 OA
HETATM    2  O3  UNK     1      18.652  -1.373  36.611  1.00  0.00    -0.259 OA
HETATM    3  C1  UNK     1      20.002  -1.611  32.772  1.00  0.00     0.002 A 
HETATM    4  C2  UNK     1      19.258  -0.517  33.201  1.00  0.00     0.089 A 
HETATM    5  C3  UNK     1      19.852  -2.601  34.979  1.00  0.00     0.108 A 
HETATM    6  C4  UNK     1      20.295  -2.678  33.718  1.00  0.00     0.037 A 
HETATM    7  C5  UNK     1      20.444  -1.648  31.448  1.00  0.00     0.051 A 
HETATM    8  C6  UNK     1      18.944   0.538  32.346  1.00  0.00     0.041 A 
HETATM    9  C7  UNK     1      20.136  -0.597  30.578  1.00  0.00     0.069 A 
HETATM   10  C8  UNK     1      19.059  -1.447  35.457  1.00  0.00     0.304 A 
HETATM   11  C10 UNK     1      19.388   0.493  31.026  1.00  0.00     0.039 A 
ENDROOT
BRANCH   5  12
HETATM   12  C9  UNK     1      20.199  -3.726  35.857  1.00  0.00     0.262 C 
HETATM   13  O4  UNK     1      21.095  -3.544  36.678  1.00  0.00    -0.267 OA
HETATM   14  N1  UNK     1      19.437  -4.858  35.619  1.00  0.00    -0.323 N 
HETATM   15  H5  UNK     1      18.719  -4.811  34.899  1.00  0.00     0.169 HD
BRANCH  14  16
HETATM   16  C11 UNK     1      19.510  -6.106  36.282  1.00  0.00     0.035 A 
HETATM   17  C12 UNK     1      19.470  -6.140  37.667  1.00  0.00     0.031 A 
HETATM   18  C14 UNK     1      19.542  -7.370  38.321  1.00  0.00     0.020 A 
HETATM   19  C16 UNK     1      19.653  -8.547  37.581  1.00  0.00     0.006 A 
HETATM   20  C15 UNK     1      19.693  -8.496  36.188  1.00  0.00     0.020 A 
HETATM   21  I1  UNK     1      19.761 -10.379  38.556  1.00  0.00    -0.045 I 
HETATM   22  C13 UNK     1      19.620  -7.266  35.534  1.00  0.00     0.031 A 
ENDBRANCH  14  16
ENDBRANCH   5  12
BRANCH   9  23
HETATM   23  O2  UNK     1      20.568  -0.638  29.287  1.00  0.00    -0.356 OA
HETATM   24  C17 UNK     1      19.569  -0.661  28.269  1.00  0.00     0.210 C 
ENDBRANCH   9  23
TORSDOF 3
ENDMDL
