MODEL 1
REMARK VINA RESULT:      -9.8      0.000      0.000
REMARK  7 active torsions:
REMARK  status: ('A' for Active; 'I' for Inactive)
REMARK    1  A    between atoms: C21_29  and  O4_4 
REMARK    2  A    between atoms: C23_31  and  O5_5 
REMARK    3  A    between atoms: C5_13  and  N1_6 
REMARK    4  A    between atoms: C6_14  and  N2_7 
REMARK    5  A    between atoms: C17_25  and  N3_8 
REMARK       I    between atoms: C9_17  and  N3_8 
REMARK    6  A    between atoms: C5_13  and  C7_15 
REMARK    7  A    between atoms: C6_14  and  C9_17 
ROOT
HETATM    1  N1  UNK     1      19.492  -3.353  36.832  1.00  0.00     0.096 N 
HETATM    2  N2  UNK     1      18.606  -0.636  36.396  1.00  0.00     0.100 N 
HETATM    3  C1  UNK     1      20.078  -2.520  35.774  1.00  0.00     0.303 C 
HETATM    4  C2  UNK     1      19.025  -2.517  37.943  1.00  0.00     0.303 C 
HETATM    5  C3  UNK     1      19.071  -1.474  35.284  1.00  0.00     0.303 C 
HETATM    6  C4  UNK     1      18.020  -1.469  37.453  1.00  0.00     0.303 C 
ENDROOT
BRANCH   2   7
HETATM    7  C6  UNK     1      17.645   0.361  35.928  1.00  0.00     0.375 C 
BRANCH   7   8
HETATM    8  C9  UNK     1      18.372   1.425  35.124  1.00  0.00     0.250 C 
HETATM    9  O2  UNK     1      19.410   1.953  35.511  1.00  0.00    -0.271 OA
HETATM   10  N3  UNK     1      17.695   1.675  33.932  1.00  0.00    -0.326 N 
HETATM   11  H15 UNK     1      16.840   1.152  33.755  1.00  0.00     0.169 HD
BRANCH  10  12
HETATM   12  C17 UNK     1      18.048   2.592  32.914  1.00  0.00     0.037 A 
HETATM   13  C19 UNK     1      18.343   2.131  31.632  1.00  0.00     0.069 A 
HETATM   14  C21 UNK     1      18.693   3.035  30.628  1.00  0.00     0.103 A 
HETATM   15  C23 UNK     1      18.747   4.400  30.907  1.00  0.00     0.101 A 
HETATM   16  C22 UNK     1      18.451   4.861  32.190  1.00  0.00     0.042 A 
HETATM   17  C20 UNK     1      18.102   3.957  33.194  1.00  0.00     0.032 A 
BRANCH  14  18
HETATM   18  O4  UNK     1      18.980   2.572  29.380  1.00  0.00    -0.353 OA
HETATM   19  C24 UNK     1      17.884   2.108  28.592  1.00  0.00     0.210 C 
ENDBRANCH  14  18
BRANCH  15  20
HETATM   20  O5  UNK     1      19.087   5.292  29.935  1.00  0.00    -0.353 OA
HETATM   21  C25 UNK     1      20.345   5.950  30.071  1.00  0.00     0.210 C 
ENDBRANCH  15  20
ENDBRANCH  10  12
ENDBRANCH   7   8
ENDBRANCH   2   7
BRANCH   1  22
HETATM   22  C5  UNK     1      20.454  -4.350  37.300  1.00  0.00     0.312 C 
BRANCH  22  23
HETATM   23  C7  UNK     1      20.290  -5.658  36.607  1.00  0.00    -0.011 A 
HETATM   24  C10 UNK     1      20.347  -5.748  35.271  1.00  0.00     0.092 A 
HETATM   25  C13 UNK     1      20.190  -7.020  34.545  1.00  0.00     0.288 A 
HETATM   26  O1  UNK     1      19.978  -8.154  35.312  1.00  0.00    -0.275 OA
HETATM   27  O3  UNK     1      20.248  -7.063  33.320  1.00  0.00    -0.260 OA
HETATM   28  C11 UNK     1      19.914  -8.091  36.719  1.00  0.00     0.090 A 
HETATM   29  C8  UNK     1      20.063  -6.878  37.394  1.00  0.00     0.006 A 
HETATM   30  C14 UNK     1      19.694  -9.296  37.388  1.00  0.00     0.045 A 
HETATM   31  C12 UNK     1      19.986  -6.900  38.793  1.00  0.00     0.015 A 
HETATM   32  C16 UNK     1      19.766  -8.100  39.479  1.00  0.00     0.007 A 
HETATM   33  C15 UNK     1      19.621  -9.296  38.777  1.00  0.00    -0.059 A 
HETATM   34  C18 UNK     1      19.387 -10.571  39.515  1.00  0.00     0.048 C 
ENDBRANCH  22  23
ENDBRANCH   1  22
TORSDOF 7
ENDMDL
MODEL 2
REMARK VINA RESULT:      -9.7      0.891      1.804
REMARK  7 active torsions:
REMARK  status: ('A' for Active; 'I' for Inactive)
REMARK    1  A    between atoms: C21_29  and  O4_4 
REMARK    2  A    between atoms: C23_31  and  O5_5 
REMARK    3  A    between atoms: C5_13  and  N1_6 
REMARK    4  A    between atoms: C6_14  and  N2_7 
REMARK    5  A    between atoms: C17_25  and  N3_8 
REMARK       I    between atoms: C9_17  and  N3_8 
REMARK    6  A    between atoms: C5_13  and  C7_15 
REMARK    7  A    between atoms: C6_14  and  C9_17 
ROOT
HETATM    1  N1  UNK     1      19.388  -3.314  36.381  1.00  0.00     0.096 N 
HETATM    2  N2  UNK     1      18.359  -0.671  35.820  1.00  0.00     0.100 N 
HETATM    3  C1  UNK     1      20.087  -2.401  35.469  1.00  0.00     0.303 C 
HETATM    4  C2  UNK     1      18.642  -2.557  37.392  1.00  0.00     0.303 C 
HETATM    5  C3  UNK     1      19.103  -1.430  34.808  1.00  0.00     0.303 C 
HETATM    6  C4  UNK     1      17.659  -1.585  36.732  1.00  0.00     0.303 C 
ENDROOT
BRANCH   2   7
HETATM    7  C6  UNK     1      17.419   0.253  35.189  1.00  0.00     0.375 C 
BRANCH   7   8
HETATM    8  C9  UNK     1      18.180   1.444  34.632  1.00  0.00     0.250 C 
HETATM    9  O2  UNK     1      19.144   1.941  35.206  1.00  0.00    -0.271 OA
HETATM   10  N3  UNK     1      17.626   1.846  33.418  1.00  0.00    -0.326 N 
HETATM   11  H15 UNK     1      16.820   1.329  33.072  1.00  0.00     0.169 HD
BRANCH  10  12
HETATM   12  C17 UNK     1      18.045   2.912  32.588  1.00  0.00     0.037 A 
HETATM   13  C19 UNK     1      18.141   4.203  33.106  1.00  0.00     0.069 A 
HETATM   14  C21 UNK     1      18.552   5.255  32.286  1.00  0.00     0.103 A 
HETATM   15  C23 UNK     1      18.869   5.014  30.950  1.00  0.00     0.101 A 
HETATM   16  C22 UNK     1      18.774   3.723  30.432  1.00  0.00     0.042 A 
HETATM   17  C20 UNK     1      18.362   2.671  31.251  1.00  0.00     0.032 A 
BRANCH  14  18
HETATM   18  O4  UNK     1      18.641   6.512  32.803  1.00  0.00    -0.353 OA
HETATM   19  C24 UNK     1      19.848   6.849  33.486  1.00  0.00     0.210 C 
ENDBRANCH  14  18
BRANCH  15  20
HETATM   20  O5  UNK     1      19.273   6.033  30.140  1.00  0.00    -0.353 OA
HETATM   21  C25 UNK     1      20.659   6.084  29.805  1.00  0.00     0.210 C 
ENDBRANCH  15  20
ENDBRANCH  10  12
ENDBRANCH   7   8
ENDBRANCH   2   7
BRANCH   1  22
HETATM   22  C5  UNK     1      20.328  -4.238  37.013  1.00  0.00     0.312 C 
BRANCH  22  23
HETATM   23  C7  UNK     1      20.261  -5.602  36.418  1.00  0.00    -0.011 A 
HETATM   24  C10 UNK     1      20.346  -5.787  35.093  1.00  0.00     0.092 A 
HETATM   25  C13 UNK     1      20.286  -7.116  34.462  1.00  0.00     0.288 A 
HETATM   26  O1  UNK     1      20.134  -8.202  35.309  1.00  0.00    -0.275 OA
HETATM   27  O3  UNK     1      20.367  -7.246  33.245  1.00  0.00    -0.260 OA
HETATM   28  C11 UNK     1      20.042  -8.039  36.706  1.00  0.00     0.090 A 
HETATM   29  C8  UNK     1      20.101  -6.773  37.291  1.00  0.00     0.006 A 
HETATM   30  C14 UNK     1      19.890  -9.204  37.461  1.00  0.00     0.045 A 
HETATM   31  C12 UNK     1      20.001  -6.697  38.686  1.00  0.00     0.015 A 
HETATM   32  C16 UNK     1      19.848  -7.855  39.457  1.00  0.00     0.007 A 
HETATM   33  C15 UNK     1      19.793  -9.106  38.845  1.00  0.00    -0.059 A 
HETATM   34  C18 UNK     1      19.630 -10.336  39.673  1.00  0.00     0.048 C 
ENDBRANCH  22  23
ENDBRANCH   1  22
TORSDOF 7
ENDMDL
MODEL 3
REMARK VINA RESULT:      -9.5      3.923     12.657
REMARK  7 active torsions:
REMARK  status: ('A' for Active; 'I' for Inactive)
REMARK    1  A    between atoms: C21_29  and  O4_4 
REMARK    2  A    between atoms: C23_31  and  O5_5 
REMARK    3  A    between atoms: C5_13  and  N1_6 
REMARK    4  A    between atoms: C6_14  and  N2_7 
REMARK    5  A    between atoms: C17_25  and  N3_8 
REMARK       I    between atoms: C9_17  and  N3_8 
REMARK    6  A    between atoms: C5_13  and  C7_15 
REMARK    7  A    between atoms: C6_14  and  C9_17 
ROOT
HETATM    1  N1  UNK     1      18.074   5.412  31.524  1.00  0.00     0.096 N 
HETATM    2  N2  UNK     1      19.003   2.741  30.923  1.00  0.00     0.100 N 
HETATM    3  C1  UNK     1      18.267   4.414  32.584  1.00  0.00     0.303 C 
HETATM    4  C2  UNK     1      18.992   5.158  30.408  1.00  0.00     0.303 C 
HETATM    5  C3  UNK     1      18.082   2.995  32.037  1.00  0.00     0.303 C 
HETATM    6  C4  UNK     1      18.810   3.738  29.863  1.00  0.00     0.303 C 
ENDROOT
BRANCH   2   7
HETATM    7  C6  UNK     1      18.825   1.387  30.401  1.00  0.00     0.375 C 
BRANCH   7   8
HETATM    8  C9  UNK     1      19.649   0.415  31.228  1.00  0.00     0.250 C 
HETATM    9  O2  UNK     1      20.818   0.150  30.968  1.00  0.00    -0.271 OA
HETATM   10  N3  UNK     1      18.887  -0.088  32.281  1.00  0.00    -0.326 N 
HETATM   11  H15 UNK     1      17.924   0.231  32.363  1.00  0.00     0.169 HD
BRANCH  10  12
HETATM   12  C17 UNK     1      19.288  -1.014  33.272  1.00  0.00     0.037 A 
HETATM   13  C19 UNK     1      18.850  -0.862  34.588  1.00  0.00     0.069 A 
HETATM   14  C21 UNK     1      19.247  -1.774  35.566  1.00  0.00     0.103 A 
HETATM   15  C23 UNK     1      20.082  -2.839  35.228  1.00  0.00     0.101 A 
HETATM   16  C22 UNK     1      20.519  -2.992  33.913  1.00  0.00     0.042 A 
HETATM   17  C20 UNK     1      20.123  -2.079  32.935  1.00  0.00     0.032 A 
BRANCH  14  18
HETATM   18  O4  UNK     1      18.813  -1.614  36.847  1.00  0.00    -0.353 OA
HETATM   19  C24 UNK     1      17.766  -0.669  37.064  1.00  0.00     0.210 C 
ENDBRANCH  14  18
BRANCH  15  20
HETATM   20  O5  UNK     1      20.475  -3.736  36.174  1.00  0.00    -0.353 OA
HETATM   21  C25 UNK     1      19.745  -4.959  36.252  1.00  0.00     0.210 C 
ENDBRANCH  15  20
ENDBRANCH  10  12
ENDBRANCH   7   8
ENDBRANCH   2   7
BRANCH   1  22
HETATM   22  C5  UNK     1      18.252   6.765  32.046  1.00  0.00     0.312 C 
BRANCH  22  23
HETATM   23  C7  UNK     1      16.954   7.421  32.365  1.00  0.00    -0.011 A 
HETATM   24  C10 UNK     1      15.788   6.855  32.023  1.00  0.00     0.092 A 
HETATM   25  C13 UNK     1      14.481   7.466  32.318  1.00  0.00     0.288 A 
HETATM   26  O1  UNK     1      14.498   8.682  32.982  1.00  0.00    -0.275 OA
HETATM   27  O3  UNK     1      13.434   6.918  31.990  1.00  0.00    -0.260 OA
HETATM   28  C11 UNK     1      15.708   9.302  33.355  1.00  0.00     0.090 A 
HETATM   29  C8  UNK     1      16.939   8.711  33.068  1.00  0.00     0.006 A 
HETATM   30  C14 UNK     1      15.603  10.526  34.018  1.00  0.00     0.045 A 
HETATM   31  C12 UNK     1      18.095   9.391  33.472  1.00  0.00     0.015 A 
HETATM   32  C16 UNK     1      18.008  10.619  34.137  1.00  0.00     0.007 A 
HETATM   33  C15 UNK     1      16.764  11.185  34.410  1.00  0.00    -0.059 A 
HETATM   34  C18 UNK     1      16.678  12.494  35.120  1.00  0.00     0.048 C 
ENDBRANCH  22  23
ENDBRANCH   1  22
TORSDOF 7
ENDMDL
MODEL 4
REMARK VINA RESULT:      -9.3      1.572      2.118
REMARK  7 active torsions:
REMARK  status: ('A' for Active; 'I' for Inactive)
REMARK    1  A    between atoms: C21_29  and  O4_4 
REMARK    2  A    between atoms: C23_31  and  O5_5 
REMARK    3  A    between atoms: C5_13  and  N1_6 
REMARK    4  A    between atoms: C6_14  and  N2_7 
REMARK    5  A    between atoms: C17_25  and  N3_8 
REMARK       I    between atoms: C9_17  and  N3_8 
REMARK    6  A    between atoms: C5_13  and  C7_15 
REMARK    7  A    between atoms: C6_14  and  C9_17 
ROOT
HETATM    1  N1  UNK     1      19.532  -3.418  36.512  1.00  0.00     0.096 N 
HETATM    2  N2  UNK     1      18.392  -0.770  36.298  1.00  0.00     0.100 N 
HETATM    3  C1  UNK     1      18.109  -3.176  36.783  1.00  0.00     0.303 C 
HETATM    4  C2  UNK     1      20.041  -2.446  35.538  1.00  0.00     0.303 C 
HETATM    5  C3  UNK     1      17.884  -1.742  37.274  1.00  0.00     0.303 C 
HETATM    6  C4  UNK     1      19.814  -1.012  36.028  1.00  0.00     0.303 C 
ENDROOT
BRANCH   2   7
HETATM    7  C6  UNK     1      18.178   0.598  36.768  1.00  0.00     0.375 C 
BRANCH   7   8
HETATM    8  C9  UNK     1      18.793   1.573  35.779  1.00  0.00     0.250 C 
HETATM    9  O2  UNK     1      19.868   2.129  35.980  1.00  0.00    -0.271 OA
HETATM   10  N3  UNK     1      17.970   1.711  34.664  1.00  0.00    -0.326 N 
HETATM   11  H15 UNK     1      17.102   1.180  34.646  1.00  0.00     0.169 HD
BRANCH  10  12
HETATM   12  C17 UNK     1      18.187   2.523  33.525  1.00  0.00     0.037 A 
HETATM   13  C19 UNK     1      18.472   1.934  32.293  1.00  0.00     0.069 A 
HETATM   14  C21 UNK     1      18.688   2.734  31.170  1.00  0.00     0.103 A 
HETATM   15  C23 UNK     1      18.619   4.122  31.280  1.00  0.00     0.101 A 
HETATM   16  C22 UNK     1      18.333   4.711  32.512  1.00  0.00     0.042 A 
HETATM   17  C20 UNK     1      18.118   3.911  33.635  1.00  0.00     0.032 A 
BRANCH  14  18
HETATM   18  O4  UNK     1      18.967   2.147  29.973  1.00  0.00    -0.353 OA
HETATM   19  C24 UNK     1      17.866   1.907  29.097  1.00  0.00     0.210 C 
ENDBRANCH  14  18
BRANCH  15  20
HETATM   20  O5  UNK     1      18.827   4.914  30.191  1.00  0.00    -0.353 OA
HETATM   21  C25 UNK     1      20.017   5.701  30.180  1.00  0.00     0.210 C 
ENDBRANCH  15  20
ENDBRANCH  10  12
ENDBRANCH   7   8
ENDBRANCH   2   7
BRANCH   1  22
HETATM   22  C5  UNK     1      19.745  -4.785  36.041  1.00  0.00     0.312 C 
BRANCH  22  23
HETATM   23  C7  UNK     1      20.583  -5.580  36.982  1.00  0.00    -0.011 A 
HETATM   24  C10 UNK     1      21.657  -5.044  37.577  1.00  0.00     0.092 A 
HETATM   25  C13 UNK     1      22.513  -5.791  38.514  1.00  0.00     0.288 A 
HETATM   26  O1  UNK     1      22.159  -7.107  38.768  1.00  0.00    -0.275 OA
HETATM   27  O3  UNK     1      23.489  -5.266  39.040  1.00  0.00    -0.260 OA
HETATM   28  C11 UNK     1      21.035  -7.698  38.158  1.00  0.00     0.090 A 
HETATM   29  C8  UNK     1      20.233  -6.977  37.271  1.00  0.00     0.006 A 
HETATM   30  C14 UNK     1      20.775  -9.029  38.486  1.00  0.00     0.045 A 
HETATM   31  C12 UNK     1      19.134  -7.638  36.707  1.00  0.00     0.015 A 
HETATM   32  C16 UNK     1      18.859  -8.972  37.026  1.00  0.00     0.007 A 
HETATM   33  C15 UNK     1      19.678  -9.666  37.915  1.00  0.00    -0.059 A 
HETATM   34  C18 UNK     1      19.379 -11.088  38.251  1.00  0.00     0.048 C 
ENDBRANCH  22  23
ENDBRANCH   1  22
TORSDOF 7
ENDMDL
MODEL 5
REMARK VINA RESULT:      -9.2      3.703     11.282
REMARK  7 active torsions:
REMARK  status: ('A' for Active; 'I' for Inactive)
REMARK    1  A    between atoms: C21_29  and  O4_4 
REMARK    2  A    between atoms: C23_31  and  O5_5 
REMARK    3  A    between atoms: C5_13  and  N1_6 
REMARK    4  A    between atoms: C6_14  and  N2_7 
REMARK    5  A    between atoms: C17_25  and  N3_8 
REMARK       I    between atoms: C9_17  and  N3_8 
REMARK    6  A    between atoms: C5_13  and  C7_15 
REMARK    7  A    between atoms: C6_14  and  C9_17 
ROOT
HETATM    1  N1  UNK     1      20.038  -3.694  36.840  1.00  0.00     0.096 N 
HETATM    2  N2  UNK     1      19.745  -6.485  37.533  1.00  0.00     0.100 N 
HETATM    3  C1  UNK     1      21.026  -4.378  37.684  1.00  0.00     0.303 C 
HETATM    4  C2  UNK     1      19.402  -4.644  35.921  1.00  0.00     0.303 C 
HETATM    5  C3  UNK     1      20.378  -5.534  38.454  1.00  0.00     0.303 C 
HETATM    6  C4  UNK     1      18.756  -5.801  36.691  1.00  0.00     0.303 C 
ENDROOT
BRANCH   2   7
HETATM    7  C6  UNK     1      19.126  -7.586  38.269  1.00  0.00     0.375 C 
BRANCH   7   8
HETATM    8  C9  UNK     1      19.985  -8.832  38.130  1.00  0.00     0.250 C 
HETATM    9  O2  UNK     1      19.883  -9.794  38.884  1.00  0.00    -0.271 OA
HETATM   10  N3  UNK     1      20.855  -8.698  37.050  1.00  0.00    -0.326 N 
HETATM   11  H15 UNK     1      20.820  -7.832  36.517  1.00  0.00     0.169 HD
BRANCH  10  12
HETATM   12  C17 UNK     1      21.811  -9.635  36.590  1.00  0.00     0.037 A 
HETATM   13  C19 UNK     1      23.166  -9.433  36.852  1.00  0.00     0.069 A 
HETATM   14  C21 UNK     1      24.110 -10.355  36.397  1.00  0.00     0.103 A 
HETATM   15  C23 UNK     1      23.697 -11.479  35.683  1.00  0.00     0.101 A 
HETATM   16  C22 UNK     1      22.343 -11.682  35.423  1.00  0.00     0.042 A 
HETATM   17  C20 UNK     1      21.399 -10.759  35.876  1.00  0.00     0.032 A 
BRANCH  14  18
HETATM   18  O4  UNK     1      25.430 -10.146  36.657  1.00  0.00    -0.353 OA
HETATM   19  C24 UNK     1      25.762  -9.015  37.461  1.00  0.00     0.210 C 
ENDBRANCH  14  18
BRANCH  15  20
HETATM   20  O5  UNK     1      24.609 -12.387  35.235  1.00  0.00    -0.353 OA
HETATM   21  C25 UNK     1      24.704 -13.618  35.950  1.00  0.00     0.210 C 
ENDBRANCH  15  20
ENDBRANCH  10  12
ENDBRANCH   7   8
ENDBRANCH   2   7
BRANCH   1  22
HETATM   22  C5  UNK     1      20.657  -2.593  36.104  1.00  0.00     0.312 C 
BRANCH  22  23
HETATM   23  C7  UNK     1      19.680  -1.875  35.239  1.00  0.00    -0.011 A 
HETATM   24  C10 UNK     1      18.643  -1.210  35.766  1.00  0.00     0.092 A 
HETATM   25  C13 UNK     1      17.654  -0.487  34.950  1.00  0.00     0.288 A 
HETATM   26  O1  UNK     1      17.837  -0.517  33.577  1.00  0.00    -0.275 OA
HETATM   27  O3  UNK     1      16.717   0.112  35.469  1.00  0.00    -0.260 OA
HETATM   28  C11 UNK     1      18.918  -1.208  32.993  1.00  0.00     0.090 A 
HETATM   29  C8  UNK     1      19.848  -1.890  33.779  1.00  0.00     0.006 A 
HETATM   30  C14 UNK     1      19.002  -1.172  31.600  1.00  0.00     0.045 A 
HETATM   31  C12 UNK     1      20.893  -2.552  33.122  1.00  0.00     0.015 A 
HETATM   32  C16 UNK     1      20.992  -2.526  31.726  1.00  0.00     0.007 A 
HETATM   33  C15 UNK     1      20.048  -1.836  30.967  1.00  0.00    -0.059 A 
HETATM   34  C18 UNK     1      20.159  -1.812  29.480  1.00  0.00     0.048 C 
ENDBRANCH  22  23
ENDBRANCH   1  22
TORSDOF 7
ENDMDL
MODEL 6
REMARK VINA RESULT:      -9.1      1.354      1.921
REMARK  7 active torsions:
REMARK  status: ('A' for Active; 'I' for Inactive)
REMARK    1  A    between atoms: C21_29  and  O4_4 
REMARK    2  A    between atoms: C23_31  and  O5_5 
REMARK    3  A    between atoms: C5_13  and  N1_6 
REMARK    4  A    between atoms: C6_14  and  N2_7 
REMARK    5  A    between atoms: C17_25  and  N3_8 
REMARK       I    between atoms: C9_17  and  N3_8 
REMARK    6  A    between atoms: C5_13  and  C7_15 
REMARK    7  A    between atoms: C6_14  and  C9_17 
ROOT
HETATM    1  N1  UNK     1      19.280  -3.293  35.999  1.00  0.00     0.096 N 
HETATM    2  N2  UNK     1      18.550  -0.686  34.986  1.00  0.00     0.100 N 
HETATM    3  C1  UNK     1      20.208  -2.507  35.177  1.00  0.00     0.303 C 
HETATM    4  C2  UNK     1      18.385  -2.408  36.751  1.00  0.00     0.303 C 
HETATM    5  C3  UNK     1      19.444  -1.574  34.232  1.00  0.00     0.303 C 
HETATM    6  C4  UNK     1      17.621  -1.473  35.807  1.00  0.00     0.303 C 
ENDROOT
BRANCH   2   7
HETATM    7  C6  UNK     1      17.820   0.202  34.083  1.00  0.00     0.375 C 
BRANCH   7   8
HETATM    8  C9  UNK     1      18.246   1.638  34.335  1.00  0.00     0.250 C 
HETATM    9  O2  UNK     1      18.837   1.984  35.353  1.00  0.00    -0.271 OA
HETATM   10  N3  UNK     1      17.873   2.446  33.263  1.00  0.00    -0.326 N 
HETATM   11  H15 UNK     1      17.383   2.007  32.487  1.00  0.00     0.169 HD
BRANCH  10  12
HETATM   12  C17 UNK     1      18.088   3.837  33.113  1.00  0.00     0.037 A 
HETATM   13  C19 UNK     1      18.308   4.376  31.846  1.00  0.00     0.069 A 
HETATM   14  C21 UNK     1      18.522   5.747  31.699  1.00  0.00     0.103 A 
HETATM   15  C23 UNK     1      18.515   6.578  32.819  1.00  0.00     0.101 A 
HETATM   16  C22 UNK     1      18.294   6.039  34.085  1.00  0.00     0.042 A 
HETATM   17  C20 UNK     1      18.081   4.668  34.233  1.00  0.00     0.032 A 
BRANCH  14  18
HETATM   18  O4  UNK     1      18.737   6.262  30.456  1.00  0.00    -0.353 OA
HETATM   19  C24 UNK     1      19.993   5.974  29.843  1.00  0.00     0.210 C 
ENDBRANCH  14  18
BRANCH  15  20
HETATM   20  O5  UNK     1      18.722   7.918  32.687  1.00  0.00    -0.353 OA
HETATM   21  C25 UNK     1      18.819   8.680  33.890  1.00  0.00     0.210 C 
ENDBRANCH  15  20
ENDBRANCH  10  12
ENDBRANCH   7   8
ENDBRANCH   2   7
BRANCH   1  22
HETATM   22  C5  UNK     1      20.011  -4.181  36.902  1.00  0.00     0.312 C 
BRANCH  22  23
HETATM   23  C7  UNK     1      20.112  -5.568  36.367  1.00  0.00    -0.011 A 
HETATM   24  C10 UNK     1      20.255  -5.796  35.054  1.00  0.00     0.092 A 
HETATM   25  C13 UNK     1      20.359  -7.149  34.481  1.00  0.00     0.288 A 
HETATM   26  O1  UNK     1      20.304  -8.209  35.372  1.00  0.00    -0.275 OA
HETATM   27  O3  UNK     1      20.490  -7.319  33.273  1.00  0.00    -0.260 OA
HETATM   28  C11 UNK     1      20.154  -8.000  36.758  1.00  0.00     0.090 A 
HETATM   29  C8  UNK     1      20.056  -6.712  37.286  1.00  0.00     0.006 A 
HETATM   30  C14 UNK     1      20.109  -9.142  37.559  1.00  0.00     0.045 A 
HETATM   31  C12 UNK     1      19.908  -6.590  38.674  1.00  0.00     0.015 A 
HETATM   32  C16 UNK     1      19.861  -7.724  39.492  1.00  0.00     0.007 A 
HETATM   33  C15 UNK     1      19.962  -8.998  38.935  1.00  0.00    -0.059 A 
HETATM   34  C18 UNK     1      19.911 -10.203  39.813  1.00  0.00     0.048 C 
ENDBRANCH  22  23
ENDBRANCH   1  22
TORSDOF 7
ENDMDL
MODEL 7
REMARK VINA RESULT:      -9.0      1.890      2.889
REMARK  7 active torsions:
REMARK  status: ('A' for Active; 'I' for Inactive)
REMARK    1  A    between atoms: C21_29  and  O4_4 
REMARK    2  A    between atoms: C23_31  and  O5_5 
REMARK    3  A    between atoms: C5_13  and  N1_6 
REMARK    4  A    between atoms: C6_14  and  N2_7 
REMARK    5  A    between atoms: C17_25  and  N3_8 
REMARK       I    between atoms: C9_17  and  N3_8 
REMARK    6  A    between atoms: C5_13  and  C7_15 
REMARK    7  A    between atoms: C6_14  and  C9_17 
ROOT
HETATM    1  N1  UNK     1      19.539  -3.671  36.406  1.00  0.00     0.096 N 
HETATM    2  N2  UNK     1      18.216  -1.134  35.992  1.00  0.00     0.100 N 
HETATM    3  C1  UNK     1      18.115  -3.493  36.717  1.00  0.00     0.303 C 
HETATM    4  C2  UNK     1      19.943  -2.770  35.321  1.00  0.00     0.303 C 
HETATM    5  C3  UNK     1      17.813  -2.035  37.079  1.00  0.00     0.303 C 
HETATM    6  C4  UNK     1      19.640  -1.312  35.681  1.00  0.00     0.303 C 
ENDROOT
BRANCH   2   7
HETATM    7  C6  UNK     1      17.929   0.257  36.338  1.00  0.00     0.375 C 
BRANCH   7   8
HETATM    8  C9  UNK     1      17.510   1.012  35.088  1.00  0.00     0.250 C 
HETATM    9  O2  UNK     1      16.486   0.746  34.466  1.00  0.00    -0.271 OA
HETATM   10  N3  UNK     1      18.437   2.009  34.794  1.00  0.00    -0.326 N 
HETATM   11  H15 UNK     1      19.242   2.104  35.410  1.00  0.00     0.169 HD
BRANCH  10  12
HETATM   12  C17 UNK     1      18.407   2.926  33.716  1.00  0.00     0.037 A 
HETATM   13  C19 UNK     1      18.385   4.297  33.968  1.00  0.00     0.069 A 
HETATM   14  C21 UNK     1      18.354   5.202  32.906  1.00  0.00     0.103 A 
HETATM   15  C23 UNK     1      18.345   4.734  31.592  1.00  0.00     0.101 A 
HETATM   16  C22 UNK     1      18.368   3.362  31.341  1.00  0.00     0.042 A 
HETATM   17  C20 UNK     1      18.399   2.458  32.403  1.00  0.00     0.032 A 
BRANCH  14  18
HETATM   18  O4  UNK     1      18.331   6.539  33.165  1.00  0.00    -0.353 OA
HETATM   19  C24 UNK     1      19.563   7.145  33.553  1.00  0.00     0.210 C 
ENDBRANCH  14  18
BRANCH  15  20
HETATM   20  O5  UNK     1      18.315   5.607  30.547  1.00  0.00    -0.353 OA
HETATM   21  C25 UNK     1      19.556   5.886  29.900  1.00  0.00     0.210 C 
ENDBRANCH  15  20
ENDBRANCH  10  12
ENDBRANCH   7   8
ENDBRANCH   2   7
BRANCH   1  22
HETATM   22  C5  UNK     1      19.824  -5.062  36.060  1.00  0.00     0.312 C 
BRANCH  22  23
HETATM   23  C7  UNK     1      20.604  -5.757  37.121  1.00  0.00    -0.011 A 
HETATM   24  C10 UNK     1      21.660  -5.172  37.703  1.00  0.00     0.092 A 
HETATM   25  C13 UNK     1      22.459  -5.820  38.756  1.00  0.00     0.288 A 
HETATM   26  O1  UNK     1      22.071  -7.095  39.137  1.00  0.00    -0.275 OA
HETATM   27  O3  UNK     1      23.419  -5.253  39.266  1.00  0.00    -0.260 OA
HETATM   28  C11 UNK     1      20.966  -7.737  38.543  1.00  0.00     0.090 A 
HETATM   29  C8  UNK     1      20.217  -7.110  37.546  1.00  0.00     0.006 A 
HETATM   30  C14 UNK     1      20.668  -9.020  39.004  1.00  0.00     0.045 A 
HETATM   31  C12 UNK     1      19.134  -7.815  37.007  1.00  0.00     0.015 A 
HETATM   32  C16 UNK     1      18.822  -9.103  37.458  1.00  0.00     0.007 A 
HETATM   33  C15 UNK     1      19.587  -9.704  38.456  1.00  0.00    -0.059 A 
HETATM   34  C18 UNK     1      19.249 -11.076  38.932  1.00  0.00     0.048 C 
ENDBRANCH  22  23
ENDBRANCH   1  22
TORSDOF 7
ENDMDL
MODEL 8
REMARK VINA RESULT:      -8.8      6.453     10.245
REMARK  7 active torsions:
REMARK  status: ('A' for Active; 'I' for Inactive)
REMARK    1  A    between atoms: C21_29  and  O4_4 
REMARK    2  A    between atoms: C23_31  and  O5_5 
REMARK    3  A    between atoms: C5_13  and  N1_6 
REMARK    4  A    between atoms: C6_14  and  N2_7 
REMARK    5  A    between atoms: C17_25  and  N3_8 
REMARK       I    between atoms: C9_17  and  N3_8 
REMARK    6  A    between atoms: C5_13  and  C7_15 
REMARK    7  A    between atoms: C6_14  and  C9_17 
ROOT
HETATM    1  N1  UNK     1      18.327   5.032  32.551  1.00  0.00     0.096 N 
HETATM    2  N2  UNK     1      18.505   7.833  33.241  1.00  0.00     0.100 N 
HETATM    3  C1  UNK     1      17.124   5.863  32.683  1.00  0.00     0.303 C 
HETATM    4  C2  UNK     1      19.471   5.849  32.131  1.00  0.00     0.303 C 
HETATM    5  C3  UNK     1      17.362   7.016  33.664  1.00  0.00     0.303 C 
HETATM    6  C4  UNK     1      19.708   7.003  33.111  1.00  0.00     0.303 C 
ENDROOT
BRANCH   2   7
HETATM    7  C6  UNK     1      18.731   8.932  34.179  1.00  0.00     0.375 C 
BRANCH   7   8
HETATM    8  C9  UNK     1      17.691  10.015  33.948  1.00  0.00     0.250 C 
HETATM    9  O2  UNK     1      17.963  11.095  33.434  1.00  0.00    -0.271 OA
HETATM   10  N3  UNK     1      16.442   9.585  34.393  1.00  0.00    -0.326 N 
HETATM   11  H15 UNK     1      16.379   8.655  34.801  1.00  0.00     0.169 HD
BRANCH  10  12
HETATM   12  C17 UNK     1      15.220  10.298  34.355  1.00  0.00     0.037 A 
HETATM   13  C19 UNK     1      14.754  10.944  35.500  1.00  0.00     0.069 A 
HETATM   14  C21 UNK     1      13.548  11.645  35.463  1.00  0.00     0.103 A 
HETATM   15  C23 UNK     1      12.810  11.700  34.282  1.00  0.00     0.101 A 
HETATM   16  C22 UNK     1      13.276  11.055  33.137  1.00  0.00     0.042 A 
HETATM   17  C20 UNK     1      14.482  10.353  33.173  1.00  0.00     0.032 A 
BRANCH  14  18
HETATM   18  O4  UNK     1      13.103  12.271  36.588  1.00  0.00    -0.353 OA
HETATM   19  C24 UNK     1      13.407  11.653  37.838  1.00  0.00     0.210 C 
ENDBRANCH  14  18
BRANCH  15  20
HETATM   20  O5  UNK     1      11.631  12.382  34.234  1.00  0.00    -0.353 OA
HETATM   21  C25 UNK     1      11.567  13.504  33.354  1.00  0.00     0.210 C 
ENDBRANCH  15  20
ENDBRANCH  10  12
ENDBRANCH   7   8
ENDBRANCH   2   7
BRANCH   1  22
HETATM   22  C5  UNK     1      18.100   3.934  31.614  1.00  0.00     0.312 C 
BRANCH  22  23
HETATM   23  C7  UNK     1      18.340   2.603  32.237  1.00  0.00    -0.011 A 
HETATM   24  C10 UNK     1      18.054   2.378  33.527  1.00  0.00     0.092 A 
HETATM   25  C13 UNK     1      18.275   1.080  34.185  1.00  0.00     0.288 A 
HETATM   26  O1  UNK     1      18.803   0.066  33.401  1.00  0.00    -0.275 OA
HETATM   27  O3  UNK     1      18.000   0.911  35.368  1.00  0.00    -0.260 OA
HETATM   28  C11 UNK     1      19.114   0.272  32.042  1.00  0.00     0.090 A 
HETATM   29  C8  UNK     1      18.900   1.509  31.432  1.00  0.00     0.006 A 
HETATM   30  C14 UNK     1      19.643  -0.820  31.351  1.00  0.00     0.045 A 
HETATM   31  C12 UNK     1      19.236   1.631  30.077  1.00  0.00     0.015 A 
HETATM   32  C16 UNK     1      19.767   0.547  29.370  1.00  0.00     0.007 A 
HETATM   33  C15 UNK     1      19.969  -0.677  30.006  1.00  0.00    -0.059 A 
HETATM   34  C18 UNK     1      20.536  -1.829  29.247  1.00  0.00     0.048 C 
ENDBRANCH  22  23
ENDBRANCH   1  22
TORSDOF 7
ENDMDL
MODEL 9
REMARK VINA RESULT:      -8.7      5.060      9.008
REMARK  7 active torsions:
REMARK  status: ('A' for Active; 'I' for Inactive)
REMARK    1  A    between atoms: C21_29  and  O4_4 
REMARK    2  A    between atoms: C23_31  and  O5_5 
REMARK    3  A    between atoms: C5_13  and  N1_6 
REMARK    4  A    between atoms: C6_14  and  N2_7 
REMARK    5  A    between atoms: C17_25  and  N3_8 
REMARK       I    between atoms: C9_17  and  N3_8 
REMARK    6  A    between atoms: C5_13  and  C7_15 
REMARK    7  A    between atoms: C6_14  and  C9_17 
ROOT
HETATM    1  N1  UNK     1      18.882   3.711  31.278  1.00  0.00     0.096 N 
HETATM    2  N2  UNK     1      19.208   6.377  32.348  1.00  0.00     0.100 N 
HETATM    3  C1  UNK     1      18.014   4.214  32.351  1.00  0.00     0.303 C 
HETATM    4  C2  UNK     1      19.351   4.818  30.437  1.00  0.00     0.303 C 
HETATM    5  C3  UNK     1      18.741   5.270  33.191  1.00  0.00     0.303 C 
HETATM    6  C4  UNK     1      20.076   5.874  31.277  1.00  0.00     0.303 C 
ENDROOT
BRANCH   2   7
HETATM    7  C6  UNK     1      19.902   7.383  33.150  1.00  0.00     0.375 C 
BRANCH   7   8
HETATM    8  C9  UNK     1      18.917   8.034  34.106  1.00  0.00     0.250 C 
HETATM    9  O2  UNK     1      19.045   7.981  35.325  1.00  0.00    -0.271 OA
HETATM   10  N3  UNK     1      17.905   8.673  33.393  1.00  0.00    -0.326 N 
HETATM   11  H15 UNK     1      17.939   8.626  32.377  1.00  0.00     0.169 HD
BRANCH  10  12
HETATM   12  C17 UNK     1      16.804   9.393  33.914  1.00  0.00     0.037 A 
HETATM   13  C19 UNK     1      16.974  10.705  34.355  1.00  0.00     0.069 A 
HETATM   14  C21 UNK     1      15.888  11.414  34.870  1.00  0.00     0.103 A 
HETATM   15  C23 UNK     1      14.633  10.811  34.944  1.00  0.00     0.101 A 
HETATM   16  C22 UNK     1      14.463   9.499  34.503  1.00  0.00     0.042 A 
HETATM   17  C20 UNK     1      15.549   8.789  33.988  1.00  0.00     0.032 A 
BRANCH  14  18
HETATM   18  O4  UNK     1      16.067  12.695  35.298  1.00  0.00    -0.353 OA
HETATM   19  C24 UNK     1      17.350  13.280  35.078  1.00  0.00     0.210 C 
ENDBRANCH  14  18
BRANCH  15  20
HETATM   20  O5  UNK     1      13.565  11.493  35.445  1.00  0.00    -0.353 OA
HETATM   21  C25 UNK     1      12.688  12.107  34.502  1.00  0.00     0.210 C 
ENDBRANCH  15  20
ENDBRANCH  10  12
ENDBRANCH   7   8
ENDBRANCH   2   7
BRANCH   1  22
HETATM   22  C5  UNK     1      18.187   2.706  30.477  1.00  0.00     0.312 C 
BRANCH  22  23
HETATM   23  C7  UNK     1      18.897   1.397  30.476  1.00  0.00    -0.011 A 
HETATM   24  C10 UNK     1      19.524   0.947  29.380  1.00  0.00     0.092 A 
HETATM   25  C13 UNK     1      20.238  -0.340  29.334  1.00  0.00     0.288 A 
HETATM   26  O1  UNK     1      20.242  -1.092  30.498  1.00  0.00    -0.275 OA
HETATM   27  O3  UNK     1      20.800  -0.719  28.312  1.00  0.00    -0.260 OA
HETATM   28  C11 UNK     1      19.593  -0.646  31.666  1.00  0.00     0.090 A 
HETATM   29  C8  UNK     1      18.919   0.577  31.695  1.00  0.00     0.006 A 
HETATM   30  C14 UNK     1      19.661  -1.487  32.778  1.00  0.00     0.045 A 
HETATM   31  C12 UNK     1      18.299   0.948  32.895  1.00  0.00     0.015 A 
HETATM   32  C16 UNK     1      18.358   0.116  34.019  1.00  0.00     0.007 A 
HETATM   33  C15 UNK     1      19.039  -1.099  33.960  1.00  0.00    -0.059 A 
HETATM   34  C18 UNK     1      19.098  -1.981  35.162  1.00  0.00     0.048 C 
ENDBRANCH  22  23
ENDBRANCH   1  22
TORSDOF 7
ENDMDL
MODEL 10
REMARK VINA RESULT:      -8.7      6.367     10.435
REMARK  7 active torsions:
REMARK  status: ('A' for Active; 'I' for Inactive)
REMARK    1  A    between atoms: C21_29  and  O4_4 
REMARK    2  A    between atoms: C23_31  and  O5_5 
REMARK    3  A    between atoms: C5_13  and  N1_6 
REMARK    4  A    between atoms: C6_14  and  N2_7 
REMARK    5  A    between atoms: C17_25  and  N3_8 
REMARK       I    between atoms: C9_17  and  N3_8 
REMARK    6  A    between atoms: C5_13  and  C7_15 
REMARK    7  A    between atoms: C6_14  and  C9_17 
ROOT
HETATM    1  N1  UNK     1      18.466   4.930  32.584  1.00  0.00     0.096 N 
HETATM    2  N2  UNK     1      18.688   7.731  33.265  1.00  0.00     0.100 N 
HETATM    3  C1  UNK     1      17.279   5.736  32.896  1.00  0.00     0.303 C 
HETATM    4  C2  UNK     1      19.520   5.772  32.009  1.00  0.00     0.303 C 
HETATM    5  C3  UNK     1      17.634   6.887  33.843  1.00  0.00     0.303 C 
HETATM    6  C4  UNK     1      19.875   6.925  32.954  1.00  0.00     0.303 C 
ENDROOT
BRANCH   2   7
HETATM    7  C6  UNK     1      19.027   8.828  34.169  1.00  0.00     0.375 C 
BRANCH   7   8
HETATM    8  C9  UNK     1      18.209  10.055  33.804  1.00  0.00     0.250 C 
HETATM    9  O2  UNK     1      17.109   9.981  33.265  1.00  0.00    -0.271 OA
HETATM   10  N3  UNK     1      18.888  11.214  34.175  1.00  0.00    -0.326 N 
HETATM   11  H15 UNK     1      19.799  11.109  34.614  1.00  0.00     0.169 HD
BRANCH  10  12
HETATM   12  C17 UNK     1      18.463  12.554  34.008  1.00  0.00     0.037 A 
HETATM   13  C19 UNK     1      18.983  13.325  32.969  1.00  0.00     0.069 A 
HETATM   14  C21 UNK     1      18.567  14.647  32.805  1.00  0.00     0.103 A 
HETATM   15  C23 UNK     1      17.630  15.196  33.680  1.00  0.00     0.101 A 
HETATM   16  C22 UNK     1      17.109  14.424  34.718  1.00  0.00     0.042 A 
HETATM   17  C20 UNK     1      17.526  13.102  34.883  1.00  0.00     0.032 A 
BRANCH  14  18
HETATM   18  O4  UNK     1      19.083  15.391  31.788  1.00  0.00    -0.353 OA
HETATM   19  C24 UNK     1      18.603  15.113  30.473  1.00  0.00     0.210 C 
ENDBRANCH  14  18
BRANCH  15  20
HETATM   20  O5  UNK     1      17.215  16.485  33.530  1.00  0.00    -0.353 OA
HETATM   21  C25 UNK     1      16.734  17.151  34.696  1.00  0.00     0.210 C 
ENDBRANCH  15  20
ENDBRANCH  10  12
ENDBRANCH   7   8
ENDBRANCH   2   7
BRANCH   1  22
HETATM   22  C5  UNK     1      18.126   3.833  31.680  1.00  0.00     0.312 C 
BRANCH  22  23
HETATM   23  C7  UNK     1      18.357   2.500  32.301  1.00  0.00    -0.011 A 
HETATM   24  C10 UNK     1      18.058   2.272  33.587  1.00  0.00     0.092 A 
HETATM   25  C13 UNK     1      18.270   0.970  34.243  1.00  0.00     0.288 A 
HETATM   26  O1  UNK     1      18.804  -0.042  33.461  1.00  0.00    -0.275 OA
HETATM   27  O3  UNK     1      17.983   0.798  35.423  1.00  0.00    -0.260 OA
HETATM   28  C11 UNK     1      19.129   0.168  32.105  1.00  0.00     0.090 A 
HETATM   29  C8  UNK     1      18.923   1.407  31.498  1.00  0.00     0.006 A 
HETATM   30  C14 UNK     1      19.662  -0.923  31.416  1.00  0.00     0.045 A 
HETATM   31  C12 UNK     1      19.272   1.534  30.147  1.00  0.00     0.015 A 
HETATM   32  C16 UNK     1      19.808   0.450  29.441  1.00  0.00     0.007 A 
HETATM   33  C15 UNK     1      20.002  -0.776  30.075  1.00  0.00    -0.059 A 
HETATM   34  C18 UNK     1      20.573  -1.926  29.317  1.00  0.00     0.048 C 
ENDBRANCH  22  23
ENDBRANCH   1  22
TORSDOF 7
ENDMDL
