MODEL 1
REMARK VINA RESULT:      -9.4      0.000      0.000
REMARK  7 active torsions:
REMARK  status: ('A' for Active; 'I' for Inactive)
REMARK    1  A    between atoms: C6_14  and  O2_2 
REMARK    2  A    between atoms: C7_15  and  O3_3 
REMARK    3  A    between atoms: C8_16  and  O4_4 
REMARK    4  A    between atoms: C9_17  and  O6_6 
REMARK    5  A    between atoms: C13_21  and  O7_7 
REMARK    6  A    between atoms: C15_23  and  O8_8 
REMARK    7  A    between atoms: C3_11  and  C5_13 
ROOT
HETATM    1  O1  UNK     1      19.061  -0.994  17.761  1.00  0.00    -0.303 OA
HETATM    2  O5  UNK     1      19.232   2.252  15.304  1.00  0.00    -0.284 OA
HETATM    3  C1  UNK     1      19.102   1.420  17.507  1.00  0.00     0.087 A 
HETATM    4  C2  UNK     1      19.045   0.270  18.292  1.00  0.00     0.129 A 
HETATM    5  C3  UNK     1      19.150  -1.132  16.386  1.00  0.00     0.123 A 
HETATM    6  C4  UNK     1      19.184   1.279  16.045  1.00  0.00     0.223 A 
HETATM    7  C6  UNK     1      19.204  -0.107  15.518  1.00  0.00     0.152 A 
HETATM    8  C7  UNK     1      19.081   2.682  18.104  1.00  0.00     0.085 A 
HETATM    9  C8  UNK     1      18.964   0.376  19.680  1.00  0.00     0.134 A 
HETATM   10  C9  UNK     1      18.942   1.636  20.280  1.00  0.00     0.104 A 
HETATM   11  C10 UNK     1      19.001   2.787  19.493  1.00  0.00     0.077 A 
ENDROOT
BRANCH   5  12
HETATM   12  C5  UNK     1      19.158  -2.540  15.948  1.00  0.00     0.004 A 
HETATM   13  C11 UNK     1      20.365  -3.228  15.832  1.00  0.00     0.053 A 
HETATM   14  C13 UNK     1      20.372  -4.561  15.420  1.00  0.00     0.099 A 
HETATM   15  C15 UNK     1      19.172  -5.206  15.123  1.00  0.00     0.098 A 
HETATM   16  C14 UNK     1      17.964  -4.518  15.239  1.00  0.00     0.040 A 
HETATM   17  C12 UNK     1      17.957  -3.185  15.652  1.00  0.00     0.017 A 
BRANCH  14  18
HETATM   18  O7  UNK     1      21.558  -5.222  15.309  1.00  0.00    -0.358 OA
HETATM   19  H9  UNK     1      21.808  -5.291  14.373  1.00  0.00     0.217 HD
ENDBRANCH  14  18
BRANCH  15  20
HETATM   20  O8  UNK     1      19.165  -6.507  14.720  1.00  0.00    -0.358 OA
HETATM   21  H10 UNK     1      19.900  -6.982  15.138  1.00  0.00     0.217 HD
ENDBRANCH  15  20
ENDBRANCH   5  12
BRANCH   7  22
HETATM   22  O2  UNK     1      19.260  -0.279  14.151  1.00  0.00    -0.355 OA
HETATM   23  H5  UNK     1      18.408  -0.611  13.826  1.00  0.00     0.218 HD
ENDBRANCH   7  22
BRANCH   9  24
HETATM   24  O4  UNK     1      18.905  -0.744  20.455  1.00  0.00    -0.356 OA
HETATM   25  H7  UNK     1      18.034  -0.772  20.888  1.00  0.00     0.218 HD
ENDBRANCH   9  24
BRANCH   8  26
HETATM   26  O3  UNK     1      19.137   3.836  17.382  1.00  0.00    -0.360 OA
HETATM   27  H6  UNK     1      18.980   4.603  17.953  1.00  0.00     0.217 HD
ENDBRANCH   8  26
BRANCH  10  28
HETATM   28  O6  UNK     1      18.864   1.757  21.635  1.00  0.00    -0.358 OA
HETATM   29  H8  UNK     1      17.932   1.706  21.904  1.00  0.00     0.217 HD
ENDBRANCH  10  28
TORSDOF 7
ENDMDL
MODEL 2
REMARK VINA RESULT:      -8.7     13.402     15.537
REMARK  7 active torsions:
REMARK  status: ('A' for Active; 'I' for Inactive)
REMARK    1  A    between atoms: C6_14  and  O2_2 
REMARK    2  A    between atoms: C7_15  and  O3_3 
REMARK    3  A    between atoms: C8_16  and  O4_4 
REMARK    4  A    between atoms: C9_17  and  O6_6 
REMARK    5  A    between atoms: C13_21  and  O7_7 
REMARK    6  A    between atoms: C15_23  and  O8_8 
REMARK    7  A    between atoms: C3_11  and  C5_13 
ROOT
HETATM    1  O1  UNK     1       9.619   5.788   9.648  1.00  0.00    -0.303 OA
HETATM    2  O5  UNK     1       9.599   6.858   5.716  1.00  0.00    -0.284 OA
HETATM    3  C1  UNK     1      10.822   6.026   7.553  1.00  0.00     0.087 A 
HETATM    4  C2  UNK     1      10.763   5.679   8.901  1.00  0.00     0.129 A 
HETATM    5  C3  UNK     1       8.469   6.253   9.030  1.00  0.00     0.123 A 
HETATM    6  C4  UNK     1       9.607   6.532   6.896  1.00  0.00     0.223 A 
HETATM    7  C6  UNK     1       8.393   6.628   7.741  1.00  0.00     0.152 A 
HETATM    8  C7  UNK     1      12.017   5.894   6.842  1.00  0.00     0.085 A 
HETATM    9  C8  UNK     1      11.902   5.198   9.548  1.00  0.00     0.134 A 
HETATM   10  C9  UNK     1      13.098   5.066   8.841  1.00  0.00     0.104 A 
HETATM   11  C10 UNK     1      13.155   5.413   7.491  1.00  0.00     0.077 A 
ENDROOT
BRANCH   5  12
HETATM   12  C5  UNK     1       7.314   6.322   9.943  1.00  0.00     0.004 A 
HETATM   13  C11 UNK     1       6.433   5.245  10.037  1.00  0.00     0.053 A 
HETATM   14  C13 UNK     1       5.340   5.310  10.902  1.00  0.00     0.099 A 
HETATM   15  C15 UNK     1       5.128   6.452  11.674  1.00  0.00     0.098 A 
HETATM   16  C14 UNK     1       6.009   7.530  11.581  1.00  0.00     0.040 A 
HETATM   17  C12 UNK     1       7.102   7.464  10.715  1.00  0.00     0.017 A 
BRANCH  14  18
HETATM   18  O7  UNK     1       4.486   4.252  10.984  1.00  0.00    -0.358 OA
HETATM   19  H9  UNK     1       3.606   4.516  10.668  1.00  0.00     0.217 HD
ENDBRANCH  14  18
BRANCH  15  20
HETATM   20  O8  UNK     1       4.066   6.528  12.523  1.00  0.00    -0.358 OA
HETATM   21  H10 UNK     1       3.410   7.150  12.171  1.00  0.00     0.217 HD
ENDBRANCH  15  20
ENDBRANCH   5  12
BRANCH   7  22
HETATM   22  O2  UNK     1       7.240   7.118   7.166  1.00  0.00    -0.355 OA
HETATM   23  H5  UNK     1       7.365   7.216   6.209  1.00  0.00     0.218 HD
ENDBRANCH   7  22
BRANCH   9  24
HETATM   24  O4  UNK     1      11.852   4.858  10.867  1.00  0.00    -0.356 OA
HETATM   25  H7  UNK     1      10.945   5.005  11.188  1.00  0.00     0.218 HD
ENDBRANCH   9  24
BRANCH   8  26
HETATM   26  O3  UNK     1      12.127   6.217   5.524  1.00  0.00    -0.360 OA
HETATM   27  H6  UNK     1      12.572   5.508   5.035  1.00  0.00     0.217 HD
ENDBRANCH   8  26
BRANCH  10  28
HETATM   28  O6  UNK     1      14.218   4.598   9.459  1.00  0.00    -0.358 OA
HETATM   29  H8  UNK     1      14.677   5.339   9.890  1.00  0.00     0.217 HD
ENDBRANCH  10  28
TORSDOF 7
ENDMDL
MODEL 3
REMARK VINA RESULT:      -8.3     13.423     15.645
REMARK  7 active torsions:
REMARK  status: ('A' for Active; 'I' for Inactive)
REMARK    1  A    between atoms: C6_14  and  O2_2 
REMARK    2  A    between atoms: C7_15  and  O3_3 
REMARK    3  A    between atoms: C8_16  and  O4_4 
REMARK    4  A    between atoms: C9_17  and  O6_6 
REMARK    5  A    between atoms: C13_21  and  O7_7 
REMARK    6  A    between atoms: C15_23  and  O8_8 
REMARK    7  A    between atoms: C3_11  and  C5_13 
ROOT
HETATM    1  O1  UNK     1       9.592   5.803   9.642  1.00  0.00    -0.303 OA
HETATM    2  O5  UNK     1       9.538   6.835   5.700  1.00  0.00    -0.284 OA
HETATM    3  C1  UNK     1      10.777   6.021   7.535  1.00  0.00     0.087 A 
HETATM    4  C2  UNK     1      10.730   5.687   8.887  1.00  0.00     0.129 A 
HETATM    5  C3  UNK     1       8.436   6.261   9.030  1.00  0.00     0.123 A 
HETATM    6  C4  UNK     1       9.557   6.520   6.883  1.00  0.00     0.223 A 
HETATM    7  C6  UNK     1       8.350   6.624   7.738  1.00  0.00     0.152 A 
HETATM    8  C7  UNK     1      11.966   5.884   6.816  1.00  0.00     0.085 A 
HETATM    9  C8  UNK     1      11.875   5.214   9.529  1.00  0.00     0.134 A 
HETATM   10  C9  UNK     1      13.065   5.075   8.813  1.00  0.00     0.104 A 
HETATM   11  C10 UNK     1      13.110   5.409   7.459  1.00  0.00     0.077 A 
ENDROOT
BRANCH   5  12
HETATM   12  C5  UNK     1       7.289   6.339   9.953  1.00  0.00     0.004 A 
HETATM   13  C11 UNK     1       6.986   7.542  10.589  1.00  0.00     0.053 A 
HETATM   14  C13 UNK     1       5.900   7.616  11.461  1.00  0.00     0.099 A 
HETATM   15  C15 UNK     1       5.116   6.486  11.697  1.00  0.00     0.098 A 
HETATM   16  C14 UNK     1       5.419   5.283  11.060  1.00  0.00     0.040 A 
HETATM   17  C12 UNK     1       6.506   5.210  10.188  1.00  0.00     0.017 A 
BRANCH  14  18
HETATM   18  O7  UNK     1       5.614   8.796  12.079  1.00  0.00    -0.358 OA
HETATM   19  H9  UNK     1       5.692   8.690  13.041  1.00  0.00     0.217 HD
ENDBRANCH  14  18
BRANCH  15  20
HETATM   20  O8  UNK     1       4.052   6.546  12.546  1.00  0.00    -0.358 OA
HETATM   21  H10 UNK     1       3.250   6.775  12.049  1.00  0.00     0.217 HD
ENDBRANCH  15  20
ENDBRANCH   5  12
BRANCH   7  22
HETATM   22  O2  UNK     1       7.191   7.107   7.168  1.00  0.00    -0.355 OA
HETATM   23  H5  UNK     1       7.377   7.933   6.694  1.00  0.00     0.218 HD
ENDBRANCH   7  22
BRANCH   9  24
HETATM   24  O4  UNK     1      11.837   4.887  10.852  1.00  0.00    -0.356 OA
HETATM   25  H7  UNK     1      10.927   4.626  11.077  1.00  0.00     0.218 HD
ENDBRANCH   9  24
BRANCH   8  26
HETATM   26  O3  UNK     1      12.065   6.193   5.493  1.00  0.00    -0.360 OA
HETATM   27  H6  UNK     1      12.930   6.583   5.297  1.00  0.00     0.217 HD
ENDBRANCH   8  26
BRANCH  10  28
HETATM   28  O6  UNK     1      14.191   4.614   9.426  1.00  0.00    -0.358 OA
HETATM   29  H8  UNK     1      14.931   5.209   9.219  1.00  0.00     0.217 HD
ENDBRANCH  10  28
TORSDOF 7
ENDMDL
MODEL 4
REMARK VINA RESULT:      -8.2     15.154     18.216
REMARK  7 active torsions:
REMARK  status: ('A' for Active; 'I' for Inactive)
REMARK    1  A    between atoms: C6_14  and  O2_2 
REMARK    2  A    between atoms: C7_15  and  O3_3 
REMARK    3  A    between atoms: C8_16  and  O4_4 
REMARK    4  A    between atoms: C9_17  and  O6_6 
REMARK    5  A    between atoms: C13_21  and  O7_7 
REMARK    6  A    between atoms: C15_23  and  O8_8 
REMARK    7  A    between atoms: C3_11  and  C5_13 
ROOT
HETATM    1  O1  UNK     1      18.251   3.635  34.225  1.00  0.00    -0.303 OA
HETATM    2  O5  UNK     1      18.488   1.523  30.748  1.00  0.00    -0.284 OA
HETATM    3  C1  UNK     1      18.364   1.485  33.104  1.00  0.00     0.087 A 
HETATM    4  C2  UNK     1      18.285   2.264  34.255  1.00  0.00     0.129 A 
HETATM    5  C3  UNK     1      18.284   4.269  32.994  1.00  0.00     0.123 A 
HETATM    6  C4  UNK     1      18.413   2.154  31.794  1.00  0.00     0.223 A 
HETATM    7  C6  UNK     1      18.368   3.636  31.811  1.00  0.00     0.152 A 
HETATM    8  C7  UNK     1      18.397   0.092  33.195  1.00  0.00     0.085 A 
HETATM    9  C8  UNK     1      18.239   1.654  35.509  1.00  0.00     0.134 A 
HETATM   10  C9  UNK     1      18.273   0.262  35.605  1.00  0.00     0.104 A 
HETATM   11  C10 UNK     1      18.351  -0.517  34.450  1.00  0.00     0.077 A 
ENDROOT
BRANCH   5  12
HETATM   12  C5  UNK     1      18.242   5.739  33.104  1.00  0.00     0.004 A 
HETATM   13  C11 UNK     1      17.252   6.460  32.437  1.00  0.00     0.053 A 
HETATM   14  C13 UNK     1      17.211   7.851  32.541  1.00  0.00     0.099 A 
HETATM   15  C15 UNK     1      18.160   8.520  33.313  1.00  0.00     0.098 A 
HETATM   16  C14 UNK     1      19.150   7.800  33.981  1.00  0.00     0.040 A 
HETATM   17  C12 UNK     1      19.190   6.408  33.876  1.00  0.00     0.017 A 
BRANCH  14  18
HETATM   18  O7  UNK     1      16.241   8.544  31.884  1.00  0.00    -0.358 OA
HETATM   19  H9  UNK     1      15.368   8.296  32.231  1.00  0.00     0.217 HD
ENDBRANCH  14  18
BRANCH  15  20
HETATM   20  O8  UNK     1      18.130   9.878  33.424  1.00  0.00    -0.358 OA
HETATM   21  H10 UNK     1      18.987  10.246  33.155  1.00  0.00     0.217 HD
ENDBRANCH  15  20
ENDBRANCH   5  12
BRANCH   7  22
HETATM   22  O2  UNK     1      18.432   4.300  30.605  1.00  0.00    -0.355 OA
HETATM   23  H5  UNK     1      17.761   3.948  29.999  1.00  0.00     0.218 HD
ENDBRANCH   7  22
BRANCH   9  24
HETATM   24  O4  UNK     1      18.164   2.410  36.641  1.00  0.00    -0.356 OA
HETATM   25  H7  UNK     1      18.633   3.248  36.482  1.00  0.00     0.218 HD
ENDBRANCH   9  24
BRANCH   8  26
HETATM   26  O3  UNK     1      18.471  -0.715  32.100  1.00  0.00    -0.360 OA
HETATM   27  H6  UNK     1      19.163  -1.384  32.216  1.00  0.00     0.217 HD
ENDBRANCH   8  26
BRANCH  10  28
HETATM   28  O6  UNK     1      18.229  -0.349  36.822  1.00  0.00    -0.358 OA
HETATM   29  H8  UNK     1      18.316  -1.309  36.697  1.00  0.00     0.217 HD
ENDBRANCH  10  28
TORSDOF 7
ENDMDL
MODEL 5
REMARK VINA RESULT:      -8.1     13.637     17.212
REMARK  7 active torsions:
REMARK  status: ('A' for Active; 'I' for Inactive)
REMARK    1  A    between atoms: C6_14  and  O2_2 
REMARK    2  A    between atoms: C7_15  and  O3_3 
REMARK    3  A    between atoms: C8_16  and  O4_4 
REMARK    4  A    between atoms: C9_17  and  O6_6 
REMARK    5  A    between atoms: C13_21  and  O7_7 
REMARK    6  A    between atoms: C15_23  and  O8_8 
REMARK    7  A    between atoms: C3_11  and  C5_13 
ROOT
HETATM    1  O1  UNK     1      18.136  -0.461  33.650  1.00  0.00    -0.303 OA
HETATM    2  O5  UNK     1      20.339  -2.518  36.393  1.00  0.00    -0.284 OA
HETATM    3  C1  UNK     1      18.455  -1.169  35.950  1.00  0.00     0.087 A 
HETATM    4  C2  UNK     1      17.747  -0.484  34.965  1.00  0.00     0.129 A 
HETATM    5  C3  UNK     1      19.275  -1.160  33.286  1.00  0.00     0.123 A 
HETATM    6  C4  UNK     1      19.673  -1.902  35.571  1.00  0.00     0.223 A 
HETATM    7  C6  UNK     1      20.051  -1.853  34.138  1.00  0.00     0.152 A 
HETATM    8  C7  UNK     1      18.012  -1.156  37.275  1.00  0.00     0.085 A 
HETATM    9  C8  UNK     1      16.591   0.221  35.299  1.00  0.00     0.134 A 
HETATM   10  C9  UNK     1      16.145   0.236  36.622  1.00  0.00     0.104 A 
HETATM   11  C10 UNK     1      16.854  -0.451  37.607  1.00  0.00     0.077 A 
ENDROOT
BRANCH   5  12
HETATM   12  C5  UNK     1      19.580  -1.052  31.848  1.00  0.00     0.004 A 
HETATM   13  C11 UNK     1      19.434   0.171  31.193  1.00  0.00     0.053 A 
HETATM   14  C13 UNK     1      19.724   0.273  29.832  1.00  0.00     0.099 A 
HETATM   15  C15 UNK     1      20.160  -0.848  29.125  1.00  0.00     0.098 A 
HETATM   16  C14 UNK     1      20.307  -2.071  29.780  1.00  0.00     0.040 A 
HETATM   17  C12 UNK     1      20.017  -2.172  31.141  1.00  0.00     0.017 A 
BRANCH  14  18
HETATM   18  O7  UNK     1      19.575   1.472  29.203  1.00  0.00    -0.358 OA
HETATM   19  H9  UNK     1      18.637   1.624  29.006  1.00  0.00     0.217 HD
ENDBRANCH  14  18
BRANCH  15  20
HETATM   20  O8  UNK     1      20.447  -0.761  27.797  1.00  0.00    -0.358 OA
HETATM   21  H10 UNK     1      20.590  -1.649  27.435  1.00  0.00     0.217 HD
ENDBRANCH  15  20
ENDBRANCH   5  12
BRANCH   7  22
HETATM   22  O2  UNK     1      21.197  -2.511  33.748  1.00  0.00    -0.355 OA
HETATM   23  H5  UNK     1      21.657  -2.863  34.527  1.00  0.00     0.218 HD
ENDBRANCH   7  22
BRANCH   9  24
HETATM   24  O4  UNK     1      15.894   0.895  34.341  1.00  0.00    -0.356 OA
HETATM   25  H7  UNK     1      15.383   1.602  34.774  1.00  0.00     0.218 HD
ENDBRANCH   9  24
BRANCH   8  26
HETATM   26  O3  UNK     1      18.665  -1.811  38.274  1.00  0.00    -0.360 OA
HETATM   27  H6  UNK     1      18.897  -2.711  37.998  1.00  0.00     0.217 HD
ENDBRANCH   8  26
BRANCH  10  28
HETATM   28  O6  UNK     1      15.017   0.920  36.964  1.00  0.00    -0.358 OA
HETATM   29  H8  UNK     1      15.265   1.810  37.266  1.00  0.00     0.217 HD
ENDBRANCH  10  28
TORSDOF 7
ENDMDL
MODEL 6
REMARK VINA RESULT:      -8.1     14.119     17.196
REMARK  7 active torsions:
REMARK  status: ('A' for Active; 'I' for Inactive)
REMARK    1  A    between atoms: C6_14  and  O2_2 
REMARK    2  A    between atoms: C7_15  and  O3_3 
REMARK    3  A    between atoms: C8_16  and  O4_4 
REMARK    4  A    between atoms: C9_17  and  O6_6 
REMARK    5  A    between atoms: C13_21  and  O7_7 
REMARK    6  A    between atoms: C15_23  and  O8_8 
REMARK    7  A    between atoms: C3_11  and  C5_13 
ROOT
HETATM    1  O1  UNK     1      16.615   5.839  32.235  1.00  0.00    -0.303 OA
HETATM    2  O5  UNK     1      19.348   8.389  33.857  1.00  0.00    -0.284 OA
HETATM    3  C1  UNK     1      17.118   8.014  33.186  1.00  0.00     0.087 A 
HETATM    4  C2  UNK     1      16.233   7.097  32.624  1.00  0.00     0.129 A 
HETATM    5  C3  UNK     1      17.935   5.461  32.420  1.00  0.00     0.123 A 
HETATM    6  C4  UNK     1      18.524   7.624  33.374  1.00  0.00     0.223 A 
HETATM    7  C6  UNK     1      18.888   6.253  32.942  1.00  0.00     0.152 A 
HETATM    8  C7  UNK     1      16.673   9.283  33.563  1.00  0.00     0.085 A 
HETATM    9  C8  UNK     1      14.896   7.444  32.434  1.00  0.00     0.134 A 
HETATM   10  C9  UNK     1      14.447   8.711  32.809  1.00  0.00     0.104 A 
HETATM   11  C10 UNK     1      15.334   9.628  33.373  1.00  0.00     0.077 A 
ENDROOT
BRANCH   5  12
HETATM   12  C5  UNK     1      18.210   4.089  31.960  1.00  0.00     0.004 A 
HETATM   13  C11 UNK     1      18.189   3.030  32.868  1.00  0.00     0.053 A 
HETATM   14  C13 UNK     1      18.449   1.731  32.432  1.00  0.00     0.099 A 
HETATM   15  C15 UNK     1      18.730   1.489  31.087  1.00  0.00     0.098 A 
HETATM   16  C14 UNK     1      18.752   2.547  30.178  1.00  0.00     0.040 A 
HETATM   17  C12 UNK     1      18.492   3.847  30.615  1.00  0.00     0.017 A 
BRANCH  14  18
HETATM   18  O7  UNK     1      18.426   0.706  33.328  1.00  0.00    -0.358 OA
HETATM   19  H9  UNK     1      17.530   0.606  33.689  1.00  0.00     0.217 HD
ENDBRANCH  14  18
BRANCH  15  20
HETATM   20  O8  UNK     1      18.985   0.225  30.649  1.00  0.00    -0.358 OA
HETATM   21  H10 UNK     1      19.847  -0.069  30.981  1.00  0.00     0.217 HD
ENDBRANCH  15  20
ENDBRANCH   5  12
BRANCH   7  22
HETATM   22  O2  UNK     1      20.201   5.857  33.083  1.00  0.00    -0.355 OA
HETATM   23  H5  UNK     1      20.785   6.479  32.620  1.00  0.00     0.218 HD
ENDBRANCH   7  22
BRANCH   9  24
HETATM   24  O4  UNK     1      14.024   6.552  31.883  1.00  0.00    -0.356 OA
HETATM   25  H7  UNK     1      13.288   7.048  31.484  1.00  0.00     0.218 HD
ENDBRANCH   9  24
BRANCH   8  26
HETATM   26  O3  UNK     1      17.496  10.216  34.119  1.00  0.00    -0.360 OA
HETATM   27  H6  UNK     1      17.298  10.327  35.061  1.00  0.00     0.217 HD
ENDBRANCH   8  26
BRANCH  10  28
HETATM   28  O6  UNK     1      13.144   9.065  32.631  1.00  0.00    -0.358 OA
HETATM   29  H8  UNK     1      12.620   8.734  33.380  1.00  0.00     0.217 HD
ENDBRANCH  10  28
TORSDOF 7
ENDMDL
MODEL 7
REMARK VINA RESULT:      -8.1     13.222     17.575
REMARK  7 active torsions:
REMARK  status: ('A' for Active; 'I' for Inactive)
REMARK    1  A    between atoms: C6_14  and  O2_2 
REMARK    2  A    between atoms: C7_15  and  O3_3 
REMARK    3  A    between atoms: C8_16  and  O4_4 
REMARK    4  A    between atoms: C9_17  and  O6_6 
REMARK    5  A    between atoms: C13_21  and  O7_7 
REMARK    6  A    between atoms: C15_23  and  O8_8 
REMARK    7  A    between atoms: C3_11  and  C5_13 
ROOT
HETATM    1  O1  UNK     1      18.595  -0.115  32.636  1.00  0.00    -0.303 OA
HETATM    2  O5  UNK     1      20.802  -3.508  33.112  1.00  0.00    -0.284 OA
HETATM    3  C1  UNK     1      19.986  -1.844  31.652  1.00  0.00     0.087 A 
HETATM    4  C2  UNK     1      19.217  -0.686  31.556  1.00  0.00     0.129 A 
HETATM    5  C3  UNK     1      18.750  -0.709  33.878  1.00  0.00     0.123 A 
HETATM    6  C4  UNK     1      20.143  -2.486  32.966  1.00  0.00     0.223 A 
HETATM    7  C6  UNK     1      19.457  -1.830  34.105  1.00  0.00     0.152 A 
HETATM    8  C7  UNK     1      20.596  -2.382  30.516  1.00  0.00     0.085 A 
HETATM    9  C8  UNK     1      19.051  -0.060  30.321  1.00  0.00     0.134 A 
HETATM   10  C9  UNK     1      19.658  -0.595  29.184  1.00  0.00     0.104 A 
HETATM   11  C10 UNK     1      20.429  -1.753  29.282  1.00  0.00     0.077 A 
ENDROOT
BRANCH   5  12
HETATM   12  C5  UNK     1      18.032   0.004  34.950  1.00  0.00     0.004 A 
HETATM   13  C11 UNK     1      18.725   0.860  35.805  1.00  0.00     0.053 A 
HETATM   14  C13 UNK     1      18.045   1.536  36.819  1.00  0.00     0.099 A 
HETATM   15  C15 UNK     1      16.671   1.355  36.977  1.00  0.00     0.098 A 
HETATM   16  C14 UNK     1      15.977   0.499  36.123  1.00  0.00     0.040 A 
HETATM   17  C12 UNK     1      16.658  -0.176  35.109  1.00  0.00     0.017 A 
BRANCH  14  18
HETATM   18  O7  UNK     1      18.733   2.368  37.648  1.00  0.00    -0.358 OA
HETATM   19  H9  UNK     1      18.110   2.913  38.157  1.00  0.00     0.217 HD
ENDBRANCH  14  18
BRANCH  15  20
HETATM   20  O8  UNK     1      15.996   2.010  37.963  1.00  0.00    -0.358 OA
HETATM   21  H10 UNK     1      16.136   2.966  37.876  1.00  0.00     0.217 HD
ENDBRANCH  15  20
ENDBRANCH   5  12
BRANCH   7  22
HETATM   22  O2  UNK     1      19.564  -2.414  35.349  1.00  0.00    -0.355 OA
HETATM   23  H5  UNK     1      18.919  -3.134  35.432  1.00  0.00     0.218 HD
ENDBRANCH   7  22
BRANCH   9  24
HETATM   24  O4  UNK     1      18.298   1.072  30.219  1.00  0.00    -0.356 OA
HETATM   25  H7  UNK     1      17.380   0.851  30.453  1.00  0.00     0.218 HD
ENDBRANCH   9  24
BRANCH   8  26
HETATM   26  O3  UNK     1      21.360  -3.509  30.557  1.00  0.00    -0.360 OA
HETATM   27  H6  UNK     1      22.174  -3.351  31.057  1.00  0.00     0.217 HD
ENDBRANCH   8  26
BRANCH  10  28
HETATM   28  O6  UNK     1      19.506   0.006  27.971  1.00  0.00    -0.358 OA
HETATM   29  H8  UNK     1      18.601   0.353  27.900  1.00  0.00     0.217 HD
ENDBRANCH  10  28
TORSDOF 7
ENDMDL
MODEL 8
REMARK VINA RESULT:      -7.9      1.758      6.862
REMARK  7 active torsions:
REMARK  status: ('A' for Active; 'I' for Inactive)
REMARK    1  A    between atoms: C6_14  and  O2_2 
REMARK    2  A    between atoms: C7_15  and  O3_3 
REMARK    3  A    between atoms: C8_16  and  O4_4 
REMARK    4  A    between atoms: C9_17  and  O6_6 
REMARK    5  A    between atoms: C13_21  and  O7_7 
REMARK    6  A    between atoms: C15_23  and  O8_8 
REMARK    7  A    between atoms: C3_11  and  C5_13 
ROOT
HETATM    1  O1  UNK     1      20.576  -2.256  16.796  1.00  0.00    -0.303 OA
HETATM    2  O5  UNK     1      17.755  -4.494  14.887  1.00  0.00    -0.284 OA
HETATM    3  C1  UNK     1      19.937  -4.363  15.773  1.00  0.00     0.087 A 
HETATM    4  C2  UNK     1      20.857  -3.546  16.426  1.00  0.00     0.129 A 
HETATM    5  C3  UNK     1      19.317  -1.750  16.519  1.00  0.00     0.123 A 
HETATM    6  C4  UNK     1      18.603  -3.826  15.464  1.00  0.00     0.223 A 
HETATM    7  C6  UNK     1      18.342  -2.429  15.888  1.00  0.00     0.152 A 
HETATM    8  C7  UNK     1      20.281  -5.670  15.419  1.00  0.00     0.085 A 
HETATM    9  C8  UNK     1      22.130  -4.032  16.728  1.00  0.00     0.134 A 
HETATM   10  C9  UNK     1      22.477  -5.337  16.375  1.00  0.00     0.104 A 
HETATM   11  C10 UNK     1      21.554  -6.154  15.723  1.00  0.00     0.077 A 
ENDROOT
BRANCH   5  12
HETATM   12  C5  UNK     1      19.146  -0.356  16.968  1.00  0.00     0.004 A 
HETATM   13  C11 UNK     1      19.248   0.690  16.051  1.00  0.00     0.053 A 
HETATM   14  C13 UNK     1      19.085   2.009  16.476  1.00  0.00     0.099 A 
HETATM   15  C15 UNK     1      18.821   2.282  17.817  1.00  0.00     0.098 A 
HETATM   16  C14 UNK     1      18.719   1.237  18.735  1.00  0.00     0.040 A 
HETATM   17  C12 UNK     1      18.882  -0.083  18.309  1.00  0.00     0.017 A 
BRANCH  14  18
HETATM   18  O7  UNK     1      19.188   3.022  15.571  1.00  0.00    -0.358 OA
HETATM   19  H9  UNK     1      18.582   3.741  15.814  1.00  0.00     0.217 HD
ENDBRANCH  14  18
BRANCH  15  20
HETATM   20  O8  UNK     1      18.660   3.566  18.244  1.00  0.00    -0.358 OA
HETATM   21  H10 UNK     1      18.976   3.648  19.158  1.00  0.00     0.217 HD
ENDBRANCH  15  20
ENDBRANCH   5  12
BRANCH   7  22
HETATM   22  O2  UNK     1      17.110  -1.883  15.598  1.00  0.00    -0.355 OA
HETATM   23  H5  UNK     1      17.219  -1.115  15.015  1.00  0.00     0.218 HD
ENDBRANCH   7  22
BRANCH   9  24
HETATM   24  O4  UNK     1      23.037  -3.238  17.365  1.00  0.00    -0.356 OA
HETATM   25  H7  UNK     1      23.897  -3.693  17.365  1.00  0.00     0.218 HD
ENDBRANCH   9  24
BRANCH   8  26
HETATM   26  O3  UNK     1      19.417  -6.509  14.782  1.00  0.00    -0.360 OA
HETATM   27  H6  UNK     1      19.752  -6.740  13.902  1.00  0.00     0.217 HD
ENDBRANCH   8  26
BRANCH  10  28
HETATM   28  O6  UNK     1      23.715  -5.825  16.664  1.00  0.00    -0.358 OA
HETATM   29  H8  UNK     1      23.696  -6.795  16.601  1.00  0.00     0.217 HD
ENDBRANCH  10  28
TORSDOF 7
ENDMDL
MODEL 9
REMARK VINA RESULT:      -7.8     14.229     15.869
REMARK  7 active torsions:
REMARK  status: ('A' for Active; 'I' for Inactive)
REMARK    1  A    between atoms: C6_14  and  O2_2 
REMARK    2  A    between atoms: C7_15  and  O3_3 
REMARK    3  A    between atoms: C8_16  and  O4_4 
REMARK    4  A    between atoms: C9_17  and  O6_6 
REMARK    5  A    between atoms: C13_21  and  O7_7 
REMARK    6  A    between atoms: C15_23  and  O8_8 
REMARK    7  A    between atoms: C3_11  and  C5_13 
ROOT
HETATM    1  O1  UNK     1       7.815   7.071   9.922  1.00  0.00    -0.303 OA
HETATM    2  O5  UNK     1       5.343   3.888  10.528  1.00  0.00    -0.284 OA
HETATM    3  C1  UNK     1       5.946   6.090  11.122  1.00  0.00     0.087 A 
HETATM    4  C2  UNK     1       6.824   7.141  10.867  1.00  0.00     0.129 A 
HETATM    5  C3  UNK     1       7.938   5.908   9.180  1.00  0.00     0.123 A 
HETATM    6  C4  UNK     1       6.081   4.848  10.345  1.00  0.00     0.223 A 
HETATM    7  C6  UNK     1       7.163   4.820   9.331  1.00  0.00     0.152 A 
HETATM    8  C7  UNK     1       4.956   6.218  12.099  1.00  0.00     0.085 A 
HETATM    9  C8  UNK     1       6.718   8.329  11.591  1.00  0.00     0.134 A 
HETATM   10  C9  UNK     1       5.731   8.460  12.569  1.00  0.00     0.104 A 
HETATM   11  C10 UNK     1       4.852   7.407  12.821  1.00  0.00     0.077 A 
ENDROOT
BRANCH   5  12
HETATM   12  C5  UNK     1       9.039   5.964   8.202  1.00  0.00     0.004 A 
HETATM   13  C11 UNK     1      10.345   5.682   8.603  1.00  0.00     0.053 A 
HETATM   14  C13 UNK     1      11.387   5.734   7.677  1.00  0.00     0.099 A 
HETATM   15  C15 UNK     1      11.124   6.068   6.349  1.00  0.00     0.098 A 
HETATM   16  C14 UNK     1       9.819   6.351   5.947  1.00  0.00     0.040 A 
HETATM   17  C12 UNK     1       8.777   6.298   6.873  1.00  0.00     0.017 A 
BRANCH  14  18
HETATM   18  O7  UNK     1      12.658   5.458   8.082  1.00  0.00    -0.358 OA
HETATM   19  H9  UNK     1      12.657   4.672   8.652  1.00  0.00     0.217 HD
ENDBRANCH  14  18
BRANCH  15  20
HETATM   20  O8  UNK     1      12.133   6.122   5.435  1.00  0.00    -0.358 OA
HETATM   21  H10 UNK     1      12.594   6.973   5.507  1.00  0.00     0.217 HD
ENDBRANCH  15  20
ENDBRANCH   5  12
BRANCH   7  22
HETATM   22  O2  UNK     1       7.334   3.665   8.598  1.00  0.00    -0.355 OA
HETATM   23  H5  UNK     1       7.368   2.899   9.193  1.00  0.00     0.218 HD
ENDBRANCH   7  22
BRANCH   9  24
HETATM   24  O4  UNK     1       7.575   9.361  11.350  1.00  0.00    -0.356 OA
HETATM   25  H7  UNK     1       7.051  10.144  11.105  1.00  0.00     0.218 HD
ENDBRANCH   9  24
BRANCH   8  26
HETATM   26  O3  UNK     1       4.072   5.222  12.383  1.00  0.00    -0.360 OA
HETATM   27  H6  UNK     1       3.249   5.344  11.886  1.00  0.00     0.217 HD
ENDBRANCH   8  26
BRANCH  10  28
HETATM   28  O6  UNK     1       5.614   9.614  13.284  1.00  0.00    -0.358 OA
HETATM   29  H8  UNK     1       4.753  10.022  13.090  1.00  0.00     0.217 HD
ENDBRANCH  10  28
TORSDOF 7
ENDMDL
MODEL 10
REMARK VINA RESULT:      -7.8     14.624     17.493
REMARK  7 active torsions:
REMARK  status: ('A' for Active; 'I' for Inactive)
REMARK    1  A    between atoms: C6_14  and  O2_2 
REMARK    2  A    between atoms: C7_15  and  O3_3 
REMARK    3  A    between atoms: C8_16  and  O4_4 
REMARK    4  A    between atoms: C9_17  and  O6_6 
REMARK    5  A    between atoms: C13_21  and  O7_7 
REMARK    6  A    between atoms: C15_23  and  O8_8 
REMARK    7  A    between atoms: C3_11  and  C5_13 
ROOT
HETATM    1  O1  UNK     1      18.001   3.475  33.869  1.00  0.00    -0.303 OA
HETATM    2  O5  UNK     1      18.910   2.470  30.026  1.00  0.00    -0.284 OA
HETATM    3  C1  UNK     1      18.440   4.175  31.587  1.00  0.00     0.087 A 
HETATM    4  C2  UNK     1      18.130   4.453  32.916  1.00  0.00     0.129 A 
HETATM    5  C3  UNK     1      18.201   2.157  33.495  1.00  0.00     0.123 A 
HETATM    6  C4  UNK     1      18.641   2.775  31.181  1.00  0.00     0.223 A 
HETATM    7  C6  UNK     1      18.497   1.754  32.246  1.00  0.00     0.152 A 
HETATM    8  C7  UNK     1      18.557   5.212  30.658  1.00  0.00     0.085 A 
HETATM    9  C8  UNK     1      17.933   5.771  33.326  1.00  0.00     0.134 A 
HETATM   10  C9  UNK     1      18.049   6.810  32.401  1.00  0.00     0.104 A 
HETATM   11  C10 UNK     1      18.361   6.531  31.071  1.00  0.00     0.077 A 
ENDROOT
BRANCH   5  12
HETATM   12  C5  UNK     1      18.033   1.210  34.612  1.00  0.00     0.004 A 
HETATM   13  C11 UNK     1      18.101   1.665  35.929  1.00  0.00     0.053 A 
HETATM   14  C13 UNK     1      17.941   0.769  36.986  1.00  0.00     0.099 A 
HETATM   15  C15 UNK     1      17.712  -0.582  36.727  1.00  0.00     0.098 A 
HETATM   16  C14 UNK     1      17.644  -1.038  35.411  1.00  0.00     0.040 A 
HETATM   17  C12 UNK     1      17.805  -0.141  34.353  1.00  0.00     0.017 A 
BRANCH  14  18
HETATM   18  O7  UNK     1      18.010   1.225  38.267  1.00  0.00    -0.358 OA
HETATM   19  H9  UNK     1      18.390   2.119  38.277  1.00  0.00     0.217 HD
ENDBRANCH  14  18
BRANCH  15  20
HETATM   20  O8  UNK     1      17.553  -1.466  37.751  1.00  0.00    -0.358 OA
HETATM   21  H10 UNK     1      16.727  -1.276  38.222  1.00  0.00     0.217 HD
ENDBRANCH  15  20
ENDBRANCH   5  12
BRANCH   7  22
HETATM   22  O2  UNK     1      18.657   0.430  31.900  1.00  0.00    -0.355 OA
HETATM   23  H5  UNK     1      18.786  -0.106  32.699  1.00  0.00     0.218 HD
ENDBRANCH   7  22
BRANCH   9  24
HETATM   24  O4  UNK     1      17.627   6.051  34.625  1.00  0.00    -0.356 OA
HETATM   25  H7  UNK     1      18.057   5.385  35.191  1.00  0.00     0.218 HD
ENDBRANCH   9  24
BRANCH   8  26
HETATM   26  O3  UNK     1      18.861   4.995  29.349  1.00  0.00    -0.360 OA
HETATM   27  H6  UNK     1      19.398   4.193  29.252  1.00  0.00     0.217 HD
ENDBRANCH   8  26
BRANCH  10  28
HETATM   28  O6  UNK     1      17.860   8.103  32.786  1.00  0.00    -0.358 OA
HETATM   29  H8  UNK     1      18.670   8.429  33.213  1.00  0.00     0.217 HD
ENDBRANCH  10  28
TORSDOF 7
ENDMDL
