MODEL 1
REMARK VINA RESULT:      -9.8      0.000      0.000
REMARK  4 active torsions:
REMARK  status: ('A' for Active; 'I' for Inactive)
REMARK    1  A    between atoms: C4_9  and  N1_4 
REMARK       I    between atoms: C7_12  and  N1_4 
REMARK    2  A    between atoms: C15_20  and  N2_5 
REMARK    3  A    between atoms: C6_11  and  N2_5 
REMARK    4  A    between atoms: C2_7  and  C7_12 
ROOT
HETATM    1  O2  UNK     1      17.623   3.246  32.802  1.00  0.00    -0.267 OA
HETATM    2  N1  UNK     1      18.766   4.767  31.395  1.00  0.00    -0.323 N 
HETATM    3  C7  UNK     1      18.307   3.531  31.822  1.00  0.00     0.262 C 
HETATM    4  H2  UNK     1      19.312   4.807  30.538  1.00  0.00     0.169 HD
ENDROOT
BRANCH   2   5
HETATM    5  C4  UNK     1      18.550   6.026  32.003  1.00  0.00     0.035 A 
HETATM    6  C8  UNK     1      19.463   6.494  32.935  1.00  0.00     0.032 A 
HETATM    7  C10 UNK     1      19.251   7.737  33.533  1.00  0.00     0.031 A 
HETATM    8  C6  UNK     1      18.131   8.494  33.191  1.00  0.00     0.032 A 
HETATM    9  C11 UNK     1      17.222   8.009  32.250  1.00  0.00     0.031 A 
HETATM   10  C9  UNK     1      17.433   6.767  31.652  1.00  0.00     0.032 A 
BRANCH   8  11
HETATM   11  N2  UNK     1      17.917   9.750  33.795  1.00  0.00    -0.356 N 
HETATM   12  H8  UNK     1      18.763  10.306  33.891  1.00  0.00     0.166 HD
BRANCH  11  13
HETATM   13  C15 UNK     1      16.763  10.386  34.293  1.00  0.00     0.032 A 
HETATM   14  C18 UNK     1      16.634  11.772  34.203  1.00  0.00     0.029 A 
HETATM   15  C20 UNK     1      15.491  12.401  34.696  1.00  0.00     0.002 A 
HETATM   16  C22 UNK     1      14.475  11.644  35.280  1.00  0.00     0.000 A 
HETATM   17  C21 UNK     1      14.602  10.258  35.371  1.00  0.00     0.002 A 
HETATM   18  C19 UNK     1      15.746   9.629  34.878  1.00  0.00     0.029 A 
ENDBRANCH  11  13
ENDBRANCH   8  11
ENDBRANCH   2   5
BRANCH   3  19
HETATM   19  C2  UNK     1      18.723   2.428  30.947  1.00  0.00     0.108 A 
HETATM   20  C13 UNK     1      18.687   2.539  29.471  1.00  0.00     0.304 A 
HETATM   21  O1  UNK     1      19.106   1.425  28.750  1.00  0.00    -0.274 OA
HETATM   22  O3  UNK     1      18.308   3.561  28.907  1.00  0.00    -0.259 OA
HETATM   23  C3  UNK     1      19.544   0.248  29.388  1.00  0.00     0.089 A 
HETATM   24  C1  UNK     1      19.569   0.164  30.776  1.00  0.00    -0.001 A 
HETATM   25  C14 UNK     1      19.945  -0.815  28.581  1.00  0.00     0.038 A 
HETATM   26  C5  UNK     1      19.137   1.312  31.559  1.00  0.00     0.037 A 
HETATM   27  C12 UNK     1      20.010  -1.019  31.372  1.00  0.00     0.014 A 
HETATM   28  C16 UNK     1      20.416  -2.095  30.575  1.00  0.00     0.001 A 
HETATM   29  C17 UNK     1      20.383  -1.992  29.183  1.00  0.00     0.003 A 
ENDBRANCH   3  19
TORSDOF 4
ENDMDL
MODEL 2
REMARK VINA RESULT:      -9.3      2.497     10.326
REMARK  4 active torsions:
REMARK  status: ('A' for Active; 'I' for Inactive)
REMARK    1  A    between atoms: C4_9  and  N1_4 
REMARK       I    between atoms: C7_12  and  N1_4 
REMARK    2  A    between atoms: C15_20  and  N2_5 
REMARK    3  A    between atoms: C6_11  and  N2_5 
REMARK    4  A    between atoms: C2_7  and  C7_12 
ROOT
HETATM    1  O2  UNK     1      19.630   7.390  33.802  1.00  0.00    -0.267 OA
HETATM    2  N1  UNK     1      17.765   6.895  32.432  1.00  0.00    -0.323 N 
HETATM    3  C7  UNK     1      18.502   7.607  33.364  1.00  0.00     0.262 C 
HETATM    4  H2  UNK     1      16.844   7.244  32.179  1.00  0.00     0.169 HD
ENDROOT
BRANCH   2   5
HETATM    5  C4  UNK     1      18.146   5.718  31.744  1.00  0.00     0.035 A 
HETATM    6  C8  UNK     1      17.865   4.483  32.307  1.00  0.00     0.032 A 
HETATM    7  C10 UNK     1      18.240   3.324  31.629  1.00  0.00     0.031 A 
HETATM    8  C6  UNK     1      18.889   3.413  30.398  1.00  0.00     0.032 A 
HETATM    9  C11 UNK     1      19.164   4.664  29.845  1.00  0.00     0.031 A 
HETATM   10  C9  UNK     1      18.790   5.824  30.522  1.00  0.00     0.032 A 
BRANCH   8  11
HETATM   11  N2  UNK     1      19.267   2.241  29.712  1.00  0.00    -0.356 N 
HETATM   12  H8  UNK     1      19.361   2.369  28.708  1.00  0.00     0.166 HD
BRANCH  11  13
HETATM   13  C15 UNK     1      19.539   0.927  30.143  1.00  0.00     0.032 A 
HETATM   14  C18 UNK     1      20.220   0.043  29.306  1.00  0.00     0.029 A 
HETATM   15  C20 UNK     1      20.489  -1.257  29.732  1.00  0.00     0.002 A 
HETATM   16  C22 UNK     1      20.078  -1.674  30.998  1.00  0.00     0.000 A 
HETATM   17  C21 UNK     1      19.397  -0.792  31.837  1.00  0.00     0.002 A 
HETATM   18  C19 UNK     1      19.127   0.509  31.409  1.00  0.00     0.029 A 
ENDBRANCH  11  13
ENDBRANCH   8  11
ENDBRANCH   2   5
BRANCH   3  19
HETATM   19  C2  UNK     1      17.794   8.785  33.881  1.00  0.00     0.108 A 
HETATM   20  C13 UNK     1      16.495   8.676  34.582  1.00  0.00     0.304 A 
HETATM   21  O1  UNK     1      15.922   9.864  35.025  1.00  0.00    -0.274 OA
HETATM   22  O3  UNK     1      15.946   7.594  34.765  1.00  0.00    -0.259 OA
HETATM   23  C3  UNK     1      16.545  11.111  34.821  1.00  0.00     0.089 A 
HETATM   24  C1  UNK     1      17.765  11.192  34.159  1.00  0.00    -0.001 A 
HETATM   25  C14 UNK     1      15.894  12.245  35.302  1.00  0.00     0.038 A 
HETATM   26  C5  UNK     1      18.390   9.967  33.683  1.00  0.00     0.037 A 
HETATM   27  C12 UNK     1      18.351  12.446  33.976  1.00  0.00     0.014 A 
HETATM   28  C16 UNK     1      17.711  13.593  34.453  1.00  0.00     0.001 A 
HETATM   29  C17 UNK     1      16.486  13.493  35.115  1.00  0.00     0.003 A 
ENDBRANCH   3  19
TORSDOF 4
ENDMDL
MODEL 3
REMARK VINA RESULT:      -9.2      1.519      2.395
REMARK  4 active torsions:
REMARK  status: ('A' for Active; 'I' for Inactive)
REMARK    1  A    between atoms: C4_9  and  N1_4 
REMARK       I    between atoms: C7_12  and  N1_4 
REMARK    2  A    between atoms: C15_20  and  N2_5 
REMARK    3  A    between atoms: C6_11  and  N2_5 
REMARK    4  A    between atoms: C2_7  and  C7_12 
ROOT
HETATM    1  O2  UNK     1      18.593   4.692  30.444  1.00  0.00    -0.267 OA
HETATM    2  N1  UNK     1      17.634   4.542  32.602  1.00  0.00    -0.323 N 
HETATM    3  C7  UNK     1      18.276   4.083  31.464  1.00  0.00     0.262 C 
HETATM    4  H2  UNK     1      17.471   3.884  33.361  1.00  0.00     0.169 HD
ENDROOT
BRANCH   2   5
HETATM    5  C4  UNK     1      17.179   5.855  32.869  1.00  0.00     0.035 A 
HETATM    6  C8  UNK     1      17.424   6.418  34.111  1.00  0.00     0.032 A 
HETATM    7  C10 UNK     1      16.977   7.713  34.374  1.00  0.00     0.031 A 
HETATM    8  C6  UNK     1      16.293   8.428  33.392  1.00  0.00     0.032 A 
HETATM    9  C11 UNK     1      16.054   7.847  32.146  1.00  0.00     0.031 A 
HETATM   10  C9  UNK     1      16.500   6.552  31.883  1.00  0.00     0.032 A 
BRANCH   8  11
HETATM   11  N2  UNK     1      15.841   9.737  33.657  1.00  0.00    -0.356 N 
HETATM   12  H8  UNK     1      14.863   9.885  33.423  1.00  0.00     0.166 HD
BRANCH  11  13
HETATM   13  C15 UNK     1      16.478  10.879  34.179  1.00  0.00     0.032 A 
HETATM   14  C18 UNK     1      17.838  11.090  33.946  1.00  0.00     0.029 A 
HETATM   15  C20 UNK     1      18.469  12.222  34.462  1.00  0.00     0.002 A 
HETATM   16  C22 UNK     1      17.740  13.145  35.213  1.00  0.00     0.000 A 
HETATM   17  C21 UNK     1      16.381  12.936  35.446  1.00  0.00     0.002 A 
HETATM   18  C19 UNK     1      15.750  11.803  34.930  1.00  0.00     0.029 A 
ENDBRANCH  11  13
ENDBRANCH   8  11
ENDBRANCH   2   5
BRANCH   3  19
HETATM   19  C2  UNK     1      18.607   2.654  31.524  1.00  0.00     0.108 A 
HETATM   20  C13 UNK     1      18.377   1.846  32.743  1.00  0.00     0.304 A 
HETATM   21  O1  UNK     1      18.732   0.502  32.678  1.00  0.00    -0.274 OA
HETATM   22  O3  UNK     1      17.897   2.331  33.762  1.00  0.00    -0.259 OA
HETATM   23  C3  UNK     1      19.282  -0.066  31.512  1.00  0.00     0.089 A 
HETATM   24  C1  UNK     1      19.491   0.711  30.378  1.00  0.00    -0.001 A 
HETATM   25  C14 UNK     1      19.605  -1.422  31.542  1.00  0.00     0.038 A 
HETATM   26  C5  UNK     1      19.130   2.120  30.414  1.00  0.00     0.037 A 
HETATM   27  C12 UNK     1      20.038   0.112  29.241  1.00  0.00     0.014 A 
HETATM   28  C16 UNK     1      20.367  -1.246  29.256  1.00  0.00     0.001 A 
HETATM   29  C17 UNK     1      20.151  -2.011  30.404  1.00  0.00     0.003 A 
ENDBRANCH   3  19
TORSDOF 4
ENDMDL
MODEL 4
REMARK VINA RESULT:      -9.2      1.346      2.377
REMARK  4 active torsions:
REMARK  status: ('A' for Active; 'I' for Inactive)
REMARK    1  A    between atoms: C4_9  and  N1_4 
REMARK       I    between atoms: C7_12  and  N1_4 
REMARK    2  A    between atoms: C15_20  and  N2_5 
REMARK    3  A    between atoms: C6_11  and  N2_5 
REMARK    4  A    between atoms: C2_7  and  C7_12 
ROOT
HETATM    1  O2  UNK     1      18.518   4.582  30.232  1.00  0.00    -0.267 OA
HETATM    2  N1  UNK     1      17.931   4.625  32.524  1.00  0.00    -0.323 N 
HETATM    3  C7  UNK     1      18.360   4.061  31.334  1.00  0.00     0.262 C 
HETATM    4  H2  UNK     1      17.880   4.030  33.347  1.00  0.00     0.169 HD
ENDROOT
BRANCH   2   5
HETATM    5  C4  UNK     1      17.563   5.970  32.760  1.00  0.00     0.035 A 
HETATM    6  C8  UNK     1      16.327   6.421  32.322  1.00  0.00     0.032 A 
HETATM    7  C10 UNK     1      15.964   7.748  32.556  1.00  0.00     0.031 A 
HETATM    8  C6  UNK     1      16.838   8.604  33.223  1.00  0.00     0.032 A 
HETATM    9  C11 UNK     1      18.078   8.135  33.658  1.00  0.00     0.031 A 
HETATM   10  C9  UNK     1      18.442   6.809  33.425  1.00  0.00     0.032 A 
BRANCH   8  11
HETATM   11  N2  UNK     1      16.470   9.945  33.460  1.00  0.00    -0.356 N 
HETATM   12  H8  UNK     1      17.216  10.610  33.275  1.00  0.00     0.166 HD
BRANCH  11  13
HETATM   13  C15 UNK     1      15.275  10.543  33.904  1.00  0.00     0.032 A 
HETATM   14  C18 UNK     1      15.104  10.845  35.255  1.00  0.00     0.029 A 
HETATM   15  C20 UNK     1      13.920  11.438  35.695  1.00  0.00     0.002 A 
HETATM   16  C22 UNK     1      12.906  11.730  34.782  1.00  0.00     0.000 A 
HETATM   17  C21 UNK     1      13.076  11.429  33.431  1.00  0.00     0.002 A 
HETATM   18  C19 UNK     1      14.260  10.835  32.992  1.00  0.00     0.029 A 
ENDBRANCH  11  13
ENDBRANCH   8  11
ENDBRANCH   2   5
BRANCH   3  19
HETATM   19  C2  UNK     1      18.658   2.628  31.449  1.00  0.00     0.108 A 
HETATM   20  C13 UNK     1      18.369   1.862  32.683  1.00  0.00     0.304 A 
HETATM   21  O1  UNK     1      18.697   0.510  32.670  1.00  0.00    -0.274 OA
HETATM   22  O3  UNK     1      17.866   2.389  33.669  1.00  0.00    -0.259 OA
HETATM   23  C3  UNK     1      19.275  -0.105  31.542  1.00  0.00     0.089 A 
HETATM   24  C1  UNK     1      19.539   0.633  30.393  1.00  0.00    -0.001 A 
HETATM   25  C14 UNK     1      19.567  -1.465  31.625  1.00  0.00     0.038 A 
HETATM   26  C5  UNK     1      19.208   2.049  30.374  1.00  0.00     0.037 A 
HETATM   27  C12 UNK     1      20.112  -0.012  29.295  1.00  0.00     0.014 A 
HETATM   28  C16 UNK     1      20.411  -1.376  29.362  1.00  0.00     0.001 A 
HETATM   29  C17 UNK     1      20.139  -2.101  30.524  1.00  0.00     0.003 A 
ENDBRANCH   3  19
TORSDOF 4
ENDMDL
MODEL 5
REMARK VINA RESULT:      -9.2      5.610      8.330
REMARK  4 active torsions:
REMARK  status: ('A' for Active; 'I' for Inactive)
REMARK    1  A    between atoms: C4_9  and  N1_4 
REMARK       I    between atoms: C7_12  and  N1_4 
REMARK    2  A    between atoms: C15_20  and  N2_5 
REMARK    3  A    between atoms: C6_11  and  N2_5 
REMARK    4  A    between atoms: C2_7  and  C7_12 
ROOT
HETATM    1  O2  UNK     1      21.259  -2.411  34.392  1.00  0.00    -0.267 OA
HETATM    2  N1  UNK     1      18.993  -1.952  34.897  1.00  0.00    -0.323 N 
HETATM    3  C7  UNK     1      20.190  -2.646  34.953  1.00  0.00     0.262 C 
HETATM    4  H2  UNK     1      18.213  -2.294  35.452  1.00  0.00     0.169 HD
ENDROOT
BRANCH   2   5
HETATM    5  C4  UNK     1      18.708  -0.776  34.163  1.00  0.00     0.035 A 
HETATM    6  C8  UNK     1      18.933  -0.761  32.795  1.00  0.00     0.032 A 
HETATM    7  C10 UNK     1      18.651   0.398  32.071  1.00  0.00     0.031 A 
HETATM    8  C6  UNK     1      18.149   1.524  32.722  1.00  0.00     0.032 A 
HETATM    9  C11 UNK     1      17.929   1.492  34.100  1.00  0.00     0.031 A 
HETATM   10  C9  UNK     1      18.210   0.334  34.825  1.00  0.00     0.032 A 
BRANCH   8  11
HETATM   11  N2  UNK     1      17.864   2.695  31.990  1.00  0.00    -0.356 N 
HETATM   12  H8  UNK     1      17.124   2.575  31.303  1.00  0.00     0.166 HD
BRANCH  11  13
HETATM   13  C15 UNK     1      18.403   3.996  32.022  1.00  0.00     0.032 A 
HETATM   14  C18 UNK     1      18.298   4.768  33.179  1.00  0.00     0.029 A 
HETATM   15  C20 UNK     1      18.832   6.057  33.210  1.00  0.00     0.002 A 
HETATM   16  C22 UNK     1      19.472   6.573  32.084  1.00  0.00     0.000 A 
HETATM   17  C21 UNK     1      19.578   5.802  30.927  1.00  0.00     0.002 A 
HETATM   18  C19 UNK     1      19.044   4.514  30.895  1.00  0.00     0.029 A 
ENDBRANCH  11  13
ENDBRANCH   8  11
ENDBRANCH   2   5
BRANCH   3  19
HETATM   19  C2  UNK     1      20.131  -3.831  35.818  1.00  0.00     0.108 A 
HETATM   20  C13 UNK     1      20.092  -3.724  37.294  1.00  0.00     0.304 A 
HETATM   21  O1  UNK     1      20.037  -4.918  38.006  1.00  0.00    -0.274 OA
HETATM   22  O3  UNK     1      20.107  -2.639  37.866  1.00  0.00    -0.259 OA
HETATM   23  C3  UNK     1      20.018  -6.169  37.358  1.00  0.00     0.089 A 
HETATM   24  C1  UNK     1      20.055  -6.248  35.970  1.00  0.00    -0.001 A 
HETATM   25  C14 UNK     1      19.961  -7.310  38.157  1.00  0.00     0.038 A 
HETATM   26  C5  UNK     1      20.114  -5.017  35.198  1.00  0.00     0.037 A 
HETATM   27  C12 UNK     1      20.035  -7.506  35.365  1.00  0.00     0.014 A 
HETATM   28  C16 UNK     1      19.978  -8.660  36.152  1.00  0.00     0.001 A 
HETATM   29  C17 UNK     1      19.940  -8.562  37.545  1.00  0.00     0.003 A 
ENDBRANCH   3  19
TORSDOF 4
ENDMDL
MODEL 6
REMARK VINA RESULT:      -9.2      5.190     11.195
REMARK  4 active torsions:
REMARK  status: ('A' for Active; 'I' for Inactive)
REMARK    1  A    between atoms: C4_9  and  N1_4 
REMARK       I    between atoms: C7_12  and  N1_4 
REMARK    2  A    between atoms: C15_20  and  N2_5 
REMARK    3  A    between atoms: C6_11  and  N2_5 
REMARK    4  A    between atoms: C2_7  and  C7_12 
ROOT
HETATM    1  O2  UNK     1      16.649   0.673  34.234  1.00  0.00    -0.267 OA
HETATM    2  N1  UNK     1      18.983   0.348  34.447  1.00  0.00    -0.323 N 
HETATM    3  C7  UNK     1      17.822   0.986  34.042  1.00  0.00     0.262 C 
HETATM    4  H2  UNK     1      19.875   0.773  34.205  1.00  0.00     0.169 HD
ENDROOT
BRANCH   2   5
HETATM    5  C4  UNK     1      19.097  -0.846  35.198  1.00  0.00     0.035 A 
HETATM    6  C8  UNK     1      19.800  -1.916  34.666  1.00  0.00     0.032 A 
HETATM    7  C10 UNK     1      19.914  -3.092  35.407  1.00  0.00     0.031 A 
HETATM    8  C6  UNK     1      19.324  -3.184  36.667  1.00  0.00     0.032 A 
HETATM    9  C11 UNK     1      18.620  -2.098  37.188  1.00  0.00     0.031 A 
HETATM   10  C9  UNK     1      18.506  -0.921  36.448  1.00  0.00     0.032 A 
BRANCH   8  11
HETATM   11  N2  UNK     1      19.439  -4.373  37.416  1.00  0.00    -0.356 N 
HETATM   12  H8  UNK     1      19.387  -4.228  38.421  1.00  0.00     0.166 HD
BRANCH  11  13
HETATM   13  C15 UNK     1      19.614  -5.721  37.047  1.00  0.00     0.032 A 
HETATM   14  C18 UNK     1      20.887  -6.292  37.065  1.00  0.00     0.029 A 
HETATM   15  C20 UNK     1      21.059  -7.627  36.700  1.00  0.00     0.002 A 
HETATM   16  C22 UNK     1      19.958  -8.393  36.317  1.00  0.00     0.000 A 
HETATM   17  C21 UNK     1      18.685  -7.824  36.299  1.00  0.00     0.002 A 
HETATM   18  C19 UNK     1      18.513  -6.488  36.664  1.00  0.00     0.029 A 
ENDBRANCH  11  13
ENDBRANCH   8  11
ENDBRANCH   2   5
BRANCH   3  19
HETATM   19  C2  UNK     1      18.075   2.210  33.272  1.00  0.00     0.108 A 
HETATM   20  C13 UNK     1      18.372   2.178  31.821  1.00  0.00     0.304 A 
HETATM   21  O1  UNK     1      18.594   3.404  31.202  1.00  0.00    -0.274 OA
HETATM   22  O3  UNK     1      18.421   1.126  31.193  1.00  0.00    -0.259 OA
HETATM   23  C3  UNK     1      18.539   4.618  31.915  1.00  0.00     0.089 A 
HETATM   24  C1  UNK     1      18.258   4.626  33.277  1.00  0.00    -0.001 A 
HETATM   25  C14 UNK     1      18.774   5.795  31.207  1.00  0.00     0.038 A 
HETATM   26  C5  UNK     1      18.022   3.360  33.954  1.00  0.00     0.037 A 
HETATM   27  C12 UNK     1      18.213   5.849  33.948  1.00  0.00     0.014 A 
HETATM   28  C16 UNK     1      18.446   7.039  33.252  1.00  0.00     0.001 A 
HETATM   29  C17 UNK     1      18.726   7.011  31.884  1.00  0.00     0.003 A 
ENDBRANCH   3  19
TORSDOF 4
ENDMDL
MODEL 7
REMARK VINA RESULT:      -9.0      6.933     12.879
REMARK  4 active torsions:
REMARK  status: ('A' for Active; 'I' for Inactive)
REMARK    1  A    between atoms: C4_9  and  N1_4 
REMARK       I    between atoms: C7_12  and  N1_4 
REMARK    2  A    between atoms: C15_20  and  N2_5 
REMARK    3  A    between atoms: C6_11  and  N2_5 
REMARK    4  A    between atoms: C2_7  and  C7_12 
ROOT
HETATM    1  O2  UNK     1      17.707  -1.470  36.175  1.00  0.00    -0.267 OA
HETATM    2  N1  UNK     1      19.647  -2.319  35.118  1.00  0.00    -0.323 N 
HETATM    3  C7  UNK     1      18.585  -1.451  35.315  1.00  0.00     0.262 C 
HETATM    4  H2  UNK     1      20.289  -2.127  34.354  1.00  0.00     0.169 HD
ENDROOT
BRANCH   2   5
HETATM    5  C4  UNK     1      19.979  -3.464  35.880  1.00  0.00     0.035 A 
HETATM    6  C8  UNK     1      20.510  -3.302  37.150  1.00  0.00     0.032 A 
HETATM    7  C10 UNK     1      20.837  -4.431  37.902  1.00  0.00     0.031 A 
HETATM    8  C6  UNK     1      20.629  -5.705  37.375  1.00  0.00     0.032 A 
HETATM    9  C11 UNK     1      20.094  -5.851  36.094  1.00  0.00     0.031 A 
HETATM   10  C9  UNK     1      19.767  -4.723  35.342  1.00  0.00     0.032 A 
BRANCH   8  11
HETATM   11  N2  UNK     1      20.959  -6.846  38.135  1.00  0.00    -0.356 N 
HETATM   12  H8  UNK     1      21.548  -6.644  38.938  1.00  0.00     0.166 HD
BRANCH  11  13
HETATM   13  C15 UNK     1      20.634  -8.210  37.999  1.00  0.00     0.032 A 
HETATM   14  C18 UNK     1      19.449  -8.704  38.546  1.00  0.00     0.029 A 
HETATM   15  C20 UNK     1      19.128 -10.055  38.412  1.00  0.00     0.002 A 
HETATM   16  C22 UNK     1      19.990 -10.912  37.730  1.00  0.00     0.000 A 
HETATM   17  C21 UNK     1      21.174 -10.420  37.182  1.00  0.00     0.002 A 
HETATM   18  C19 UNK     1      21.497  -9.069  37.317  1.00  0.00     0.029 A 
ENDBRANCH  11  13
ENDBRANCH   8  11
ENDBRANCH   2   5
BRANCH   3  19
HETATM   19  C2  UNK     1      18.540  -0.363  34.330  1.00  0.00     0.108 A 
HETATM   20  C13 UNK     1      18.653  -0.615  32.876  1.00  0.00     0.304 A 
HETATM   21  O1  UNK     1      18.596   0.497  32.042  1.00  0.00    -0.274 OA
HETATM   22  O3  UNK     1      18.790  -1.747  32.423  1.00  0.00    -0.259 OA
HETATM   23  C3  UNK     1      18.437   1.801  32.552  1.00  0.00     0.089 A 
HETATM   24  C1  UNK     1      18.333   2.016  33.922  1.00  0.00    -0.001 A 
HETATM   25  C14 UNK     1      18.390   2.852  31.638  1.00  0.00     0.038 A 
HETATM   26  C5  UNK     1      18.390   0.874  34.820  1.00  0.00     0.037 A 
HETATM   27  C12 UNK     1      18.178   3.323  34.389  1.00  0.00     0.014 A 
HETATM   28  C16 UNK     1      18.128   4.388  33.484  1.00  0.00     0.001 A 
HETATM   29  C17 UNK     1      18.234   4.153  32.112  1.00  0.00     0.003 A 
ENDBRANCH   3  19
TORSDOF 4
ENDMDL
MODEL 8
REMARK VINA RESULT:      -8.9      6.633     12.043
REMARK  4 active torsions:
REMARK  status: ('A' for Active; 'I' for Inactive)
REMARK    1  A    between atoms: C4_9  and  N1_4 
REMARK       I    between atoms: C7_12  and  N1_4 
REMARK    2  A    between atoms: C15_20  and  N2_5 
REMARK    3  A    between atoms: C6_11  and  N2_5 
REMARK    4  A    between atoms: C2_7  and  C7_12 
ROOT
HETATM    1  O2  UNK     1      22.050  -2.132  33.175  1.00  0.00    -0.267 OA
HETATM    2  N1  UNK     1      19.820  -2.560  33.842  1.00  0.00    -0.323 N 
HETATM    3  C7  UNK     1      20.831  -2.081  33.025  1.00  0.00     0.262 C 
HETATM    4  H2  UNK     1      18.858  -2.438  33.537  1.00  0.00     0.169 HD
ENDROOT
BRANCH   2   5
HETATM    5  C4  UNK     1      19.954  -3.241  35.075  1.00  0.00     0.035 A 
HETATM    6  C8  UNK     1      19.982  -4.627  35.083  1.00  0.00     0.032 A 
HETATM    7  C10 UNK     1      20.116  -5.299  36.299  1.00  0.00     0.031 A 
HETATM    8  C6  UNK     1      20.220  -4.578  37.487  1.00  0.00     0.032 A 
HETATM    9  C11 UNK     1      20.190  -3.183  37.462  1.00  0.00     0.031 A 
HETATM   10  C9  UNK     1      20.057  -2.510  36.247  1.00  0.00     0.032 A 
BRANCH   8  11
HETATM   11  N2  UNK     1      20.356  -5.256  38.716  1.00  0.00    -0.356 N 
HETATM   12  H8  UNK     1      20.212  -4.661  39.528  1.00  0.00     0.166 HD
BRANCH  11  13
HETATM   13  C15 UNK     1      20.652  -6.595  39.040  1.00  0.00     0.032 A 
HETATM   14  C18 UNK     1      21.951  -6.957  39.398  1.00  0.00     0.029 A 
HETATM   15  C20 UNK     1      22.245  -8.282  39.719  1.00  0.00     0.002 A 
HETATM   16  C22 UNK     1      21.238  -9.247  39.683  1.00  0.00     0.000 A 
HETATM   17  C21 UNK     1      19.939  -8.887  39.326  1.00  0.00     0.002 A 
HETATM   18  C19 UNK     1      19.646  -7.561  39.004  1.00  0.00     0.029 A 
ENDBRANCH  11  13
ENDBRANCH   8  11
ENDBRANCH   2   5
BRANCH   3  19
HETATM   19  C2  UNK     1      20.330  -1.419  31.814  1.00  0.00     0.108 A 
HETATM   20  C13 UNK     1      20.439  -2.044  30.476  1.00  0.00     0.304 A 
HETATM   21  O1  UNK     1      19.927  -1.318  29.404  1.00  0.00    -0.274 OA
HETATM   22  O3  UNK     1      20.953  -3.146  30.315  1.00  0.00    -0.259 OA
HETATM   23  C3  UNK     1      19.334  -0.052  29.579  1.00  0.00     0.089 A 
HETATM   24  C1  UNK     1      19.242   0.517  30.845  1.00  0.00    -0.001 A 
HETATM   25  C14 UNK     1      18.849   0.597  28.445  1.00  0.00     0.038 A 
HETATM   26  C5  UNK     1      19.768  -0.217  31.986  1.00  0.00     0.037 A 
HETATM   27  C12 UNK     1      18.648   1.773  30.977  1.00  0.00     0.014 A 
HETATM   28  C16 UNK     1      18.156   2.437  29.850  1.00  0.00     0.001 A 
HETATM   29  C17 UNK     1      18.257   1.850  28.587  1.00  0.00     0.003 A 
ENDBRANCH   3  19
TORSDOF 4
ENDMDL
MODEL 9
REMARK VINA RESULT:      -8.8      6.857      9.517
REMARK  4 active torsions:
REMARK  status: ('A' for Active; 'I' for Inactive)
REMARK    1  A    between atoms: C4_9  and  N1_4 
REMARK       I    between atoms: C7_12  and  N1_4 
REMARK    2  A    between atoms: C15_20  and  N2_5 
REMARK    3  A    between atoms: C6_11  and  N2_5 
REMARK    4  A    between atoms: C2_7  and  C7_12 
ROOT
HETATM    1  O2  UNK     1      21.350  -2.793  35.969  1.00  0.00    -0.267 OA
HETATM    2  N1  UNK     1      19.012  -2.646  36.304  1.00  0.00    -0.323 N 
HETATM    3  C7  UNK     1      20.271  -3.220  36.375  1.00  0.00     0.262 C 
HETATM    4  H2  UNK     1      18.231  -3.149  36.718  1.00  0.00     0.169 HD
ENDROOT
BRANCH   2   5
HETATM    5  C4  UNK     1      18.660  -1.400  35.732  1.00  0.00     0.035 A 
HETATM    6  C8  UNK     1      18.673  -1.260  34.354  1.00  0.00     0.032 A 
HETATM    7  C10 UNK     1      18.325  -0.032  33.790  1.00  0.00     0.031 A 
HETATM    8  C6  UNK     1      17.969   1.037  34.611  1.00  0.00     0.032 A 
HETATM    9  C11 UNK     1      17.962   0.879  35.997  1.00  0.00     0.031 A 
HETATM   10  C9  UNK     1      18.309  -0.348  36.562  1.00  0.00     0.032 A 
BRANCH   8  11
HETATM   11  N2  UNK     1      17.617   2.278  34.041  1.00  0.00    -0.356 N 
HETATM   12  H8  UNK     1      16.888   2.768  34.553  1.00  0.00     0.166 HD
BRANCH  11  13
HETATM   13  C15 UNK     1      18.075   2.971  32.904  1.00  0.00     0.032 A 
HETATM   14  C18 UNK     1      18.281   4.350  32.961  1.00  0.00     0.029 A 
HETATM   15  C20 UNK     1      18.735   5.036  31.834  1.00  0.00     0.002 A 
HETATM   16  C22 UNK     1      18.983   4.343  30.649  1.00  0.00     0.000 A 
HETATM   17  C21 UNK     1      18.778   2.965  30.591  1.00  0.00     0.002 A 
HETATM   18  C19 UNK     1      18.323   2.279  31.718  1.00  0.00     0.029 A 
ENDBRANCH  11  13
ENDBRANCH   8  11
ENDBRANCH   2   5
BRANCH   3  19
HETATM   19  C2  UNK     1      20.272  -4.529  37.039  1.00  0.00     0.108 A 
HETATM   20  C13 UNK     1      19.118  -5.454  36.953  1.00  0.00     0.304 A 
HETATM   21  O1  UNK     1      19.238  -6.666  37.625  1.00  0.00    -0.274 OA
HETATM   22  O3  UNK     1      18.105  -5.170  36.323  1.00  0.00    -0.259 OA
HETATM   23  C3  UNK     1      20.398  -7.002  38.351  1.00  0.00     0.089 A 
HETATM   24  C1  UNK     1      21.470  -6.120  38.419  1.00  0.00    -0.001 A 
HETATM   25  C14 UNK     1      20.425  -8.241  38.990  1.00  0.00     0.038 A 
HETATM   26  C5  UNK     1      21.375  -4.843  37.728  1.00  0.00     0.037 A 
HETATM   27  C12 UNK     1      22.602  -6.489  39.149  1.00  0.00     0.014 A 
HETATM   28  C16 UNK     1      22.644  -7.727  39.796  1.00  0.00     0.001 A 
HETATM   29  C17 UNK     1      21.558  -8.601  39.716  1.00  0.00     0.003 A 
ENDBRANCH   3  19
TORSDOF 4
ENDMDL
MODEL 10
REMARK VINA RESULT:      -8.8      2.469     10.340
REMARK  4 active torsions:
REMARK  status: ('A' for Active; 'I' for Inactive)
REMARK    1  A    between atoms: C4_9  and  N1_4 
REMARK       I    between atoms: C7_12  and  N1_4 
REMARK    2  A    between atoms: C15_20  and  N2_5 
REMARK    3  A    between atoms: C6_11  and  N2_5 
REMARK    4  A    between atoms: C2_7  and  C7_12 
ROOT
HETATM    1  O2  UNK     1      15.553   7.451  31.244  1.00  0.00    -0.267 OA
HETATM    2  N1  UNK     1      17.581   6.922  32.344  1.00  0.00    -0.323 N 
HETATM    3  C7  UNK     1      16.434   7.652  32.078  1.00  0.00     0.262 C 
HETATM    4  H2  UNK     1      18.189   7.239  33.094  1.00  0.00     0.169 HD
ENDROOT
BRANCH   2   5
HETATM    5  C4  UNK     1      18.022   5.741  31.701  1.00  0.00     0.035 A 
HETATM    6  C8  UNK     1      18.752   5.840  30.528  1.00  0.00     0.032 A 
HETATM    7  C10 UNK     1      19.188   4.676  29.895  1.00  0.00     0.031 A 
HETATM    8  C6  UNK     1      18.889   3.429  30.444  1.00  0.00     0.032 A 
HETATM    9  C11 UNK     1      18.153   3.346  31.626  1.00  0.00     0.031 A 
HETATM   10  C9  UNK     1      17.717   4.510  32.259  1.00  0.00     0.032 A 
BRANCH   8  11
HETATM   11  N2  UNK     1      19.330   2.252  29.805  1.00  0.00    -0.356 N 
HETATM   12  H8  UNK     1      19.532   2.376  28.816  1.00  0.00     0.166 HD
BRANCH  11  13
HETATM   13  C15 UNK     1      19.545   0.938  30.266  1.00  0.00     0.032 A 
HETATM   14  C18 UNK     1      19.038   0.540  31.503  1.00  0.00     0.029 A 
HETATM   15  C20 UNK     1      19.250  -0.761  31.960  1.00  0.00     0.002 A 
HETATM   16  C22 UNK     1      19.970  -1.665  31.178  1.00  0.00     0.000 A 
HETATM   17  C21 UNK     1      20.478  -1.268  29.942  1.00  0.00     0.002 A 
HETATM   18  C19 UNK     1      20.266   0.034  29.486  1.00  0.00     0.029 A 
ENDBRANCH  11  13
ENDBRANCH   8  11
ENDBRANCH   2   5
BRANCH   3  19
HETATM   19  C2  UNK     1      16.288   8.831  32.940  1.00  0.00     0.108 A 
HETATM   20  C13 UNK     1      17.446   9.456  33.619  1.00  0.00     0.304 A 
HETATM   21  O1  UNK     1      17.181  10.569  34.410  1.00  0.00    -0.274 OA
HETATM   22  O3  UNK     1      18.585   9.017  33.494  1.00  0.00    -0.259 OA
HETATM   23  C3  UNK     1      15.877  11.081  34.560  1.00  0.00     0.089 A 
HETATM   24  C1  UNK     1      14.803  10.480  33.914  1.00  0.00    -0.001 A 
HETATM   25  C14 UNK     1      15.711  12.201  35.373  1.00  0.00     0.038 A 
HETATM   26  C5  UNK     1      15.047   9.313  33.079  1.00  0.00     0.037 A 
HETATM   27  C12 UNK     1      13.525  11.016  34.087  1.00  0.00     0.014 A 
HETATM   28  C16 UNK     1      13.342  12.139  34.899  1.00  0.00     0.001 A 
HETATM   29  C17 UNK     1      14.433  12.731  35.540  1.00  0.00     0.003 A 
ENDBRANCH   3  19
TORSDOF 4
ENDMDL
