MODEL 1
REMARK VINA RESULT:     -10.9      0.000      0.000
REMARK  7 active torsions:
REMARK  status: ('A' for Active; 'I' for Inactive)
REMARK    1  A    between atoms: C24_32  and  O4_4 
REMARK    2  A    between atoms: C5_13  and  N1_6 
REMARK    3  A    between atoms: C6_14  and  N2_7 
REMARK    4  A    between atoms: C17_25  and  N3_8 
REMARK       I    between atoms: C9_17  and  N3_8 
REMARK    5  A    between atoms: C5_13  and  C7_15 
REMARK    6  A    between atoms: C6_14  and  C9_17 
REMARK    7  A    between atoms: C19_27  and  C24_32 
ROOT
HETATM    1  N1  UNK     1      19.251  -3.133  36.147  1.00  0.00     0.096 N 
HETATM    2  N2  UNK     1      18.282  -0.524  35.364  1.00  0.00     0.100 N 
HETATM    3  C1  UNK     1      18.414  -2.329  37.047  1.00  0.00     0.303 C 
HETATM    4  C2  UNK     1      20.034  -2.264  35.261  1.00  0.00     0.303 C 
HETATM    5  C3  UNK     1      17.498  -1.394  36.250  1.00  0.00     0.303 C 
HETATM    6  C4  UNK     1      19.116  -1.328  34.464  1.00  0.00     0.303 C 
ENDROOT
BRANCH   2   7
HETATM    7  C6  UNK     1      17.407   0.366  34.604  1.00  0.00     0.375 C 
BRANCH   7   8
HETATM    8  C9  UNK     1      18.163   1.635  34.248  1.00  0.00     0.250 C 
HETATM    9  O2  UNK     1      19.028   2.114  34.974  1.00  0.00    -0.271 OA
HETATM   10  N3  UNK     1      17.729   2.126  33.019  1.00  0.00    -0.325 N 
HETATM   11  H15 UNK     1      17.009   1.595  32.537  1.00  0.00     0.169 HD
BRANCH  10  12
HETATM   12  C17 UNK     1      18.184   3.282  32.342  1.00  0.00     0.051 A 
HETATM   13  C19 UNK     1      18.512   3.240  30.987  1.00  0.00     0.066 A 
HETATM   14  C21 UNK     1      18.960   4.392  30.340  1.00  0.00     0.020 A 
HETATM   15  C23 UNK     1      19.079   5.587  31.050  1.00  0.00     0.001 A 
HETATM   16  C22 UNK     1      18.751   5.630  32.405  1.00  0.00     0.002 A 
HETATM   17  C20 UNK     1      18.304   4.478  33.051  1.00  0.00     0.030 A 
BRANCH  13  18
HETATM   18  C24 UNK     1      18.399   2.008  30.216  1.00  0.00     0.295 C 
HETATM   19  O5  UNK     1      17.532   1.799  29.358  1.00  0.00    -0.259 OA
BRANCH  18  20
HETATM   20  O4  UNK     1      19.373   1.112  30.558  1.00  0.00    -0.322 OA
HETATM   21  C25 UNK     1      19.986   0.385  29.488  1.00  0.00     0.213 C 
ENDBRANCH  18  20
ENDBRANCH  13  18
ENDBRANCH  10  12
ENDBRANCH   7   8
ENDBRANCH   2   7
BRANCH   1  22
HETATM   22  C5  UNK     1      20.126  -4.022  36.908  1.00  0.00     0.312 C 
BRANCH  22  23
HETATM   23  C7  UNK     1      20.150  -5.402  36.350  1.00  0.00    -0.011 A 
HETATM   24  C10 UNK     1      20.255  -5.615  35.032  1.00  0.00     0.092 A 
HETATM   25  C13 UNK     1      20.283  -6.962  34.435  1.00  0.00     0.288 A 
HETATM   26  O1  UNK     1      20.195  -8.033  35.310  1.00  0.00    -0.275 OA
HETATM   27  O3  UNK     1      20.380  -7.118  33.223  1.00  0.00    -0.260 OA
HETATM   28  C11 UNK     1      20.084  -7.840  36.702  1.00  0.00     0.090 A 
HETATM   29  C14 UNK     1      20.002  -8.992  37.487  1.00  0.00     0.045 A 
HETATM   30  C8  UNK     1      20.059  -6.558  37.253  1.00  0.00     0.006 A 
HETATM   31  C15 UNK     1      19.891  -8.864  38.868  1.00  0.00    -0.059 A 
HETATM   32  C16 UNK     1      19.862  -7.597  39.446  1.00  0.00     0.007 A 
HETATM   33  C18 UNK     1      19.802 -10.081  39.727  1.00  0.00     0.048 C 
HETATM   34  C12 UNK     1      19.946  -6.452  38.646  1.00  0.00     0.015 A 
ENDBRANCH  22  23
ENDBRANCH   1  22
TORSDOF 7
ENDMDL
MODEL 2
REMARK VINA RESULT:     -10.5      1.349      2.713
REMARK  7 active torsions:
REMARK  status: ('A' for Active; 'I' for Inactive)
REMARK    1  A    between atoms: C24_32  and  O4_4 
REMARK    2  A    between atoms: C5_13  and  N1_6 
REMARK    3  A    between atoms: C6_14  and  N2_7 
REMARK    4  A    between atoms: C17_25  and  N3_8 
REMARK       I    between atoms: C9_17  and  N3_8 
REMARK    5  A    between atoms: C5_13  and  C7_15 
REMARK    6  A    between atoms: C6_14  and  C9_17 
REMARK    7  A    between atoms: C19_27  and  C24_32 
ROOT
HETATM    1  N1  UNK     1      19.476  -3.608  36.367  1.00  0.00     0.096 N 
HETATM    2  N2  UNK     1      18.985  -0.831  35.731  1.00  0.00     0.100 N 
HETATM    3  C1  UNK     1      18.503  -2.812  37.127  1.00  0.00     0.303 C 
HETATM    4  C2  UNK     1      20.541  -2.747  35.838  1.00  0.00     0.303 C 
HETATM    5  C3  UNK     1      17.919  -1.691  36.259  1.00  0.00     0.303 C 
HETATM    6  C4  UNK     1      19.956  -1.626  34.971  1.00  0.00     0.303 C 
ENDROOT
BRANCH   2   7
HETATM    7  C6  UNK     1      18.428   0.236  34.903  1.00  0.00     0.375 C 
BRANCH   7   8
HETATM    8  C9  UNK     1      18.266  -0.262  33.476  1.00  0.00     0.250 C 
HETATM    9  O2  UNK     1      17.387  -1.053  33.148  1.00  0.00    -0.271 OA
HETATM   10  N3  UNK     1      19.234   0.309  32.654  1.00  0.00    -0.325 N 
HETATM   11  H15 UNK     1      19.883   0.961  33.087  1.00  0.00     0.169 HD
BRANCH  10  12
HETATM   12  C17 UNK     1      19.420   0.102  31.266  1.00  0.00     0.051 A 
HETATM   13  C19 UNK     1      19.062   1.080  30.339  1.00  0.00     0.066 A 
HETATM   14  C21 UNK     1      19.253   0.853  28.975  1.00  0.00     0.020 A 
HETATM   15  C23 UNK     1      19.801  -0.353  28.541  1.00  0.00     0.001 A 
HETATM   16  C22 UNK     1      20.158  -1.332  29.468  1.00  0.00     0.002 A 
HETATM   17  C20 UNK     1      19.968  -1.105  30.830  1.00  0.00     0.030 A 
BRANCH  13  18
HETATM   18  C24 UNK     1      18.486   2.351  30.759  1.00  0.00     0.295 C 
HETATM   19  O5  UNK     1      17.578   2.464  31.591  1.00  0.00    -0.259 OA
BRANCH  18  20
HETATM   20  O4  UNK     1      19.076   3.405  30.118  1.00  0.00    -0.322 OA
HETATM   21  C25 UNK     1      19.009   4.676  30.771  1.00  0.00     0.213 C 
ENDBRANCH  18  20
ENDBRANCH  13  18
ENDBRANCH  10  12
ENDBRANCH   7   8
ENDBRANCH   2   7
BRANCH   1  22
HETATM   22  C5  UNK     1      20.034  -4.674  37.197  1.00  0.00     0.312 C 
BRANCH  22  23
HETATM   23  C7  UNK     1      20.117  -5.969  36.468  1.00  0.00    -0.011 A 
HETATM   24  C10 UNK     1      20.356  -6.009  35.150  1.00  0.00     0.092 A 
HETATM   25  C13 UNK     1      20.447  -7.266  34.387  1.00  0.00     0.288 A 
HETATM   26  O1  UNK     1      20.273  -8.442  35.101  1.00  0.00    -0.275 OA
HETATM   27  O3  UNK     1      20.667  -7.263  33.182  1.00  0.00    -0.260 OA
HETATM   28  C11 UNK     1      20.021  -8.432  36.487  1.00  0.00     0.090 A 
HETATM   29  C14 UNK     1      19.861  -9.675  37.102  1.00  0.00     0.045 A 
HETATM   30  C8  UNK     1      19.937  -7.233  37.197  1.00  0.00     0.006 A 
HETATM   31  C15 UNK     1      19.610  -9.728  38.470  1.00  0.00    -0.059 A 
HETATM   32  C16 UNK     1      19.521  -8.547  39.203  1.00  0.00     0.007 A 
HETATM   33  C18 UNK     1      19.437 -11.045  39.148  1.00  0.00     0.048 C 
HETATM   34  C12 UNK     1      19.683  -7.308  38.573  1.00  0.00     0.015 A 
ENDBRANCH  22  23
ENDBRANCH   1  22
TORSDOF 7
ENDMDL
MODEL 3
REMARK VINA RESULT:      -9.8      4.078     12.099
REMARK  7 active torsions:
REMARK  status: ('A' for Active; 'I' for Inactive)
REMARK    1  A    between atoms: C24_32  and  O4_4 
REMARK    2  A    between atoms: C5_13  and  N1_6 
REMARK    3  A    between atoms: C6_14  and  N2_7 
REMARK    4  A    between atoms: C17_25  and  N3_8 
REMARK       I    between atoms: C9_17  and  N3_8 
REMARK    5  A    between atoms: C5_13  and  C7_15 
REMARK    6  A    between atoms: C6_14  and  C9_17 
REMARK    7  A    between atoms: C19_27  and  C24_32 
ROOT
HETATM    1  N1  UNK     1      18.050   5.442  31.487  1.00  0.00     0.096 N 
HETATM    2  N2  UNK     1      19.044   2.804  30.847  1.00  0.00     0.100 N 
HETATM    3  C1  UNK     1      18.934   5.219  30.336  1.00  0.00     0.303 C 
HETATM    4  C2  UNK     1      18.316   4.452  32.538  1.00  0.00     0.303 C 
HETATM    5  C3  UNK     1      18.777   3.793  29.796  1.00  0.00     0.303 C 
HETATM    6  C4  UNK     1      18.159   3.026  31.996  1.00  0.00     0.303 C 
ENDROOT
BRANCH   2   7
HETATM    7  C6  UNK     1      18.892   1.445  30.331  1.00  0.00     0.375 C 
BRANCH   7   8
HETATM    8  C9  UNK     1      19.611   0.472  31.250  1.00  0.00     0.250 C 
HETATM    9  O2  UNK     1      20.771   0.121  31.064  1.00  0.00    -0.271 OA
HETATM   10  N3  UNK     1      18.768   0.077  32.287  1.00  0.00    -0.325 N 
HETATM   11  H15 UNK     1      17.834   0.477  32.301  1.00  0.00     0.169 HD
BRANCH  10  12
HETATM   12  C17 UNK     1      19.061  -0.816  33.345  1.00  0.00     0.051 A 
HETATM   13  C19 UNK     1      18.498  -0.642  34.609  1.00  0.00     0.066 A 
HETATM   14  C21 UNK     1      18.803  -1.534  35.638  1.00  0.00     0.020 A 
HETATM   15  C23 UNK     1      19.671  -2.600  35.402  1.00  0.00     0.001 A 
HETATM   16  C22 UNK     1      20.235  -2.773  34.138  1.00  0.00     0.002 A 
HETATM   17  C20 UNK     1      19.930  -1.882  33.110  1.00  0.00     0.030 A 
BRANCH  13  18
HETATM   18  C24 UNK     1      17.588   0.461  34.890  1.00  0.00     0.295 C 
HETATM   19  O5  UNK     1      16.564   0.704  34.239  1.00  0.00    -0.259 OA
BRANCH  18  20
HETATM   20  O4  UNK     1      18.006   1.194  35.966  1.00  0.00    -0.322 OA
HETATM   21  C25 UNK     1      19.052   2.142  35.733  1.00  0.00     0.213 C 
ENDBRANCH  18  20
ENDBRANCH  13  18
ENDBRANCH  10  12
ENDBRANCH   7   8
ENDBRANCH   2   7
BRANCH   1  22
HETATM   22  C5  UNK     1      18.204   6.801  32.003  1.00  0.00     0.312 C 
BRANCH  22  23
HETATM   23  C7  UNK     1      16.894   7.432  32.326  1.00  0.00    -0.011 A 
HETATM   24  C10 UNK     1      15.739   6.852  31.971  1.00  0.00     0.092 A 
HETATM   25  C13 UNK     1      14.421   7.439  32.268  1.00  0.00     0.288 A 
HETATM   26  O1  UNK     1      14.416   8.646  32.951  1.00  0.00    -0.275 OA
HETATM   27  O3  UNK     1      13.385   6.880  31.928  1.00  0.00    -0.260 OA
HETATM   28  C11 UNK     1      15.615   9.278  33.338  1.00  0.00     0.090 A 
HETATM   29  C14 UNK     1      15.489  10.490  34.020  1.00  0.00     0.045 A 
HETATM   30  C8  UNK     1      16.857   8.711  33.049  1.00  0.00     0.006 A 
HETATM   31  C15 UNK     1      16.638  11.161  34.427  1.00  0.00    -0.059 A 
HETATM   32  C16 UNK     1      17.891  10.619  34.151  1.00  0.00     0.007 A 
HETATM   33  C18 UNK     1      16.528  12.457  35.158  1.00  0.00     0.048 C 
HETATM   34  C12 UNK     1      18.001   9.403  33.468  1.00  0.00     0.015 A 
ENDBRANCH  22  23
ENDBRANCH   1  22
TORSDOF 7
ENDMDL
MODEL 4
REMARK VINA RESULT:      -9.6      5.981      9.268
REMARK  7 active torsions:
REMARK  status: ('A' for Active; 'I' for Inactive)
REMARK    1  A    between atoms: C24_32  and  O4_4 
REMARK    2  A    between atoms: C5_13  and  N1_6 
REMARK    3  A    between atoms: C6_14  and  N2_7 
REMARK    4  A    between atoms: C17_25  and  N3_8 
REMARK       I    between atoms: C9_17  and  N3_8 
REMARK    5  A    between atoms: C5_13  and  C7_15 
REMARK    6  A    between atoms: C6_14  and  C9_17 
REMARK    7  A    between atoms: C19_27  and  C24_32 
ROOT
HETATM    1  N1  UNK     1      18.566   4.907  32.700  1.00  0.00     0.096 N 
HETATM    2  N2  UNK     1      18.888   7.700  33.373  1.00  0.00     0.100 N 
HETATM    3  C1  UNK     1      19.606   5.729  32.068  1.00  0.00     0.303 C 
HETATM    4  C2  UNK     1      17.416   5.737  33.080  1.00  0.00     0.303 C 
HETATM    5  C3  UNK     1      20.038   6.870  32.995  1.00  0.00     0.303 C 
HETATM    6  C4  UNK     1      17.850   6.879  34.007  1.00  0.00     0.303 C 
ENDROOT
BRANCH   2   7
HETATM    7  C6  UNK     1      19.301   8.787  34.259  1.00  0.00     0.375 C 
BRANCH   7   8
HETATM    8  C9  UNK     1      18.456  10.018  33.976  1.00  0.00     0.250 C 
HETATM    9  O2  UNK     1      18.926  11.049  33.507  1.00  0.00    -0.271 OA
HETATM   10  N3  UNK     1      17.127   9.779  34.319  1.00  0.00    -0.325 N 
HETATM   11  H15 UNK     1      16.903   8.857  34.684  1.00  0.00     0.169 HD
BRANCH  10  12
HETATM   12  C17 UNK     1      16.033  10.669  34.207  1.00  0.00     0.051 A 
HETATM   13  C19 UNK     1      14.980  10.408  33.331  1.00  0.00     0.066 A 
HETATM   14  C21 UNK     1      13.912  11.301  33.237  1.00  0.00     0.020 A 
HETATM   15  C23 UNK     1      13.899  12.456  34.019  1.00  0.00     0.001 A 
HETATM   16  C22 UNK     1      14.952  12.718  34.894  1.00  0.00     0.002 A 
HETATM   17  C20 UNK     1      16.019  11.825  34.989  1.00  0.00     0.030 A 
BRANCH  13  18
HETATM   18  C24 UNK     1      14.962   9.211  32.499  1.00  0.00     0.295 C 
HETATM   19  O5  UNK     1      15.805   8.952  31.632  1.00  0.00    -0.259 OA
BRANCH  18  20
HETATM   20  O4  UNK     1      13.897   8.408  32.799  1.00  0.00    -0.322 OA
HETATM   21  C25 UNK     1      13.883   7.107  32.204  1.00  0.00     0.213 C 
ENDBRANCH  18  20
ENDBRANCH  13  18
ENDBRANCH  10  12
ENDBRANCH   7   8
ENDBRANCH   2   7
BRANCH   1  22
HETATM   22  C5  UNK     1      18.152   3.821  31.814  1.00  0.00     0.312 C 
BRANCH  22  23
HETATM   23  C7  UNK     1      18.368   2.481  32.426  1.00  0.00    -0.011 A 
HETATM   24  C10 UNK     1      18.072   2.252  33.713  1.00  0.00     0.092 A 
HETATM   25  C13 UNK     1      18.268   0.944  34.361  1.00  0.00     0.288 A 
HETATM   26  O1  UNK     1      18.784  -0.072  33.571  1.00  0.00    -0.275 OA
HETATM   27  O3  UNK     1      17.986   0.770  35.541  1.00  0.00    -0.260 OA
HETATM   28  C11 UNK     1      19.104   0.139  32.215  1.00  0.00     0.090 A 
HETATM   29  C14 UNK     1      19.618  -0.955  31.517  1.00  0.00     0.045 A 
HETATM   30  C8  UNK     1      18.913   1.385  31.614  1.00  0.00     0.006 A 
HETATM   31  C15 UNK     1      19.952  -0.806  30.174  1.00  0.00    -0.059 A 
HETATM   32  C16 UNK     1      19.773   0.425  29.549  1.00  0.00     0.007 A 
HETATM   33  C18 UNK     1      20.501  -1.962  29.408  1.00  0.00     0.048 C 
HETATM   34  C12 UNK     1      19.257   1.513  30.262  1.00  0.00     0.015 A 
ENDBRANCH  22  23
ENDBRANCH   1  22
TORSDOF 7
ENDMDL
MODEL 5
REMARK VINA RESULT:      -9.6      2.029      2.688
REMARK  7 active torsions:
REMARK  status: ('A' for Active; 'I' for Inactive)
REMARK    1  A    between atoms: C24_32  and  O4_4 
REMARK    2  A    between atoms: C5_13  and  N1_6 
REMARK    3  A    between atoms: C6_14  and  N2_7 
REMARK    4  A    between atoms: C17_25  and  N3_8 
REMARK       I    between atoms: C9_17  and  N3_8 
REMARK    5  A    between atoms: C5_13  and  C7_15 
REMARK    6  A    between atoms: C6_14  and  C9_17 
REMARK    7  A    between atoms: C19_27  and  C24_32 
ROOT
HETATM    1  N1  UNK     1      19.510  -3.567  36.597  1.00  0.00     0.096 N 
HETATM    2  N2  UNK     1      18.451  -0.904  36.212  1.00  0.00     0.100 N 
HETATM    3  C1  UNK     1      20.061  -2.667  35.575  1.00  0.00     0.303 C 
HETATM    4  C2  UNK     1      18.092  -3.269  36.832  1.00  0.00     0.303 C 
HETATM    5  C3  UNK     1      19.870  -1.201  35.978  1.00  0.00     0.303 C 
HETATM    6  C4  UNK     1      17.902  -1.802  37.235  1.00  0.00     0.303 C 
ENDROOT
BRANCH   2   7
HETATM    7  C6  UNK     1      18.270   0.494  36.598  1.00  0.00     0.375 C 
BRANCH   7   8
HETATM    8  C9  UNK     1      18.771   1.395  35.482  1.00  0.00     0.250 C 
HETATM    9  O2  UNK     1      19.605   2.275  35.667  1.00  0.00    -0.271 OA
HETATM   10  N3  UNK     1      18.153   1.060  34.279  1.00  0.00    -0.325 N 
HETATM   11  H15 UNK     1      17.491   0.290  34.299  1.00  0.00     0.169 HD
BRANCH  10  12
HETATM   12  C17 UNK     1      18.347   1.661  33.012  1.00  0.00     0.051 A 
HETATM   13  C19 UNK     1      18.803   0.915  31.926  1.00  0.00     0.066 A 
HETATM   14  C21 UNK     1      18.988   1.529  30.686  1.00  0.00     0.020 A 
HETATM   15  C23 UNK     1      18.717   2.888  30.535  1.00  0.00     0.001 A 
HETATM   16  C22 UNK     1      18.262   3.634  31.622  1.00  0.00     0.002 A 
HETATM   17  C20 UNK     1      18.077   3.021  32.860  1.00  0.00     0.030 A 
BRANCH  13  18
HETATM   18  C24 UNK     1      19.096  -0.508  32.049  1.00  0.00     0.295 C 
HETATM   19  O5  UNK     1      18.325  -1.338  32.545  1.00  0.00    -0.259 OA
BRANCH  18  20
HETATM   20  O4  UNK     1      20.330  -0.810  31.546  1.00  0.00    -0.322 OA
HETATM   21  C25 UNK     1      20.434  -2.009  30.771  1.00  0.00     0.213 C 
ENDBRANCH  18  20
ENDBRANCH  13  18
ENDBRANCH  10  12
ENDBRANCH   7   8
ENDBRANCH   2   7
BRANCH   1  22
HETATM   22  C5  UNK     1      19.690  -4.964  36.210  1.00  0.00     0.312 C 
BRANCH  22  23
HETATM   23  C7  UNK     1      20.556  -5.707  37.167  1.00  0.00    -0.011 A 
HETATM   24  C10 UNK     1      21.669  -5.153  37.668  1.00  0.00     0.092 A 
HETATM   25  C13 UNK     1      22.556  -5.849  38.616  1.00  0.00     0.288 A 
HETATM   26  O1  UNK     1      22.188  -7.134  38.985  1.00  0.00    -0.275 OA
HETATM   27  O3  UNK     1      23.566  -5.310  39.053  1.00  0.00    -0.260 OA
HETATM   28  C11 UNK     1      21.023  -7.741  38.476  1.00  0.00     0.090 A 
HETATM   29  C14 UNK     1      20.752  -9.038  38.917  1.00  0.00     0.045 A 
HETATM   30  C8  UNK     1      20.192  -7.071  37.577  1.00  0.00     0.006 A 
HETATM   31  C15 UNK     1      19.615  -9.690  38.448  1.00  0.00    -0.059 A 
HETATM   32  C16 UNK     1      18.768  -9.044  37.550  1.00  0.00     0.007 A 
HETATM   33  C18 UNK     1      19.305 -11.075  38.906  1.00  0.00     0.048 C 
HETATM   34  C12 UNK     1      19.053  -7.744  37.117  1.00  0.00     0.015 A 
ENDBRANCH  22  23
ENDBRANCH   1  22
TORSDOF 7
ENDMDL
MODEL 6
REMARK VINA RESULT:      -9.5      1.870     10.103
REMARK  7 active torsions:
REMARK  status: ('A' for Active; 'I' for Inactive)
REMARK    1  A    between atoms: C24_32  and  O4_4 
REMARK    2  A    between atoms: C5_13  and  N1_6 
REMARK    3  A    between atoms: C6_14  and  N2_7 
REMARK    4  A    between atoms: C17_25  and  N3_8 
REMARK       I    between atoms: C9_17  and  N3_8 
REMARK    5  A    between atoms: C5_13  and  C7_15 
REMARK    6  A    between atoms: C6_14  and  C9_17 
REMARK    7  A    between atoms: C19_27  and  C24_32 
ROOT
HETATM    1  N1  UNK     1      18.466  -1.153  35.524  1.00  0.00     0.096 N 
HETATM    2  N2  UNK     1      19.853  -3.146  37.092  1.00  0.00     0.100 N 
HETATM    3  C1  UNK     1      17.844  -1.761  36.707  1.00  0.00     0.303 C 
HETATM    4  C2  UNK     1      19.411  -2.088  34.903  1.00  0.00     0.303 C 
HETATM    5  C3  UNK     1      18.909  -2.210  37.713  1.00  0.00     0.303 C 
HETATM    6  C4  UNK     1      20.476  -2.537  35.910  1.00  0.00     0.303 C 
ENDROOT
BRANCH   2   7
HETATM    7  C6  UNK     1      20.869  -3.572  38.052  1.00  0.00     0.375 C 
BRANCH   7   8
HETATM    8  C9  UNK     1      21.077  -5.073  37.935  1.00  0.00     0.250 C 
HETATM    9  O2  UNK     1      22.117  -5.565  37.512  1.00  0.00    -0.271 OA
HETATM   10  N3  UNK     1      19.943  -5.751  38.375  1.00  0.00    -0.325 N 
HETATM   11  H15 UNK     1      19.167  -5.186  38.710  1.00  0.00     0.169 HD
BRANCH  10  12
HETATM   12  C17 UNK     1      19.739  -7.151  38.426  1.00  0.00     0.051 A 
HETATM   13  C19 UNK     1      18.869  -7.783  37.538  1.00  0.00     0.066 A 
HETATM   14  C21 UNK     1      18.683  -9.164  37.608  1.00  0.00     0.020 A 
HETATM   15  C23 UNK     1      19.367  -9.912  38.566  1.00  0.00     0.001 A 
HETATM   16  C22 UNK     1      20.236  -9.280  39.455  1.00  0.00     0.002 A 
HETATM   17  C20 UNK     1      20.422  -7.900  39.385  1.00  0.00     0.030 A 
BRANCH  13  18
HETATM   18  C24 UNK     1      18.139  -7.032  36.525  1.00  0.00     0.295 C 
HETATM   19  O5  UNK     1      17.250  -6.208  36.773  1.00  0.00    -0.259 OA
BRANCH  18  20
HETATM   20  O4  UNK     1      18.560  -7.351  35.264  1.00  0.00    -0.322 OA
HETATM   21  C25 UNK     1      19.846  -6.861  34.870  1.00  0.00     0.213 C 
ENDBRANCH  18  20
ENDBRANCH  13  18
ENDBRANCH  10  12
ENDBRANCH   7   8
ENDBRANCH   2   7
BRANCH   1  22
HETATM   22  C5  UNK     1      17.449  -0.728  34.564  1.00  0.00     0.312 C 
BRANCH  22  23
HETATM   23  C7  UNK     1      17.943   0.345  33.657  1.00  0.00    -0.011 A 
HETATM   24  C10 UNK     1      17.721   1.638  33.928  1.00  0.00     0.092 A 
HETATM   25  C13 UNK     1      18.190   2.733  33.061  1.00  0.00     0.288 A 
HETATM   26  O1  UNK     1      18.893   2.368  31.922  1.00  0.00    -0.275 OA
HETATM   27  O3  UNK     1      17.968   3.905  33.340  1.00  0.00    -0.260 OA
HETATM   28  C11 UNK     1      19.143   1.017  31.612  1.00  0.00     0.090 A 
HETATM   29  C14 UNK     1      19.859   0.767  30.440  1.00  0.00     0.045 A 
HETATM   30  C8  UNK     1      18.691  -0.010  32.442  1.00  0.00     0.006 A 
HETATM   31  C15 UNK     1      20.136  -0.548  30.081  1.00  0.00    -0.059 A 
HETATM   32  C16 UNK     1      19.697  -1.593  30.891  1.00  0.00     0.007 A 
HETATM   33  C18 UNK     1      20.901  -0.838  28.834  1.00  0.00     0.048 C 
HETATM   34  C12 UNK     1      18.980  -1.328  32.063  1.00  0.00     0.015 A 
ENDBRANCH  22  23
ENDBRANCH   1  22
TORSDOF 7
ENDMDL
MODEL 7
REMARK VINA RESULT:      -9.5      1.784     10.232
REMARK  7 active torsions:
REMARK  status: ('A' for Active; 'I' for Inactive)
REMARK    1  A    between atoms: C24_32  and  O4_4 
REMARK    2  A    between atoms: C5_13  and  N1_6 
REMARK    3  A    between atoms: C6_14  and  N2_7 
REMARK    4  A    between atoms: C17_25  and  N3_8 
REMARK       I    between atoms: C9_17  and  N3_8 
REMARK    5  A    between atoms: C5_13  and  C7_15 
REMARK    6  A    between atoms: C6_14  and  C9_17 
REMARK    7  A    between atoms: C19_27  and  C24_32 
ROOT
HETATM    1  N1  UNK     1      18.732  -1.011  35.249  1.00  0.00     0.096 N 
HETATM    2  N2  UNK     1      19.852  -3.072  36.938  1.00  0.00     0.100 N 
HETATM    3  C1  UNK     1      17.954  -1.607  36.343  1.00  0.00     0.303 C 
HETATM    4  C2  UNK     1      19.709  -1.975  34.729  1.00  0.00     0.303 C 
HETATM    5  C3  UNK     1      18.877  -2.108  37.459  1.00  0.00     0.303 C 
HETATM    6  C4  UNK     1      20.631  -2.475  35.847  1.00  0.00     0.303 C 
ENDROOT
BRANCH   2   7
HETATM    7  C6  UNK     1      20.733  -3.547  38.004  1.00  0.00     0.375 C 
BRANCH   7   8
HETATM    8  C9  UNK     1      20.947  -5.044  37.853  1.00  0.00     0.250 C 
HETATM    9  O2  UNK     1      21.964  -5.520  37.360  1.00  0.00    -0.271 OA
HETATM   10  N3  UNK     1      19.848  -5.740  38.351  1.00  0.00    -0.325 N 
HETATM   11  H15 UNK     1      19.089  -5.188  38.740  1.00  0.00     0.169 HD
BRANCH  10  12
HETATM   12  C17 UNK     1      19.660  -7.142  38.393  1.00  0.00     0.051 A 
HETATM   13  C19 UNK     1      18.812  -7.782  37.489  1.00  0.00     0.066 A 
HETATM   14  C21 UNK     1      18.642  -9.165  37.551  1.00  0.00     0.020 A 
HETATM   15  C23 UNK     1      19.320  -9.908  38.516  1.00  0.00     0.001 A 
HETATM   16  C22 UNK     1      20.167  -9.269  39.421  1.00  0.00     0.002 A 
HETATM   17  C20 UNK     1      20.338  -7.887  39.359  1.00  0.00     0.030 A 
BRANCH  13  18
HETATM   18  C24 UNK     1      18.088  -7.036  36.467  1.00  0.00     0.295 C 
HETATM   19  O5  UNK     1      17.205  -6.204  36.707  1.00  0.00    -0.259 OA
BRANCH  18  20
HETATM   20  O4  UNK     1      18.509  -7.370  35.211  1.00  0.00    -0.322 OA
HETATM   21  C25 UNK     1      19.808  -6.912  34.823  1.00  0.00     0.213 C 
ENDBRANCH  18  20
ENDBRANCH  13  18
ENDBRANCH  10  12
ENDBRANCH   7   8
ENDBRANCH   2   7
BRANCH   1  22
HETATM   22  C5  UNK     1      17.851  -0.537  34.183  1.00  0.00     0.312 C 
BRANCH  22  23
HETATM   23  C7  UNK     1      18.554  -0.436  32.875  1.00  0.00    -0.011 A 
HETATM   24  C10 UNK     1      19.131  -1.508  32.313  1.00  0.00     0.092 A 
HETATM   25  C13 UNK     1      19.837  -1.456  31.022  1.00  0.00     0.288 A 
HETATM   26  O1  UNK     1      19.884  -0.224  30.386  1.00  0.00    -0.275 OA
HETATM   27  O3  UNK     1      20.353  -2.457  30.538  1.00  0.00    -0.260 OA
HETATM   28  C11 UNK     1      19.286   0.920  30.952  1.00  0.00     0.090 A 
HETATM   29  C14 UNK     1      19.397   2.106  30.225  1.00  0.00     0.045 A 
HETATM   30  C8  UNK     1      18.621   0.856  32.177  1.00  0.00     0.006 A 
HETATM   31  C15 UNK     1      18.826   3.269  30.733  1.00  0.00    -0.059 A 
HETATM   32  C16 UNK     1      18.157   3.235  31.954  1.00  0.00     0.007 A 
HETATM   33  C18 UNK     1      18.931   4.548  29.972  1.00  0.00     0.048 C 
HETATM   34  C12 UNK     1      18.054   2.038  32.672  1.00  0.00     0.015 A 
ENDBRANCH  22  23
ENDBRANCH   1  22
TORSDOF 7
ENDMDL
MODEL 8
REMARK VINA RESULT:      -9.5      2.228      3.002
REMARK  7 active torsions:
REMARK  status: ('A' for Active; 'I' for Inactive)
REMARK    1  A    between atoms: C24_32  and  O4_4 
REMARK    2  A    between atoms: C5_13  and  N1_6 
REMARK    3  A    between atoms: C6_14  and  N2_7 
REMARK    4  A    between atoms: C17_25  and  N3_8 
REMARK       I    between atoms: C9_17  and  N3_8 
REMARK    5  A    between atoms: C5_13  and  C7_15 
REMARK    6  A    between atoms: C6_14  and  C9_17 
REMARK    7  A    between atoms: C19_27  and  C24_32 
ROOT
HETATM    1  N1  UNK     1      19.493  -3.538  36.299  1.00  0.00     0.096 N 
HETATM    2  N2  UNK     1      18.939  -0.755  35.748  1.00  0.00     0.100 N 
HETATM    3  C1  UNK     1      18.355  -2.849  36.922  1.00  0.00     0.303 C 
HETATM    4  C2  UNK     1      20.574  -2.588  36.014  1.00  0.00     0.303 C 
HETATM    5  C3  UNK     1      17.857  -1.705  36.033  1.00  0.00     0.303 C 
HETATM    6  C4  UNK     1      20.074  -1.444  35.124  1.00  0.00     0.303 C 
ENDROOT
BRANCH   2   7
HETATM    7  C6  UNK     1      18.463   0.335  34.899  1.00  0.00     0.375 C 
BRANCH   7   8
HETATM    8  C9  UNK     1      18.288  -0.172  33.477  1.00  0.00     0.250 C 
HETATM    9  O2  UNK     1      17.429  -0.990  33.168  1.00  0.00    -0.271 OA
HETATM   10  N3  UNK     1      19.221   0.428  32.634  1.00  0.00    -0.325 N 
HETATM   11  H15 UNK     1      19.857   1.101  33.053  1.00  0.00     0.169 HD
BRANCH  10  12
HETATM   12  C17 UNK     1      19.385   0.224  31.243  1.00  0.00     0.051 A 
HETATM   13  C19 UNK     1      20.183  -0.812  30.758  1.00  0.00     0.066 A 
HETATM   14  C21 UNK     1      20.332  -0.994  29.383  1.00  0.00     0.020 A 
HETATM   15  C23 UNK     1      19.683  -0.138  28.493  1.00  0.00     0.001 A 
HETATM   16  C22 UNK     1      18.886   0.898  28.978  1.00  0.00     0.002 A 
HETATM   17  C20 UNK     1      18.737   1.080  30.352  1.00  0.00     0.030 A 
BRANCH  13  18
HETATM   18  C24 UNK     1      20.876  -1.724  31.660  1.00  0.00     0.295 C 
HETATM   19  O5  UNK     1      21.764  -1.382  32.450  1.00  0.00    -0.259 OA
BRANCH  18  20
HETATM   20  O4  UNK     1      20.420  -3.005  31.525  1.00  0.00    -0.322 OA
HETATM   21  C25 UNK     1      21.399  -4.048  31.582  1.00  0.00     0.213 C 
ENDBRANCH  18  20
ENDBRANCH  13  18
ENDBRANCH  10  12
ENDBRANCH   7   8
ENDBRANCH   2   7
BRANCH   1  22
HETATM   22  C5  UNK     1      19.969  -4.627  37.150  1.00  0.00     0.312 C 
BRANCH  22  23
HETATM   23  C7  UNK     1      20.070  -5.916  36.411  1.00  0.00    -0.011 A 
HETATM   24  C10 UNK     1      20.321  -5.943  35.095  1.00  0.00     0.092 A 
HETATM   25  C13 UNK     1      20.429  -7.192  34.323  1.00  0.00     0.288 A 
HETATM   26  O1  UNK     1      20.260  -8.376  35.026  1.00  0.00    -0.275 OA
HETATM   27  O3  UNK     1      20.659  -7.178  33.120  1.00  0.00    -0.260 OA
HETATM   28  C11 UNK     1      19.997  -8.379  36.410  1.00  0.00     0.090 A 
HETATM   29  C14 UNK     1      19.844  -9.629  37.014  1.00  0.00     0.045 A 
HETATM   30  C8  UNK     1      19.896  -7.187  37.129  1.00  0.00     0.006 A 
HETATM   31  C15 UNK     1      19.583  -9.695  38.379  1.00  0.00    -0.059 A 
HETATM   32  C16 UNK     1      19.476  -8.521  39.121  1.00  0.00     0.007 A 
HETATM   33  C18 UNK     1      19.417 -11.019  39.046  1.00  0.00     0.048 C 
HETATM   34  C12 UNK     1      19.632  -7.275  38.502  1.00  0.00     0.015 A 
ENDBRANCH  22  23
ENDBRANCH   1  22
TORSDOF 7
ENDMDL
MODEL 9
REMARK VINA RESULT:      -9.2      3.622     11.070
REMARK  7 active torsions:
REMARK  status: ('A' for Active; 'I' for Inactive)
REMARK    1  A    between atoms: C24_32  and  O4_4 
REMARK    2  A    between atoms: C5_13  and  N1_6 
REMARK    3  A    between atoms: C6_14  and  N2_7 
REMARK    4  A    between atoms: C17_25  and  N3_8 
REMARK       I    between atoms: C9_17  and  N3_8 
REMARK    5  A    between atoms: C5_13  and  C7_15 
REMARK    6  A    between atoms: C6_14  and  C9_17 
REMARK    7  A    between atoms: C19_27  and  C24_32 
ROOT
HETATM    1  N1  UNK     1      19.896  -4.727  36.582  1.00  0.00     0.096 N 
HETATM    2  N2  UNK     1      19.976  -7.604  36.852  1.00  0.00     0.100 N 
HETATM    3  C1  UNK     1      20.069  -5.598  35.412  1.00  0.00     0.303 C 
HETATM    4  C2  UNK     1      20.450  -5.365  37.783  1.00  0.00     0.303 C 
HETATM    5  C3  UNK     1      19.422  -6.967  35.651  1.00  0.00     0.303 C 
HETATM    6  C4  UNK     1      19.802  -6.734  38.021  1.00  0.00     0.303 C 
ENDROOT
BRANCH   2   7
HETATM    7  C6  UNK     1      19.358  -8.909  37.080  1.00  0.00     0.375 C 
BRANCH   7   8
HETATM    8  C9  UNK     1      20.439  -9.972  37.168  1.00  0.00     0.250 C 
HETATM    9  O2  UNK     1      20.279 -11.029  37.770  1.00  0.00    -0.271 OA
HETATM   10  N3  UNK     1      21.577  -9.561  36.478  1.00  0.00    -0.325 N 
HETATM   11  H15 UNK     1      21.537  -8.655  36.019  1.00  0.00     0.169 HD
BRANCH  10  12
HETATM   12  C17 UNK     1      22.795 -10.264  36.325  1.00  0.00     0.051 A 
HETATM   13  C19 UNK     1      23.990  -9.752  36.830  1.00  0.00     0.066 A 
HETATM   14  C21 UNK     1      25.180 -10.462  36.666  1.00  0.00     0.020 A 
HETATM   15  C23 UNK     1      25.174 -11.684  35.995  1.00  0.00     0.001 A 
HETATM   16  C22 UNK     1      23.979 -12.197  35.489  1.00  0.00     0.002 A 
HETATM   17  C20 UNK     1      22.790 -11.487  35.653  1.00  0.00     0.030 A 
BRANCH  13  18
HETATM   18  C24 UNK     1      24.032  -8.477  37.536  1.00  0.00     0.295 C 
HETATM   19  O5  UNK     1      23.045  -7.925  38.037  1.00  0.00    -0.259 OA
BRANCH  18  20
HETATM   20  O4  UNK     1      25.300  -7.968  37.576  1.00  0.00    -0.322 OA
HETATM   21  C25 UNK     1      25.909  -7.854  38.866  1.00  0.00     0.213 C 
ENDBRANCH  18  20
ENDBRANCH  13  18
ENDBRANCH  10  12
ENDBRANCH   7   8
ENDBRANCH   2   7
BRANCH   1  22
HETATM   22  C5  UNK     1      20.517  -3.423  36.354  1.00  0.00     0.312 C 
BRANCH  22  23
HETATM   23  C7  UNK     1      19.594  -2.472  35.675  1.00  0.00    -0.011 A 
HETATM   24  C10 UNK     1      18.588  -1.888  36.341  1.00  0.00     0.092 A 
HETATM   25  C13 UNK     1      17.651  -0.941  35.713  1.00  0.00     0.288 A 
HETATM   26  O1  UNK     1      17.852  -0.666  34.368  1.00  0.00    -0.275 OA
HETATM   27  O3  UNK     1      16.743  -0.426  36.353  1.00  0.00    -0.260 OA
HETATM   28  C11 UNK     1      18.901  -1.264  33.642  1.00  0.00     0.090 A 
HETATM   29  C14 UNK     1      19.007  -0.914  32.295  1.00  0.00     0.045 A 
HETATM   30  C8  UNK     1      19.781  -2.160  34.251  1.00  0.00     0.006 A 
HETATM   31  C15 UNK     1      20.023  -1.473  31.527  1.00  0.00    -0.059 A 
HETATM   32  C16 UNK     1      20.916  -2.371  32.109  1.00  0.00     0.007 A 
HETATM   33  C18 UNK     1      20.157  -1.113  30.086  1.00  0.00     0.048 C 
HETATM   34  C12 UNK     1      20.797  -2.712  33.460  1.00  0.00     0.015 A 
ENDBRANCH  22  23
ENDBRANCH   1  22
TORSDOF 7
ENDMDL
MODEL 10
REMARK VINA RESULT:      -9.2     11.344     13.449
REMARK  7 active torsions:
REMARK  status: ('A' for Active; 'I' for Inactive)
REMARK    1  A    between atoms: C24_32  and  O4_4 
REMARK    2  A    between atoms: C5_13  and  N1_6 
REMARK    3  A    between atoms: C6_14  and  N2_7 
REMARK    4  A    between atoms: C17_25  and  N3_8 
REMARK       I    between atoms: C9_17  and  N3_8 
REMARK    5  A    between atoms: C5_13  and  C7_15 
REMARK    6  A    between atoms: C6_14  and  C9_17 
REMARK    7  A    between atoms: C19_27  and  C24_32 
ROOT
HETATM    1  N1  UNK     1      30.584  -5.745  35.247  1.00  0.00     0.096 N 
HETATM    2  N2  UNK     1      30.079  -5.638  32.403  1.00  0.00     0.100 N 
HETATM    3  C1  UNK     1      31.675  -5.543  34.285  1.00  0.00     0.303 C 
HETATM    4  C2  UNK     1      29.499  -6.523  34.636  1.00  0.00     0.303 C 
HETATM    5  C3  UNK     1      31.163  -4.860  33.013  1.00  0.00     0.303 C 
HETATM    6  C4  UNK     1      28.987  -5.838  33.363  1.00  0.00     0.303 C 
ENDROOT
BRANCH   2   7
HETATM    7  C6  UNK     1      29.589  -4.984  31.191  1.00  0.00     0.375 C 
BRANCH   7   8
HETATM    8  C9  UNK     1      28.891  -6.007  30.311  1.00  0.00     0.250 C 
HETATM    9  O2  UNK     1      27.776  -5.820  29.836  1.00  0.00    -0.271 OA
HETATM   10  N3  UNK     1      29.700  -7.129  30.143  1.00  0.00    -0.325 N 
HETATM   11  H15 UNK     1      30.609  -7.116  30.597  1.00  0.00     0.169 HD
BRANCH  10  12
HETATM   12  C17 UNK     1      29.412  -8.297  29.397  1.00  0.00     0.051 A 
HETATM   13  C19 UNK     1      30.407  -8.946  28.665  1.00  0.00     0.066 A 
HETATM   14  C21 UNK     1      30.100 -10.094  27.935  1.00  0.00     0.020 A 
HETATM   15  C23 UNK     1      28.798 -10.594  27.938  1.00  0.00     0.001 A 
HETATM   16  C22 UNK     1      27.803  -9.945  28.669  1.00  0.00     0.002 A 
HETATM   17  C20 UNK     1      28.109  -8.797  29.398  1.00  0.00     0.030 A 
BRANCH  13  18
HETATM   18  C24 UNK     1      31.778  -8.450  28.641  1.00  0.00     0.295 C 
HETATM   19  O5  UNK     1      32.086  -7.260  28.507  1.00  0.00    -0.259 OA
BRANCH  18  20
HETATM   20  O4  UNK     1      32.680  -9.467  28.785  1.00  0.00    -0.322 OA
HETATM   21  C25 UNK     1      33.140  -9.737  30.113  1.00  0.00     0.213 C 
ENDBRANCH  18  20
ENDBRANCH  13  18
ENDBRANCH  10  12
ENDBRANCH   7   8
ENDBRANCH   2   7
BRANCH   1  22
HETATM   22  C5  UNK     1      31.074  -6.401  36.458  1.00  0.00     0.312 C 
BRANCH  22  23
HETATM   23  C7  UNK     1      30.209  -6.122  37.638  1.00  0.00    -0.011 A 
HETATM   24  C10 UNK     1      30.191  -4.912  38.213  1.00  0.00     0.092 A 
HETATM   25  C13 UNK     1      29.353  -4.590  39.381  1.00  0.00     0.288 A 
HETATM   26  O1  UNK     1      28.558  -5.612  39.879  1.00  0.00    -0.275 OA
HETATM   27  O3  UNK     1      29.362  -3.471  39.881  1.00  0.00    -0.260 OA
HETATM   28  C11 UNK     1      28.556  -6.894  39.294  1.00  0.00     0.090 A 
HETATM   29  C14 UNK     1      27.718  -7.845  39.879  1.00  0.00     0.045 A 
HETATM   30  C8  UNK     1      29.356  -7.185  38.188  1.00  0.00     0.006 A 
HETATM   31  C15 UNK     1      27.674  -9.130  39.345  1.00  0.00    -0.059 A 
HETATM   32  C16 UNK     1      28.462  -9.448  38.242  1.00  0.00     0.007 A 
HETATM   33  C18 UNK     1      26.785 -10.162  39.953  1.00  0.00     0.048 C 
HETATM   34  C12 UNK     1      29.297  -8.484  37.666  1.00  0.00     0.015 A 
ENDBRANCH  22  23
ENDBRANCH   1  22
TORSDOF 7
ENDMDL
