MODEL 1
REMARK VINA RESULT:      -8.2      0.000      0.000
REMARK  4 active torsions:
REMARK  status: ('A' for Active; 'I' for Inactive)
REMARK       I    between atoms: C5_9  and  N1_3 
REMARK    1  A    between atoms: C8_12  and  N1_3 
REMARK    2  A    between atoms: C1_5  and  C2_6 
REMARK    3  A    between atoms: C1_5  and  C5_9 
REMARK    4  A    between atoms: C3_7  and  C4_8 
ROOT
HETATM    1  C1  UNK     1      18.444   4.928  33.400  1.00  0.00     0.043 C 
HETATM    2  C3  UNK     1      18.037   5.840  34.320  1.00  0.00     0.029 C 
ENDROOT
BRANCH   1   3
HETATM    3  C2  UNK     1      19.059   5.328  32.117  1.00  0.00    -0.021 A 
HETATM    4  C6  UNK     1      20.433   5.485  32.048  1.00  0.00     0.012 A 
HETATM    5  C11 UNK     1      21.014   5.864  30.837  1.00  0.00     0.001 A 
HETATM    6  C14 UNK     1      20.212   6.078  29.716  1.00  0.00     0.000 A 
HETATM    7  C12 UNK     1      18.829   5.915  29.805  1.00  0.00     0.001 A 
HETATM    8  C7  UNK     1      18.249   5.537  31.016  1.00  0.00     0.012 A 
ENDBRANCH   1   3
BRANCH   1   9
HETATM    9  C5  UNK     1      18.204   3.474  33.742  1.00  0.00     0.258 C 
HETATM   10  O2  UNK     1      17.668   2.728  32.926  1.00  0.00    -0.267 OA
HETATM   11  N1  UNK     1      18.636   3.140  35.018  1.00  0.00    -0.305 N 
HETATM   12  H4  UNK     1      19.067   3.839  35.616  1.00  0.00     0.170 HD
BRANCH  11  13
HETATM   13  C8  UNK     1      18.551   1.885  35.636  1.00  0.00     0.160 A 
HETATM   14  C13 UNK     1      17.848   1.648  36.816  1.00  0.00     0.087 A 
HETATM   15  C15 UNK     1      18.046   0.309  37.029  1.00  0.00     0.078 A 
HETATM   16  O1  UNK     1      18.817  -0.202  36.036  1.00  0.00    -0.216 OA
HETATM   17  C19 UNK     1      17.609  -0.629  38.070  1.00  0.00     0.079 C 
HETATM   18  N2  UNK     1      19.143   0.809  35.141  1.00  0.00    -0.110 NA
ENDBRANCH  11  13
ENDBRANCH   1   9
BRANCH   2  19
HETATM   19  C4  UNK     1      18.120   7.288  34.200  1.00  0.00    -0.035 A 
HETATM   20  C10 UNK     1      19.314   7.946  34.499  1.00  0.00     0.011 A 
HETATM   21  C17 UNK     1      19.394   9.333  34.384  1.00  0.00     0.001 A 
HETATM   22  C18 UNK     1      18.280  10.064  33.970  1.00  0.00     0.000 A 
HETATM   23  C16 UNK     1      17.087   9.407  33.670  1.00  0.00     0.001 A 
HETATM   24  C9  UNK     1      17.007   8.019  33.785  1.00  0.00     0.011 A 
ENDBRANCH   2  19
TORSDOF 4
ENDMDL
MODEL 2
REMARK VINA RESULT:      -8.1     17.216     20.396
REMARK  4 active torsions:
REMARK  status: ('A' for Active; 'I' for Inactive)
REMARK       I    between atoms: C5_9  and  N1_3 
REMARK    1  A    between atoms: C8_12  and  N1_3 
REMARK    2  A    between atoms: C1_5  and  C2_6 
REMARK    3  A    between atoms: C1_5  and  C5_9 
REMARK    4  A    between atoms: C3_7  and  C4_8 
ROOT
HETATM    1  C1  UNK     1      19.124  -2.073  15.225  1.00  0.00     0.043 C 
HETATM    2  C3  UNK     1      19.181  -1.389  14.052  1.00  0.00     0.029 C 
ENDROOT
BRANCH   1   3
HETATM    3  C2  UNK     1      19.533  -3.489  15.327  1.00  0.00    -0.021 A 
HETATM    4  C6  UNK     1      20.877  -3.796  15.447  1.00  0.00     0.012 A 
HETATM    5  C11 UNK     1      21.263  -5.133  15.543  1.00  0.00     0.001 A 
HETATM    6  C14 UNK     1      20.299  -6.141  15.519  1.00  0.00     0.000 A 
HETATM    7  C12 UNK     1      18.949  -5.812  15.398  1.00  0.00     0.001 A 
HETATM    8  C7  UNK     1      18.563  -4.475  15.301  1.00  0.00     0.012 A 
ENDBRANCH   1   3
BRANCH   1   9
HETATM    9  C5  UNK     1      18.587  -1.316  16.419  1.00  0.00     0.258 C 
HETATM   10  O2  UNK     1      17.542  -1.672  16.957  1.00  0.00    -0.267 OA
HETATM   11  N1  UNK     1      19.384  -0.238  16.781  1.00  0.00    -0.305 N 
HETATM   12  H4  UNK     1      20.233  -0.028  16.263  1.00  0.00     0.170 HD
BRANCH  11  13
HETATM   13  C8  UNK     1      19.161   0.662  17.831  1.00  0.00     0.160 A 
HETATM   14  C13 UNK     1      19.380   0.357  19.173  1.00  0.00     0.087 A 
HETATM   15  C15 UNK     1      19.032   1.517  19.813  1.00  0.00     0.078 A 
HETATM   16  O1  UNK     1      18.635   2.441  18.902  1.00  0.00    -0.216 OA
HETATM   17  C19 UNK     1      19.008   1.932  21.222  1.00  0.00     0.079 C 
HETATM   18  N2  UNK     1      18.717   1.893  17.628  1.00  0.00    -0.110 NA
ENDBRANCH  11  13
ENDBRANCH   1   9
BRANCH   2  19
HETATM   19  C4  UNK     1      19.617  -1.911  12.765  1.00  0.00    -0.035 A 
HETATM   20  C10 UNK     1      20.727  -1.356  12.128  1.00  0.00     0.011 A 
HETATM   21  C17 UNK     1      21.145  -1.856  10.894  1.00  0.00     0.001 A 
HETATM   22  C18 UNK     1      20.453  -2.911  10.299  1.00  0.00     0.000 A 
HETATM   23  C16 UNK     1      19.344  -3.466  10.936  1.00  0.00     0.001 A 
HETATM   24  C9  UNK     1      18.925  -2.965  12.170  1.00  0.00     0.011 A 
ENDBRANCH   2  19
TORSDOF 4
ENDMDL
MODEL 3
REMARK VINA RESULT:      -7.9      5.700     11.966
REMARK  4 active torsions:
REMARK  status: ('A' for Active; 'I' for Inactive)
REMARK       I    between atoms: C5_9  and  N1_3 
REMARK    1  A    between atoms: C8_12  and  N1_3 
REMARK    2  A    between atoms: C1_5  and  C2_6 
REMARK    3  A    between atoms: C1_5  and  C5_9 
REMARK    4  A    between atoms: C3_7  and  C4_8 
ROOT
HETATM    1  C1  UNK     1      20.187  -4.508  36.897  1.00  0.00     0.043 C 
HETATM    2  C3  UNK     1      21.067  -4.764  37.899  1.00  0.00     0.029 C 
ENDROOT
BRANCH   1   3
HETATM    3  C2  UNK     1      19.311  -5.557  36.336  1.00  0.00    -0.021 A 
HETATM    4  C6  UNK     1      19.813  -6.409  35.369  1.00  0.00     0.012 A 
HETATM    5  C11 UNK     1      18.986  -7.400  34.839  1.00  0.00     0.001 A 
HETATM    6  C14 UNK     1      17.671  -7.523  35.286  1.00  0.00     0.000 A 
HETATM    7  C12 UNK     1      17.182  -6.654  36.262  1.00  0.00     0.001 A 
HETATM    8  C7  UNK     1      18.008  -5.664  36.791  1.00  0.00     0.012 A 
ENDBRANCH   1   3
BRANCH   1   9
HETATM    9  C5  UNK     1      20.172  -3.094  36.360  1.00  0.00     0.258 C 
HETATM   10  O2  UNK     1      21.203  -2.587  35.926  1.00  0.00    -0.267 OA
HETATM   11  N1  UNK     1      18.919  -2.500  36.434  1.00  0.00    -0.305 N 
HETATM   12  H4  UNK     1      18.127  -3.011  36.815  1.00  0.00     0.170 HD
BRANCH  11  13
HETATM   13  C8  UNK     1      18.574  -1.203  36.029  1.00  0.00     0.160 A 
HETATM   14  C13 UNK     1      18.614  -0.767  34.707  1.00  0.00     0.087 A 
HETATM   15  C15 UNK     1      18.202   0.536  34.799  1.00  0.00     0.078 A 
HETATM   16  O1  UNK     1      17.939   0.841  36.095  1.00  0.00    -0.216 OA
HETATM   17  C19 UNK     1      18.001   1.610  33.818  1.00  0.00     0.079 C 
HETATM   18  N2  UNK     1      18.178  -0.275  36.887  1.00  0.00    -0.110 NA
ENDBRANCH  11  13
ENDBRANCH   1   9
BRANCH   2  19
HETATM   19  C4  UNK     1      21.296  -6.048  38.545  1.00  0.00    -0.035 A 
HETATM   20  C10 UNK     1      20.220  -6.770  39.062  1.00  0.00     0.011 A 
HETATM   21  C17 UNK     1      20.439  -8.001  39.681  1.00  0.00     0.001 A 
HETATM   22  C18 UNK     1      21.733  -8.510  39.782  1.00  0.00     0.000 A 
HETATM   23  C16 UNK     1      22.809  -7.789  39.264  1.00  0.00     0.001 A 
HETATM   24  C9  UNK     1      22.590  -6.558  38.646  1.00  0.00     0.011 A 
ENDBRANCH   2  19
TORSDOF 4
ENDMDL
MODEL 4
REMARK VINA RESULT:      -7.8     17.443     20.611
REMARK  4 active torsions:
REMARK  status: ('A' for Active; 'I' for Inactive)
REMARK       I    between atoms: C5_9  and  N1_3 
REMARK    1  A    between atoms: C8_12  and  N1_3 
REMARK    2  A    between atoms: C1_5  and  C2_6 
REMARK    3  A    between atoms: C1_5  and  C5_9 
REMARK    4  A    between atoms: C3_7  and  C4_8 
ROOT
HETATM    1  C1  UNK     1      18.774  -2.728  15.330  1.00  0.00     0.043 C 
HETATM    2  C3  UNK     1      18.681  -4.055  15.603  1.00  0.00     0.029 C 
ENDROOT
BRANCH   1   3
HETATM    3  C2  UNK     1      19.340  -2.228  14.060  1.00  0.00    -0.021 A 
HETATM    4  C6  UNK     1      20.702  -2.338  13.838  1.00  0.00     0.012 A 
HETATM    5  C11 UNK     1      21.236  -1.866  12.638  1.00  0.00     0.001 A 
HETATM    6  C14 UNK     1      20.399  -1.292  11.681  1.00  0.00     0.000 A 
HETATM    7  C12 UNK     1      19.029  -1.190  11.922  1.00  0.00     0.001 A 
HETATM    8  C7  UNK     1      18.496  -1.662  13.121  1.00  0.00     0.012 A 
ENDBRANCH   1   3
BRANCH   1   9
HETATM    9  C5  UNK     1      18.299  -1.782  16.410  1.00  0.00     0.258 C 
HETATM   10  O2  UNK     1      17.164  -1.888  16.868  1.00  0.00    -0.267 OA
HETATM   11  N1  UNK     1      19.259  -0.846  16.771  1.00  0.00    -0.305 N 
HETATM   12  H4  UNK     1      20.171  -0.845  16.325  1.00  0.00     0.170 HD
BRANCH  11  13
HETATM   13  C8  UNK     1      19.130   0.168  17.729  1.00  0.00     0.160 A 
HETATM   14  C13 UNK     1      19.313  -0.029  19.097  1.00  0.00     0.087 A 
HETATM   15  C15 UNK     1      19.089   1.217  19.620  1.00  0.00     0.078 A 
HETATM   16  O1  UNK     1      18.793   2.086  18.621  1.00  0.00    -0.216 OA
HETATM   17  C19 UNK     1      19.105   1.764  20.983  1.00  0.00     0.079 C 
HETATM   18  N2  UNK     1      18.819   1.415  17.406  1.00  0.00    -0.110 NA
ENDBRANCH  11  13
ENDBRANCH   1   9
BRANCH   2  19
HETATM   19  C4  UNK     1      19.111  -5.149  14.746  1.00  0.00    -0.035 A 
HETATM   20  C10 UNK     1      18.259  -5.633  13.752  1.00  0.00     0.011 A 
HETATM   21  C17 UNK     1      18.671  -6.682  12.931  1.00  0.00     0.001 A 
HETATM   22  C18 UNK     1      19.935  -7.247  13.102  1.00  0.00     0.000 A 
HETATM   23  C16 UNK     1      20.787  -6.763  14.095  1.00  0.00     0.001 A 
HETATM   24  C9  UNK     1      20.374  -5.715  14.917  1.00  0.00     0.011 A 
ENDBRANCH   2  19
TORSDOF 4
ENDMDL
MODEL 5
REMARK VINA RESULT:      -7.6      4.414      8.154
REMARK  4 active torsions:
REMARK  status: ('A' for Active; 'I' for Inactive)
REMARK       I    between atoms: C5_9  and  N1_3 
REMARK    1  A    between atoms: C8_12  and  N1_3 
REMARK    2  A    between atoms: C1_5  and  C2_6 
REMARK    3  A    between atoms: C1_5  and  C5_9 
REMARK    4  A    between atoms: C3_7  and  C4_8 
ROOT
HETATM    1  C1  UNK     1      18.072   8.160  33.317  1.00  0.00     0.043 C 
HETATM    2  C3  UNK     1      19.047   7.280  32.970  1.00  0.00     0.029 C 
ENDROOT
BRANCH   1   3
HETATM    3  C2  UNK     1      16.640   7.866  33.106  1.00  0.00    -0.021 A 
HETATM    4  C6  UNK     1      15.830   7.634  34.205  1.00  0.00     0.012 A 
HETATM    5  C11 UNK     1      14.477   7.356  34.006  1.00  0.00     0.001 A 
HETATM    6  C14 UNK     1      13.957   7.317  32.713  1.00  0.00     0.000 A 
HETATM    7  C12 UNK     1      14.788   7.554  31.618  1.00  0.00     0.001 A 
HETATM    8  C7  UNK     1      16.140   7.831  31.817  1.00  0.00     0.012 A 
ENDBRANCH   1   3
BRANCH   1   9
HETATM    9  C5  UNK     1      18.532   9.477  33.901  1.00  0.00     0.258 C 
HETATM   10  O2  UNK     1      19.629   9.562  34.447  1.00  0.00    -0.267 OA
HETATM   11  N1  UNK     1      17.598  10.493  33.747  1.00  0.00    -0.305 N 
HETATM   12  H4  UNK     1      16.715  10.315  33.279  1.00  0.00     0.170 HD
BRANCH  11  13
HETATM   13  C8  UNK     1      17.715  11.820  34.183  1.00  0.00     0.160 A 
HETATM   14  C13 UNK     1      18.457  12.793  33.516  1.00  0.00     0.087 A 
HETATM   15  C15 UNK     1      18.278  13.905  34.296  1.00  0.00     0.078 A 
HETATM   16  O1  UNK     1      17.482  13.600  35.352  1.00  0.00    -0.216 OA
HETATM   17  C19 UNK     1      18.758  15.290  34.214  1.00  0.00     0.079 C 
HETATM   18  N2  UNK     1      17.119  12.261  35.281  1.00  0.00    -0.110 NA
ENDBRANCH  11  13
ENDBRANCH   1   9
BRANCH   2  19
HETATM   19  C4  UNK     1      18.857   5.975  32.354  1.00  0.00    -0.035 A 
HETATM   20  C10 UNK     1      19.211   5.776  31.019  1.00  0.00     0.011 A 
HETATM   21  C17 UNK     1      19.029   4.526  30.428  1.00  0.00     0.001 A 
HETATM   22  C18 UNK     1      18.494   3.474  31.172  1.00  0.00     0.000 A 
HETATM   23  C16 UNK     1      18.141   3.672  32.507  1.00  0.00     0.001 A 
HETATM   24  C9  UNK     1      18.322   4.923  33.098  1.00  0.00     0.011 A 
ENDBRANCH   2  19
TORSDOF 4
ENDMDL
MODEL 6
REMARK VINA RESULT:      -7.4      6.191     12.051
REMARK  4 active torsions:
REMARK  status: ('A' for Active; 'I' for Inactive)
REMARK       I    between atoms: C5_9  and  N1_3 
REMARK    1  A    between atoms: C8_12  and  N1_3 
REMARK    2  A    between atoms: C1_5  and  C2_6 
REMARK    3  A    between atoms: C1_5  and  C5_9 
REMARK    4  A    between atoms: C3_7  and  C4_8 
ROOT
HETATM    1  C1  UNK     1      20.205  -4.473  36.523  1.00  0.00     0.043 C 
HETATM    2  C3  UNK     1      21.097  -4.622  37.536  1.00  0.00     0.029 C 
ENDROOT
BRANCH   1   3
HETATM    3  C2  UNK     1      19.271  -5.551  36.136  1.00  0.00    -0.021 A 
HETATM    4  C6  UNK     1      17.970  -5.517  36.605  1.00  0.00     0.012 A 
HETATM    5  C11 UNK     1      17.088  -6.535  36.240  1.00  0.00     0.001 A 
HETATM    6  C14 UNK     1      17.523  -7.570  35.412  1.00  0.00     0.000 A 
HETATM    7  C12 UNK     1      18.839  -7.587  34.949  1.00  0.00     0.001 A 
HETATM    8  C7  UNK     1      19.720  -6.570  35.314  1.00  0.00     0.012 A 
ENDBRANCH   1   3
BRANCH   1   9
HETATM    9  C5  UNK     1      20.239  -3.154  35.784  1.00  0.00     0.258 C 
HETATM   10  O2  UNK     1      20.306  -2.098  36.408  1.00  0.00    -0.267 OA
HETATM   11  N1  UNK     1      20.179  -3.304  34.405  1.00  0.00    -0.305 N 
HETATM   12  H4  UNK     1      20.123  -4.229  33.989  1.00  0.00     0.170 HD
BRANCH  11  13
HETATM   13  C8  UNK     1      20.182  -2.284  33.444  1.00  0.00     0.160 A 
HETATM   14  C13 UNK     1      19.096  -1.445  33.199  1.00  0.00     0.087 A 
HETATM   15  C15 UNK     1      19.556  -0.628  32.201  1.00  0.00     0.078 A 
HETATM   16  O1  UNK     1      20.831  -0.970  31.882  1.00  0.00    -0.216 OA
HETATM   17  C19 UNK     1      18.967   0.486  31.448  1.00  0.00     0.079 C 
HETATM   18  N2  UNK     1      21.234  -2.033  32.679  1.00  0.00    -0.110 NA
ENDBRANCH  11  13
ENDBRANCH   1   9
BRANCH   2  19
HETATM   19  C4  UNK     1      21.284  -5.807  38.359  1.00  0.00    -0.035 A 
HETATM   20  C10 UNK     1      20.187  -6.410  38.975  1.00  0.00     0.011 A 
HETATM   21  C17 UNK     1      20.366  -7.546  39.764  1.00  0.00     0.001 A 
HETATM   22  C18 UNK     1      21.643  -8.080  39.937  1.00  0.00     0.000 A 
HETATM   23  C16 UNK     1      22.740  -7.478  39.321  1.00  0.00     0.001 A 
HETATM   24  C9  UNK     1      22.561  -6.341  38.533  1.00  0.00     0.011 A 
ENDBRANCH   2  19
TORSDOF 4
ENDMDL
MODEL 7
REMARK VINA RESULT:      -7.3      1.478      1.938
REMARK  4 active torsions:
REMARK  status: ('A' for Active; 'I' for Inactive)
REMARK       I    between atoms: C5_9  and  N1_3 
REMARK    1  A    between atoms: C8_12  and  N1_3 
REMARK    2  A    between atoms: C1_5  and  C2_6 
REMARK    3  A    between atoms: C1_5  and  C5_9 
REMARK    4  A    between atoms: C3_7  and  C4_8 
ROOT
HETATM    1  C1  UNK     1      18.287   4.789  33.613  1.00  0.00     0.043 C 
HETATM    2  C3  UNK     1      17.343   5.577  34.191  1.00  0.00     0.029 C 
ENDROOT
BRANCH   1   3
HETATM    3  C2  UNK     1      18.950   5.162  32.346  1.00  0.00    -0.021 A 
HETATM    4  C6  UNK     1      20.104   5.925  32.388  1.00  0.00     0.012 A 
HETATM    5  C11 UNK     1      20.730   6.278  31.192  1.00  0.00     0.001 A 
HETATM    6  C14 UNK     1      20.193   5.861  29.975  1.00  0.00     0.000 A 
HETATM    7  C12 UNK     1      19.029   5.092  29.952  1.00  0.00     0.001 A 
HETATM    8  C7  UNK     1      18.403   4.741  31.148  1.00  0.00     0.012 A 
ENDBRANCH   1   3
BRANCH   1   9
HETATM    9  C5  UNK     1      18.601   3.488  34.317  1.00  0.00     0.258 C 
HETATM   10  O2  UNK     1      19.401   3.466  35.248  1.00  0.00    -0.267 OA
HETATM   11  N1  UNK     1      17.910   2.406  33.787  1.00  0.00    -0.305 N 
HETATM   12  H4  UNK     1      17.269   2.533  33.010  1.00  0.00     0.170 HD
BRANCH  11  13
HETATM   13  C8  UNK     1      17.984   1.071  34.206  1.00  0.00     0.160 A 
HETATM   14  C13 UNK     1      17.532   0.620  35.445  1.00  0.00     0.087 A 
HETATM   15  C15 UNK     1      17.807  -0.721  35.405  1.00  0.00     0.078 A 
HETATM   16  O1  UNK     1      18.384  -1.034  34.216  1.00  0.00    -0.216 OA
HETATM   17  C19 UNK     1      17.609  -1.828  36.349  1.00  0.00     0.079 C 
HETATM   18  N2  UNK     1      18.499   0.116  33.446  1.00  0.00    -0.110 NA
ENDBRANCH  11  13
ENDBRANCH   1   9
BRANCH   2  19
HETATM   19  C4  UNK     1      16.843   6.845  33.683  1.00  0.00    -0.035 A 
HETATM   20  C10 UNK     1      15.871   6.862  32.682  1.00  0.00     0.011 A 
HETATM   21  C17 UNK     1      15.391   8.077  32.195  1.00  0.00     0.001 A 
HETATM   22  C18 UNK     1      15.883   9.277  32.709  1.00  0.00     0.000 A 
HETATM   23  C16 UNK     1      16.854   9.261  33.710  1.00  0.00     0.001 A 
HETATM   24  C9  UNK     1      17.334   8.045  34.197  1.00  0.00     0.011 A 
ENDBRANCH   2  19
TORSDOF 4
ENDMDL
MODEL 8
REMARK VINA RESULT:      -7.3     14.460     17.028
REMARK  4 active torsions:
REMARK  status: ('A' for Active; 'I' for Inactive)
REMARK       I    between atoms: C5_9  and  N1_3 
REMARK    1  A    between atoms: C8_12  and  N1_3 
REMARK    2  A    between atoms: C1_5  and  C2_6 
REMARK    3  A    between atoms: C1_5  and  C5_9 
REMARK    4  A    between atoms: C3_7  and  C4_8 
ROOT
HETATM    1  C1  UNK     1      30.192  -6.045  37.906  1.00  0.00     0.043 C 
HETATM    2  C3  UNK     1      31.125  -5.058  37.871  1.00  0.00     0.029 C 
ENDROOT
BRANCH   1   3
HETATM    3  C2  UNK     1      30.424  -7.365  37.285  1.00  0.00    -0.021 A 
HETATM    4  C6  UNK     1      30.778  -8.436  38.087  1.00  0.00     0.012 A 
HETATM    5  C11 UNK     1      30.997  -9.683  37.501  1.00  0.00     0.001 A 
HETATM    6  C14 UNK     1      30.859  -9.838  36.122  1.00  0.00     0.000 A 
HETATM    7  C12 UNK     1      30.502  -8.748  35.329  1.00  0.00     0.001 A 
HETATM    8  C7  UNK     1      30.283  -7.501  35.915  1.00  0.00     0.012 A 
ENDBRANCH   1   3
BRANCH   1   9
HETATM    9  C5  UNK     1      28.884  -5.710  38.587  1.00  0.00     0.258 C 
HETATM   10  O2  UNK     1      28.857  -4.903  39.512  1.00  0.00    -0.267 OA
HETATM   11  N1  UNK     1      27.805  -6.406  38.058  1.00  0.00    -0.305 N 
HETATM   12  H4  UNK     1      27.937  -7.057  37.289  1.00  0.00     0.170 HD
BRANCH  11  13
HETATM   13  C8  UNK     1      26.467  -6.329  38.469  1.00  0.00     0.160 A 
HETATM   14  C13 UNK     1      25.652  -7.441  38.668  1.00  0.00     0.087 A 
HETATM   15  C15 UNK     1      24.461  -6.885  39.056  1.00  0.00     0.078 A 
HETATM   16  O1  UNK     1      24.576  -5.533  39.082  1.00  0.00    -0.216 OA
HETATM   17  C19 UNK     1      23.155  -7.441  39.429  1.00  0.00     0.079 C 
HETATM   18  N2  UNK     1      25.863  -5.173  38.705  1.00  0.00    -0.110 NA
ENDBRANCH  11  13
ENDBRANCH   1   9
BRANCH   2  19
HETATM   19  C4  UNK     1      32.434  -5.125  37.238  1.00  0.00    -0.035 A 
HETATM   20  C10 UNK     1      32.679  -4.411  36.065  1.00  0.00     0.011 A 
HETATM   21  C17 UNK     1      33.934  -4.475  35.459  1.00  0.00     0.001 A 
HETATM   22  C18 UNK     1      34.944  -5.252  36.026  1.00  0.00     0.000 A 
HETATM   23  C16 UNK     1      34.699  -5.966  37.199  1.00  0.00     0.001 A 
HETATM   24  C9  UNK     1      33.444  -5.903  37.805  1.00  0.00     0.011 A 
ENDBRANCH   2  19
TORSDOF 4
ENDMDL
MODEL 9
REMARK VINA RESULT:      -7.2      2.558      3.560
REMARK  4 active torsions:
REMARK  status: ('A' for Active; 'I' for Inactive)
REMARK       I    between atoms: C5_9  and  N1_3 
REMARK    1  A    between atoms: C8_12  and  N1_3 
REMARK    2  A    between atoms: C1_5  and  C2_6 
REMARK    3  A    between atoms: C1_5  and  C5_9 
REMARK    4  A    between atoms: C3_7  and  C4_8 
ROOT
HETATM    1  C1  UNK     1      18.125   2.192  33.109  1.00  0.00     0.043 C 
HETATM    2  C3  UNK     1      18.111   3.455  33.607  1.00  0.00     0.029 C 
ENDROOT
BRANCH   1   3
HETATM    3  C2  UNK     1      18.421   1.913  31.689  1.00  0.00    -0.021 A 
HETATM    4  C6  UNK     1      19.300   0.892  31.370  1.00  0.00     0.012 A 
HETATM    5  C11 UNK     1      19.579   0.629  30.029  1.00  0.00     0.001 A 
HETATM    6  C14 UNK     1      18.973   1.390  29.029  1.00  0.00     0.000 A 
HETATM    7  C12 UNK     1      18.090   2.414  29.369  1.00  0.00     0.001 A 
HETATM    8  C7  UNK     1      17.812   2.677  30.710  1.00  0.00     0.012 A 
ENDBRANCH   1   3
BRANCH   1   9
HETATM    9  C5  UNK     1      17.789   1.082  34.080  1.00  0.00     0.258 C 
HETATM   10  O2  UNK     1      16.626   0.711  34.216  1.00  0.00    -0.267 OA
HETATM   11  N1  UNK     1      18.903   0.591  34.749  1.00  0.00    -0.305 N 
HETATM   12  H4  UNK     1      19.826   0.972  34.562  1.00  0.00     0.170 HD
BRANCH  11  13
HETATM   13  C8  UNK     1      18.929  -0.426  35.712  1.00  0.00     0.160 A 
HETATM   14  C13 UNK     1      19.676  -1.595  35.586  1.00  0.00     0.087 A 
HETATM   15  C15 UNK     1      19.391  -2.269  36.744  1.00  0.00     0.078 A 
HETATM   16  O1  UNK     1      18.532  -1.538  37.499  1.00  0.00    -0.216 OA
HETATM   17  C19 UNK     1      19.815  -3.562  37.297  1.00  0.00     0.079 C 
HETATM   18  N2  UNK     1      18.233  -0.354  36.838  1.00  0.00    -0.110 NA
ENDBRANCH  11  13
ENDBRANCH   1   9
BRANCH   2  19
HETATM   19  C4  UNK     1      18.357   4.683  32.865  1.00  0.00    -0.035 A 
HETATM   20  C10 UNK     1      17.286   5.475  32.452  1.00  0.00     0.011 A 
HETATM   21  C17 UNK     1      17.521   6.651  31.741  1.00  0.00     0.001 A 
HETATM   22  C18 UNK     1      18.828   7.036  31.442  1.00  0.00     0.000 A 
HETATM   23  C16 UNK     1      19.900   6.244  31.856  1.00  0.00     0.001 A 
HETATM   24  C9  UNK     1      19.664   5.067  32.567  1.00  0.00     0.011 A 
ENDBRANCH   2  19
TORSDOF 4
ENDMDL
MODEL 10
REMARK VINA RESULT:      -7.1      4.565      7.678
REMARK  4 active torsions:
REMARK  status: ('A' for Active; 'I' for Inactive)
REMARK       I    between atoms: C5_9  and  N1_3 
REMARK    1  A    between atoms: C8_12  and  N1_3 
REMARK    2  A    between atoms: C1_5  and  C2_6 
REMARK    3  A    between atoms: C1_5  and  C5_9 
REMARK    4  A    between atoms: C3_7  and  C4_8 
ROOT
HETATM    1  C1  UNK     1      16.419   8.077  33.551  1.00  0.00     0.043 C 
HETATM    2  C3  UNK     1      16.228   7.086  32.643  1.00  0.00     0.029 C 
ENDROOT
BRANCH   1   3
HETATM    3  C2  UNK     1      17.769   8.533  33.942  1.00  0.00    -0.021 A 
HETATM    4  C6  UNK     1      18.159   9.826  33.638  1.00  0.00     0.012 A 
HETATM    5  C11 UNK     1      19.434  10.256  34.006  1.00  0.00     0.001 A 
HETATM    6  C14 UNK     1      20.297   9.387  34.673  1.00  0.00     0.000 A 
HETATM    7  C12 UNK     1      19.887   8.088  34.971  1.00  0.00     0.001 A 
HETATM    8  C7  UNK     1      18.612   7.658  34.602  1.00  0.00     0.012 A 
ENDBRANCH   1   3
BRANCH   1   9
HETATM    9  C5  UNK     1      15.173   8.671  34.172  1.00  0.00     0.258 C 
HETATM   10  O2  UNK     1      14.107   8.064  34.119  1.00  0.00    -0.267 OA
HETATM   11  N1  UNK     1      15.398   9.911  34.755  1.00  0.00    -0.305 N 
HETATM   12  H4  UNK     1      16.324  10.327  34.742  1.00  0.00     0.170 HD
BRANCH  11  13
HETATM   13  C8  UNK     1      14.456  10.722  35.402  1.00  0.00     0.160 A 
HETATM   14  C13 UNK     1      13.480  11.460  34.736  1.00  0.00     0.087 A 
HETATM   15  C15 UNK     1      12.810  12.080  35.757  1.00  0.00     0.078 A 
HETATM   16  O1  UNK     1      13.362  11.725  36.946  1.00  0.00    -0.216 OA
HETATM   17  C19 UNK     1      11.672  13.005  35.812  1.00  0.00     0.079 C 
HETATM   18  N2  UNK     1      14.419  10.854  36.720  1.00  0.00    -0.110 NA
ENDBRANCH  11  13
ENDBRANCH   1   9
BRANCH   2  19
HETATM   19  C4  UNK     1      17.263   6.336  31.948  1.00  0.00    -0.035 A 
HETATM   20  C10 UNK     1      17.924   6.904  30.858  1.00  0.00     0.011 A 
HETATM   21  C17 UNK     1      18.916   6.185  30.192  1.00  0.00     0.001 A 
HETATM   22  C18 UNK     1      19.249   4.899  30.615  1.00  0.00     0.000 A 
HETATM   23  C16 UNK     1      18.589   4.330  31.705  1.00  0.00     0.001 A 
HETATM   24  C9  UNK     1      17.595   5.049  32.371  1.00  0.00     0.011 A 
ENDBRANCH   2  19
TORSDOF 4
ENDMDL
