MODEL 1
REMARK VINA RESULT:      -7.4      0.000      0.000
REMARK  2 active torsions:
REMARK  status: ('A' for Active; 'I' for Inactive)
REMARK    1  A    between atoms: C8_14  and  N1_6 
REMARK    2  A    between atoms: C10_16  and  C4_10 
ROOT
HETATM    1  O1  UNK     1      16.905   6.760  31.796  1.00  0.00    -0.305 OA
HETATM    2  O2  UNK     1      19.315   7.408  35.017  1.00  0.00    -0.287 OA
HETATM    3  C1  UNK     1      19.132   6.716  32.764  1.00  0.00     0.050 A 
HETATM    4  C2  UNK     1      18.251   6.517  31.702  1.00  0.00     0.090 A 
HETATM    5  C3  UNK     1      18.601   7.209  34.044  1.00  0.00     0.187 A 
HETATM    6  C4  UNK     1      16.401   7.224  33.001  1.00  0.00     0.163 A 
HETATM    7  C5  UNK     1      20.495   6.451  32.611  1.00  0.00     0.047 A 
HETATM    8  C6  UNK     1      17.146   7.454  34.092  1.00  0.00     0.098 A 
HETATM    9  C7  UNK     1      18.730   6.050  30.478  1.00  0.00     0.040 A 
HETATM   10  C8  UNK     1      20.971   5.985  31.385  1.00  0.00     0.026 A 
HETATM   11  C9  UNK     1      20.091   5.784  30.321  1.00  0.00     0.032 A 
ENDROOT
BRANCH   6  12
HETATM   12  C10 UNK     1      14.923   7.452  32.982  1.00  0.00     0.439 C 
HETATM   13  F1  UNK     1      14.335   6.737  32.001  1.00  0.00    -0.164 F 
HETATM   14  F2  UNK     1      14.360   7.087  34.153  1.00  0.00    -0.164 F 
HETATM   15  F3  UNK     1      14.633   8.754  32.774  1.00  0.00    -0.164 F 
ENDBRANCH   6  12
BRANCH  10  16
HETATM   16  N1  UNK     1      22.346   5.713  31.221  1.00  0.00    -0.399 N 
HETATM   17  H5  UNK     1      22.805   5.045  31.826  1.00  0.00     0.156 HD
HETATM   18  H6  UNK     1      22.873   6.184  30.497  1.00  0.00     0.156 HD
ENDBRANCH  10  16
TORSDOF 2
ENDMDL
MODEL 2
REMARK VINA RESULT:      -7.1      3.741      5.083
REMARK  2 active torsions:
REMARK  status: ('A' for Active; 'I' for Inactive)
REMARK    1  A    between atoms: C8_14  and  N1_6 
REMARK    2  A    between atoms: C10_16  and  C4_10 
ROOT
HETATM    1  O1  UNK     1      17.958   6.785  31.454  1.00  0.00    -0.305 OA
HETATM    2  O2  UNK     1      19.345   7.671  35.182  1.00  0.00    -0.287 OA
HETATM    3  C1  UNK     1      17.559   7.775  33.636  1.00  0.00     0.050 A 
HETATM    4  C2  UNK     1      17.149   7.441  32.346  1.00  0.00     0.090 A 
HETATM    5  C3  UNK     1      18.918   7.411  34.065  1.00  0.00     0.187 A 
HETATM    6  C4  UNK     1      19.240   6.442  31.855  1.00  0.00     0.163 A 
HETATM    7  C5  UNK     1      16.692   8.444  34.502  1.00  0.00     0.047 A 
HETATM    8  C6  UNK     1      19.748   6.708  33.068  1.00  0.00     0.098 A 
HETATM    9  C7  UNK     1      15.865   7.774  31.914  1.00  0.00     0.040 A 
HETATM   10  C8  UNK     1      15.407   8.776  34.068  1.00  0.00     0.026 A 
HETATM   11  C9  UNK     1      14.995   8.442  32.777  1.00  0.00     0.032 A 
ENDROOT
BRANCH   6  12
HETATM   12  C10 UNK     1      20.027   5.732  30.800  1.00  0.00     0.439 C 
HETATM   13  F1  UNK     1      19.631   4.447  30.682  1.00  0.00    -0.164 F 
HETATM   14  F2  UNK     1      19.871   6.323  29.597  1.00  0.00    -0.164 F 
HETATM   15  F3  UNK     1      21.344   5.732  31.091  1.00  0.00    -0.164 F 
ENDBRANCH   6  12
BRANCH  10  16
HETATM   16  N1  UNK     1      14.524   9.452  34.935  1.00  0.00    -0.399 N 
HETATM   17  H5  UNK     1      13.536   9.236  34.920  1.00  0.00     0.156 HD
HETATM   18  H6  UNK     1      14.878  10.152  35.574  1.00  0.00     0.156 HD
ENDBRANCH  10  16
TORSDOF 2
ENDMDL
MODEL 3
REMARK VINA RESULT:      -7.0      6.345      7.478
REMARK  2 active torsions:
REMARK  status: ('A' for Active; 'I' for Inactive)
REMARK    1  A    between atoms: C8_14  and  N1_6 
REMARK    2  A    between atoms: C10_16  and  C4_10 
ROOT
HETATM    1  O1  UNK     1      19.418   1.430  29.488  1.00  0.00    -0.305 OA
HETATM    2  O2  UNK     1      18.587   0.342  33.327  1.00  0.00    -0.287 OA
HETATM    3  C1  UNK     1      18.682   2.068  31.714  1.00  0.00     0.050 A 
HETATM    4  C2  UNK     1      18.983   2.371  30.387  1.00  0.00     0.090 A 
HETATM    5  C3  UNK     1      18.835   0.680  32.178  1.00  0.00     0.187 A 
HETATM    6  C4  UNK     1      19.564   0.122  29.923  1.00  0.00     0.163 A 
HETATM    7  C5  UNK     1      18.243   3.067  32.585  1.00  0.00     0.047 A 
HETATM    8  C6  UNK     1      19.306  -0.293  31.172  1.00  0.00     0.098 A 
HETATM    9  C7  UNK     1      18.847   3.678  29.922  1.00  0.00     0.040 A 
HETATM   10  C8  UNK     1      18.107   4.376  32.117  1.00  0.00     0.026 A 
HETATM   11  C9  UNK     1      18.409   4.681  30.789  1.00  0.00     0.032 A 
ENDROOT
BRANCH   6  12
HETATM   12  C10 UNK     1      20.043  -0.812  28.857  1.00  0.00     0.439 C 
HETATM   13  F1  UNK     1      19.338  -0.649  27.718  1.00  0.00    -0.164 F 
HETATM   14  F2  UNK     1      21.344  -0.598  28.572  1.00  0.00    -0.164 F 
HETATM   15  F3  UNK     1      19.912  -2.099  29.241  1.00  0.00    -0.164 F 
ENDBRANCH   6  12
BRANCH  10  16
HETATM   16  N1  UNK     1      17.666   5.392  32.989  1.00  0.00    -0.399 N 
HETATM   17  H5  UNK     1      17.705   5.253  33.991  1.00  0.00     0.156 HD
HETATM   18  H6  UNK     1      17.311   6.263  32.615  1.00  0.00     0.156 HD
ENDBRANCH  10  16
TORSDOF 2
ENDMDL
MODEL 4
REMARK VINA RESULT:      -6.8      7.244      8.297
REMARK  2 active torsions:
REMARK  status: ('A' for Active; 'I' for Inactive)
REMARK    1  A    between atoms: C8_14  and  N1_6 
REMARK    2  A    between atoms: C10_16  and  C4_10 
ROOT
HETATM    1  O1  UNK     1      19.399  -0.830  31.252  1.00  0.00    -0.305 OA
HETATM    2  O2  UNK     1      18.497   3.143  31.161  1.00  0.00    -0.287 OA
HETATM    3  C1  UNK     1      18.612   1.147  32.423  1.00  0.00     0.050 A 
HETATM    4  C2  UNK     1      18.940  -0.208  32.384  1.00  0.00     0.090 A 
HETATM    5  C3  UNK     1      18.764   1.950  31.199  1.00  0.00     0.187 A 
HETATM    6  C4  UNK     1      19.542  -0.077  30.098  1.00  0.00     0.163 A 
HETATM    7  C5  UNK     1      18.148   1.729  33.605  1.00  0.00     0.047 A 
HETATM    8  C6  UNK     1      19.261   1.232  30.010  1.00  0.00     0.098 A 
HETATM    9  C7  UNK     1      18.805  -0.990  33.531  1.00  0.00     0.040 A 
HETATM   10  C8  UNK     1      18.014   0.943  34.751  1.00  0.00     0.026 A 
HETATM   11  C9  UNK     1      18.341  -0.413  34.714  1.00  0.00     0.032 A 
ENDROOT
BRANCH   6  12
HETATM   12  C10 UNK     1      20.050  -0.863  28.930  1.00  0.00     0.439 C 
HETATM   13  F1  UNK     1      21.345  -0.577  28.681  1.00  0.00    -0.164 F 
HETATM   14  F2  UNK     1      19.957  -2.189  29.159  1.00  0.00    -0.164 F 
HETATM   15  F3  UNK     1      19.345  -0.587  27.813  1.00  0.00    -0.164 F 
ENDBRANCH   6  12
BRANCH  10  16
HETATM   16  N1  UNK     1      17.546   1.521  35.950  1.00  0.00    -0.399 N 
HETATM   17  H5  UNK     1      16.551   1.613  36.112  1.00  0.00     0.156 HD
HETATM   18  H6  UNK     1      18.202   1.841  36.649  1.00  0.00     0.156 HD
ENDBRANCH  10  16
TORSDOF 2
ENDMDL
MODEL 5
REMARK VINA RESULT:      -6.7      4.347      5.368
REMARK  2 active torsions:
REMARK  status: ('A' for Active; 'I' for Inactive)
REMARK    1  A    between atoms: C8_14  and  N1_6 
REMARK    2  A    between atoms: C10_16  and  C4_10 
ROOT
HETATM    1  O1  UNK     1      18.653   4.109  30.422  1.00  0.00    -0.305 OA
HETATM    2  O2  UNK     1      17.877   2.337  34.009  1.00  0.00    -0.287 OA
HETATM    3  C1  UNK     1      18.387   4.321  32.827  1.00  0.00     0.050 A 
HETATM    4  C2  UNK     1      18.644   4.862  31.568  1.00  0.00     0.090 A 
HETATM    5  C3  UNK     1      18.112   2.880  32.938  1.00  0.00     0.187 A 
HETATM    6  C4  UNK     1      18.396   2.751  30.523  1.00  0.00     0.163 A 
HETATM    7  C5  UNK     1      18.390   5.136  33.961  1.00  0.00     0.047 A 
HETATM    8  C6  UNK     1      18.135   2.115  31.675  1.00  0.00     0.098 A 
HETATM    9  C7  UNK     1      18.906   6.225  31.436  1.00  0.00     0.040 A 
HETATM   10  C8  UNK     1      18.653   6.500  33.826  1.00  0.00     0.026 A 
HETATM   11  C9  UNK     1      18.911   7.044  32.567  1.00  0.00     0.032 A 
ENDROOT
BRANCH   6  12
HETATM   12  C10 UNK     1      18.434   2.036  29.210  1.00  0.00     0.439 C 
HETATM   13  F1  UNK     1      17.500   1.063  29.161  1.00  0.00    -0.164 F 
HETATM   14  F2  UNK     1      18.200   2.884  28.187  1.00  0.00    -0.164 F 
HETATM   15  F3  UNK     1      19.637   1.462  29.001  1.00  0.00    -0.164 F 
ENDBRANCH   6  12
BRANCH  10  16
HETATM   16  N1  UNK     1      18.660   7.332  34.965  1.00  0.00    -0.399 N 
HETATM   17  H5  UNK     1      19.538   7.657  35.349  1.00  0.00     0.156 HD
HETATM   18  H6  UNK     1      17.788   7.605  35.398  1.00  0.00     0.156 HD
ENDBRANCH  10  16
TORSDOF 2
ENDMDL
MODEL 6
REMARK VINA RESULT:      -6.7     15.102     16.882
REMARK  2 active torsions:
REMARK  status: ('A' for Active; 'I' for Inactive)
REMARK    1  A    between atoms: C8_14  and  N1_6 
REMARK    2  A    between atoms: C10_16  and  C4_10 
ROOT
HETATM    1  O1  UNK     1      18.878  -0.082  18.423  1.00  0.00    -0.305 OA
HETATM    2  O2  UNK     1      19.375   2.744  15.529  1.00  0.00    -0.287 OA
HETATM    3  C1  UNK     1      19.142   0.454  16.068  1.00  0.00     0.050 A 
HETATM    4  C2  UNK     1      18.971  -0.459  17.108  1.00  0.00     0.090 A 
HETATM    5  C3  UNK     1      19.227   1.887  16.390  1.00  0.00     0.187 A 
HETATM    6  C4  UNK     1      18.959   1.268  18.728  1.00  0.00     0.163 A 
HETATM    7  C5  UNK     1      19.230   0.012  14.747  1.00  0.00     0.047 A 
HETATM    8  C6  UNK     1      19.123   2.240  17.819  1.00  0.00     0.098 A 
HETATM    9  C7  UNK     1      18.886  -1.823  16.830  1.00  0.00     0.040 A 
HETATM   10  C8  UNK     1      19.145  -1.354  14.471  1.00  0.00     0.026 A 
HETATM   11  C9  UNK     1      18.974  -2.269  15.510  1.00  0.00     0.032 A 
ENDROOT
BRANCH   6  12
HETATM   12  C10 UNK     1      18.845   1.557  20.192  1.00  0.00     0.439 C 
HETATM   13  F1  UNK     1      17.584   1.909  20.519  1.00  0.00    -0.164 F 
HETATM   14  F2  UNK     1      19.177   0.476  20.928  1.00  0.00    -0.164 F 
HETATM   15  F3  UNK     1      19.662   2.568  20.554  1.00  0.00    -0.164 F 
ENDBRANCH   6  12
BRANCH  10  16
HETATM   16  N1  UNK     1      19.234  -1.810  13.139  1.00  0.00    -0.399 N 
HETATM   17  H5  UNK     1      19.048  -1.175  12.374  1.00  0.00     0.156 HD
HETATM   18  H6  UNK     1      19.487  -2.771  12.949  1.00  0.00     0.156 HD
ENDBRANCH  10  16
TORSDOF 2
ENDMDL
MODEL 7
REMARK VINA RESULT:      -6.7      8.461      9.410
REMARK  2 active torsions:
REMARK  status: ('A' for Active; 'I' for Inactive)
REMARK    1  A    between atoms: C8_14  and  N1_6 
REMARK    2  A    between atoms: C10_16  and  C4_10 
ROOT
HETATM    1  O1  UNK     1      19.305  -0.236  31.273  1.00  0.00    -0.305 OA
HETATM    2  O2  UNK     1      21.239  -3.538  32.675  1.00  0.00    -0.287 OA
HETATM    3  C1  UNK     1      19.796  -1.721  33.132  1.00  0.00     0.050 A 
HETATM    4  C2  UNK     1      19.163  -0.605  32.586  1.00  0.00     0.090 A 
HETATM    5  C3  UNK     1      20.655  -2.544  32.266  1.00  0.00     0.187 A 
HETATM    6  C4  UNK     1      20.115  -1.009  30.455  1.00  0.00     0.163 A 
HETATM    7  C5  UNK     1      19.615  -2.050  34.477  1.00  0.00     0.047 A 
HETATM    8  C6  UNK     1      20.775  -2.104  30.862  1.00  0.00     0.098 A 
HETATM    9  C7  UNK     1      18.343   0.191  33.386  1.00  0.00     0.040 A 
HETATM   10  C8  UNK     1      18.794  -1.251  35.275  1.00  0.00     0.026 A 
HETATM   11  C9  UNK     1      18.160  -0.133  34.731  1.00  0.00     0.032 A 
ENDROOT
BRANCH   6  12
HETATM   12  C10 UNK     1      20.192  -0.509  29.047  1.00  0.00     0.439 C 
HETATM   13  F1  UNK     1      21.431  -0.680  28.541  1.00  0.00    -0.164 F 
HETATM   14  F2  UNK     1      19.325  -1.167  28.249  1.00  0.00    -0.164 F 
HETATM   15  F3  UNK     1      19.897   0.806  28.980  1.00  0.00    -0.164 F 
ENDBRANCH   6  12
BRANCH  10  16
HETATM   16  N1  UNK     1      18.605  -1.574  36.635  1.00  0.00    -0.399 N 
HETATM   17  H5  UNK     1      17.699  -1.443  37.065  1.00  0.00     0.156 HD
HETATM   18  H6  UNK     1      19.375  -1.938  37.181  1.00  0.00     0.156 HD
ENDBRANCH  10  16
TORSDOF 2
ENDMDL
MODEL 8
REMARK VINA RESULT:      -6.6      3.655      4.211
REMARK  2 active torsions:
REMARK  status: ('A' for Active; 'I' for Inactive)
REMARK    1  A    between atoms: C8_14  and  N1_6 
REMARK    2  A    between atoms: C10_16  and  C4_10 
ROOT
HETATM    1  O1  UNK     1      19.275   6.040  31.860  1.00  0.00    -0.305 OA
HETATM    2  O2  UNK     1      17.808   2.996  34.140  1.00  0.00    -0.287 OA
HETATM    3  C1  UNK     1      18.418   3.770  31.991  1.00  0.00     0.050 A 
HETATM    4  C2  UNK     1      18.927   4.851  31.271  1.00  0.00     0.090 A 
HETATM    5  C3  UNK     1      18.246   3.903  33.446  1.00  0.00     0.187 A 
HETATM    6  C4  UNK     1      19.112   6.168  33.231  1.00  0.00     0.163 A 
HETATM    7  C5  UNK     1      18.081   2.583  31.338  1.00  0.00     0.047 A 
HETATM    8  C6  UNK     1      18.635   5.202  34.029  1.00  0.00     0.098 A 
HETATM    9  C7  UNK     1      19.100   4.750  29.891  1.00  0.00     0.040 A 
HETATM   10  C8  UNK     1      18.256   2.484  29.956  1.00  0.00     0.026 A 
HETATM   11  C9  UNK     1      18.763   3.565  29.235  1.00  0.00     0.032 A 
ENDROOT
BRANCH   6  12
HETATM   12  C10 UNK     1      19.525   7.506  33.758  1.00  0.00     0.439 C 
HETATM   13  F1  UNK     1      19.387   7.561  35.100  1.00  0.00    -0.164 F 
HETATM   14  F2  UNK     1      20.815   7.768  33.465  1.00  0.00    -0.164 F 
HETATM   15  F3  UNK     1      18.773   8.493  33.226  1.00  0.00    -0.164 F 
ENDBRANCH   6  12
BRANCH  10  16
HETATM   16  N1  UNK     1      17.916   1.290  29.287  1.00  0.00    -0.399 N 
HETATM   17  H5  UNK     1      17.539   0.508  29.808  1.00  0.00     0.156 HD
HETATM   18  H6  UNK     1      18.047   1.214  28.287  1.00  0.00     0.156 HD
ENDBRANCH  10  16
TORSDOF 2
ENDMDL
MODEL 9
REMARK VINA RESULT:      -6.6      7.056      8.047
REMARK  2 active torsions:
REMARK  status: ('A' for Active; 'I' for Inactive)
REMARK    1  A    between atoms: C8_14  and  N1_6 
REMARK    2  A    between atoms: C10_16  and  C4_10 
ROOT
HETATM    1  O1  UNK     1      18.533   1.049  31.563  1.00  0.00    -0.305 OA
HETATM    2  O2  UNK     1      20.913  -1.724  29.758  1.00  0.00    -0.287 OA
HETATM    3  C1  UNK     1      19.782  -1.029  31.715  1.00  0.00     0.050 A 
HETATM    4  C2  UNK     1      18.966  -0.044  32.269  1.00  0.00     0.090 A 
HETATM    5  C3  UNK     1      20.200  -0.897  30.310  1.00  0.00     0.187 A 
HETATM    6  C4  UNK     1      18.926   1.176  30.240  1.00  0.00     0.163 A 
HETATM    7  C5  UNK     1      20.193  -2.121  32.482  1.00  0.00     0.047 A 
HETATM    8  C6  UNK     1      19.707   0.296  29.596  1.00  0.00     0.098 A 
HETATM    9  C7  UNK     1      18.556  -0.146  33.599  1.00  0.00     0.040 A 
HETATM   10  C8  UNK     1      19.781  -2.221  33.812  1.00  0.00     0.026 A 
HETATM   11  C9  UNK     1      18.965  -1.235  34.369  1.00  0.00     0.032 A 
ENDROOT
BRANCH   6  12
HETATM   12  C10 UNK     1      18.393   2.405  29.574  1.00  0.00     0.439 C 
HETATM   13  F1  UNK     1      17.227   2.791  30.132  1.00  0.00    -0.164 F 
HETATM   14  F2  UNK     1      19.261   3.432  29.681  1.00  0.00    -0.164 F 
HETATM   15  F3  UNK     1      18.170   2.190  28.260  1.00  0.00    -0.164 F 
ENDBRANCH   6  12
BRANCH  10  16
HETATM   16  N1  UNK     1      20.192  -3.319  34.596  1.00  0.00    -0.399 N 
HETATM   17  H5  UNK     1      19.571  -3.701  35.298  1.00  0.00     0.156 HD
HETATM   18  H6  UNK     1      21.106  -3.728  34.456  1.00  0.00     0.156 HD
ENDBRANCH  10  16
TORSDOF 2
ENDMDL
MODEL 10
REMARK VINA RESULT:      -6.5      9.163      9.922
REMARK  2 active torsions:
REMARK  status: ('A' for Active; 'I' for Inactive)
REMARK    1  A    between atoms: C8_14  and  N1_6 
REMARK    2  A    between atoms: C10_16  and  C4_10 
ROOT
HETATM    1  O1  UNK     1      20.329  -2.348  33.159  1.00  0.00    -0.305 OA
HETATM    2  O2  UNK     1      17.412   0.432  33.769  1.00  0.00    -0.287 OA
HETATM    3  C1  UNK     1      18.818  -1.228  34.696  1.00  0.00     0.050 A 
HETATM    4  C2  UNK     1      19.816  -2.160  34.417  1.00  0.00     0.090 A 
HETATM    5  C3  UNK     1      18.287  -0.406  33.598  1.00  0.00     0.187 A 
HETATM    6  C4  UNK     1      19.829  -1.576  32.122  1.00  0.00     0.163 A 
HETATM    7  C5  UNK     1      18.334  -1.079  35.998  1.00  0.00     0.047 A 
HETATM    8  C6  UNK     1      18.871  -0.649  32.264  1.00  0.00     0.098 A 
HETATM    9  C7  UNK     1      20.338  -2.951  35.441  1.00  0.00     0.040 A 
HETATM   10  C8  UNK     1      18.857  -1.872  37.021  1.00  0.00     0.026 A 
HETATM   11  C9  UNK     1      19.856  -2.806  36.743  1.00  0.00     0.032 A 
ENDROOT
BRANCH   6  12
HETATM   12  C10 UNK     1      20.464  -1.870  30.799  1.00  0.00     0.439 C 
HETATM   13  F1  UNK     1      21.107  -3.056  30.824  1.00  0.00    -0.164 F 
HETATM   14  F2  UNK     1      19.540  -1.922  29.817  1.00  0.00    -0.164 F 
HETATM   15  F3  UNK     1      21.363  -0.920  30.468  1.00  0.00    -0.164 F 
ENDBRANCH   6  12
BRANCH  10  16
HETATM   16  N1  UNK     1      18.373  -1.730  38.338  1.00  0.00    -0.399 N 
HETATM   17  H5  UNK     1      17.377  -1.722  38.513  1.00  0.00     0.156 HD
HETATM   18  H6  UNK     1      19.022  -1.639  39.109  1.00  0.00     0.156 HD
ENDBRANCH  10  16
TORSDOF 2
ENDMDL
