MODEL 1
REMARK VINA RESULT:      -7.0      0.000      0.000
REMARK  2 active torsions:
REMARK  status: ('A' for Active; 'I' for Inactive)
REMARK    1  A    between atoms: C10_16  and  O3_5 
REMARK    2  A    between atoms: C10_16  and  C6_12 
ROOT
HETATM    1 Br1  UNK     1      17.937   2.188  34.279  1.00  0.00    -0.048 Br
HETATM    2 Br2  UNK     1      19.246   7.674  34.848  1.00  0.00    -0.051 Br
HETATM    3  O1  UNK     1      18.339   2.837  31.327  1.00  0.00    -0.301 OA
HETATM    4  O2  UNK     1      19.352   6.346  29.511  1.00  0.00    -0.287 OA
HETATM    5  C1  UNK     1      18.905   5.192  31.528  1.00  0.00     0.051 A 
HETATM    6  C2  UNK     1      18.556   3.961  32.085  1.00  0.00     0.108 A 
HETATM    7  C3  UNK     1      19.050   5.298  30.066  1.00  0.00     0.188 A 
HETATM    8  C4  UNK     1      19.112   6.304  32.346  1.00  0.00     0.037 A 
HETATM    9  C5  UNK     1      18.412   3.837  33.467  1.00  0.00     0.047 A 
HETATM   10  C6  UNK     1      18.478   2.947  29.959  1.00  0.00     0.153 A 
HETATM   11  C7  UNK     1      18.808   4.061  29.295  1.00  0.00     0.100 A 
HETATM   12  C8  UNK     1      18.968   6.177  33.729  1.00  0.00     0.013 A 
HETATM   13  C9  UNK     1      18.618   4.946  34.288  1.00  0.00     0.041 A 
ENDROOT
BRANCH  10  14
HETATM   14  C10 UNK     1      18.244   1.736  29.169  1.00  0.00     0.201 C 
HETATM   15  O4  UNK     1      18.083   1.718  27.963  1.00  0.00    -0.645 OA
BRANCH  14  16
HETATM   16  O3  UNK     1      18.234   0.659  29.984  1.00  0.00    -0.771 OA
HETATM   17  H4  UNK     1      18.901   0.732  30.699  1.00  0.00     0.167 HD
ENDBRANCH  14  16
ENDBRANCH  10  14
TORSDOF 2
ENDMDL
MODEL 2
REMARK VINA RESULT:      -6.8     16.110     17.260
REMARK  2 active torsions:
REMARK  status: ('A' for Active; 'I' for Inactive)
REMARK    1  A    between atoms: C10_16  and  O3_5 
REMARK    2  A    between atoms: C10_16  and  C6_12 
ROOT
HETATM    1 Br1  UNK     1      32.036  -8.862  36.824  1.00  0.00    -0.048 Br
HETATM    2 Br2  UNK     1      27.282  -9.905  39.731  1.00  0.00    -0.051 Br
HETATM    3  O1  UNK     1      31.135  -5.974  37.217  1.00  0.00    -0.301 OA
HETATM    4  O2  UNK     1      27.850  -4.470  39.108  1.00  0.00    -0.287 OA
HETATM    5  C1  UNK     1      29.090  -6.379  38.465  1.00  0.00     0.051 A 
HETATM    6  C2  UNK     1      30.233  -6.828  37.803  1.00  0.00     0.108 A 
HETATM    7  C3  UNK     1      28.833  -4.931  38.544  1.00  0.00     0.188 A 
HETATM    8  C4  UNK     1      28.205  -7.292  39.043  1.00  0.00     0.037 A 
HETATM    9  C5  UNK     1      30.497  -8.195  37.714  1.00  0.00     0.047 A 
HETATM   10  C6  UNK     1      30.886  -4.620  37.297  1.00  0.00     0.153 A 
HETATM   11  C7  UNK     1      29.833  -4.055  37.900  1.00  0.00     0.100 A 
HETATM   12  C8  UNK     1      28.472  -8.660  38.953  1.00  0.00     0.013 A 
HETATM   13  C9  UNK     1      29.615  -9.109  38.290  1.00  0.00     0.041 A 
ENDROOT
BRANCH  10  14
HETATM   14  C10 UNK     1      31.861  -3.728  36.667  1.00  0.00     0.201 C 
HETATM   15  O4  UNK     1      32.981  -4.059  36.324  1.00  0.00    -0.645 OA
BRANCH  14  16
HETATM   16  O3  UNK     1      31.325  -2.496  36.531  1.00  0.00    -0.771 OA
HETATM   17  H4  UNK     1      30.369  -2.531  36.314  1.00  0.00     0.167 HD
ENDBRANCH  14  16
ENDBRANCH  10  14
TORSDOF 2
ENDMDL
MODEL 3
REMARK VINA RESULT:      -6.8      2.994      4.273
REMARK  2 active torsions:
REMARK  status: ('A' for Active; 'I' for Inactive)
REMARK    1  A    between atoms: C10_16  and  O3_5 
REMARK    2  A    between atoms: C10_16  and  C6_12 
ROOT
HETATM    1 Br1  UNK     1      18.515   2.591  29.458  1.00  0.00    -0.048 Br
HETATM    2 Br2  UNK     1      17.952   7.110  32.833  1.00  0.00    -0.051 Br
HETATM    3  O1  UNK     1      18.523   1.127  32.134  1.00  0.00    -0.301 OA
HETATM    4  O2  UNK     1      18.220   2.575  35.934  1.00  0.00    -0.287 OA
HETATM    5  C1  UNK     1      18.282   3.039  33.615  1.00  0.00     0.051 A 
HETATM    6  C2  UNK     1      18.391   2.478  32.342  1.00  0.00     0.108 A 
HETATM    7  C3  UNK     1      18.309   2.151  34.790  1.00  0.00     0.188 A 
HETATM    8  C4  UNK     1      18.151   4.420  33.768  1.00  0.00     0.037 A 
HETATM    9  C5  UNK     1      18.370   3.298  31.213  1.00  0.00     0.047 A 
HETATM   10  C6  UNK     1      18.546   0.305  33.241  1.00  0.00     0.153 A 
HETATM   11  C7  UNK     1      18.451   0.707  34.513  1.00  0.00     0.100 A 
HETATM   12  C8  UNK     1      18.130   5.239  32.638  1.00  0.00     0.013 A 
HETATM   13  C9  UNK     1      18.239   4.679  31.364  1.00  0.00     0.041 A 
ENDROOT
BRANCH  10  14
HETATM   14  C10 UNK     1      18.686  -1.132  32.997  1.00  0.00     0.201 C 
HETATM   15  O4  UNK     1      19.659  -1.795  33.307  1.00  0.00    -0.645 OA
BRANCH  14  16
HETATM   16  O3  UNK     1      17.579  -1.597  32.379  1.00  0.00    -0.771 OA
HETATM   17  H4  UNK     1      17.702  -2.510  32.041  1.00  0.00     0.167 HD
ENDBRANCH  14  16
ENDBRANCH  10  14
TORSDOF 2
ENDMDL
MODEL 4
REMARK VINA RESULT:      -6.6      4.923      7.000
REMARK  2 active torsions:
REMARK  status: ('A' for Active; 'I' for Inactive)
REMARK    1  A    between atoms: C10_16  and  O3_5 
REMARK    2  A    between atoms: C10_16  and  C6_12 
ROOT
HETATM    1 Br1  UNK     1      19.445   9.069  34.440  1.00  0.00    -0.048 Br
HETATM    2 Br2  UNK     1      19.114   4.786  30.741  1.00  0.00    -0.051 Br
HETATM    3  O1  UNK     1      16.412   9.014  34.124  1.00  0.00    -0.301 OA
HETATM    4  O2  UNK     1      14.041   6.603  31.845  1.00  0.00    -0.287 OA
HETATM    5  C1  UNK     1      16.227   7.181  32.538  1.00  0.00     0.051 A 
HETATM    6  C2  UNK     1      16.980   8.040  33.341  1.00  0.00     0.108 A 
HETATM    7  C3  UNK     1      14.761   7.320  32.526  1.00  0.00     0.188 A 
HETATM    8  C4  UNK     1      16.858   6.209  31.760  1.00  0.00     0.037 A 
HETATM    9  C5  UNK     1      18.371   7.929  33.368  1.00  0.00     0.047 A 
HETATM   10  C6  UNK     1      15.038   9.134  34.106  1.00  0.00     0.153 A 
HETATM   11  C7  UNK     1      14.198   8.381  33.386  1.00  0.00     0.100 A 
HETATM   12  C8  UNK     1      18.249   6.100  31.790  1.00  0.00     0.013 A 
HETATM   13  C9  UNK     1      19.003   6.958  32.592  1.00  0.00     0.041 A 
ENDROOT
BRANCH  10  14
HETATM   14  C10 UNK     1      14.453  10.178  34.949  1.00  0.00     0.201 C 
HETATM   15  O4  UNK     1      13.660  11.017  34.561  1.00  0.00    -0.645 OA
BRANCH  14  16
HETATM   16  O3  UNK     1      14.929  10.064  36.208  1.00  0.00    -0.771 OA
HETATM   17  H4  UNK     1      14.712  10.848  36.756  1.00  0.00     0.167 HD
ENDBRANCH  14  16
ENDBRANCH  10  14
TORSDOF 2
ENDMDL
MODEL 5
REMARK VINA RESULT:      -6.6     11.343     13.193
REMARK  2 active torsions:
REMARK  status: ('A' for Active; 'I' for Inactive)
REMARK    1  A    between atoms: C10_16  and  O3_5 
REMARK    2  A    between atoms: C10_16  and  C6_12 
ROOT
HETATM    1 Br1  UNK     1      22.708  -7.122  39.616  1.00  0.00    -0.048 Br
HETATM    2 Br2  UNK     1      22.997 -11.319  35.817  1.00  0.00    -0.051 Br
HETATM    3  O1  UNK     1      20.960  -5.862  37.457  1.00  0.00    -0.301 OA
HETATM    4  O2  UNK     1      19.861  -7.278  33.794  1.00  0.00    -0.287 OA
HETATM    5  C1  UNK     1      21.058  -7.639  35.802  1.00  0.00     0.051 A 
HETATM    6  C2  UNK     1      21.397  -7.096  37.042  1.00  0.00     0.108 A 
HETATM    7  C3  UNK     1      20.195  -6.863  34.895  1.00  0.00     0.188 A 
HETATM    8  C4  UNK     1      21.532  -8.899  35.431  1.00  0.00     0.037 A 
HETATM    9  C5  UNK     1      22.214  -7.812  37.918  1.00  0.00     0.047 A 
HETATM   10  C6  UNK     1      20.152  -5.144  36.601  1.00  0.00     0.153 A 
HETATM   11  C7  UNK     1      19.750  -5.543  35.388  1.00  0.00     0.100 A 
HETATM   12  C8  UNK     1      22.349  -9.613  36.309  1.00  0.00     0.013 A 
HETATM   13  C9  UNK     1      22.689  -9.070  37.549  1.00  0.00     0.041 A 
ENDROOT
BRANCH  10  14
HETATM   14  C10 UNK     1      19.695  -3.832  37.064  1.00  0.00     0.201 C 
HETATM   15  O4  UNK     1      20.385  -3.037  37.675  1.00  0.00    -0.645 OA
BRANCH  14  16
HETATM   16  O3  UNK     1      18.405  -3.650  36.709  1.00  0.00    -0.771 OA
HETATM   17  H4  UNK     1      18.272  -3.747  35.742  1.00  0.00     0.167 HD
ENDBRANCH  14  16
ENDBRANCH  10  14
TORSDOF 2
ENDMDL
MODEL 6
REMARK VINA RESULT:      -6.6      3.162      4.104
REMARK  2 active torsions:
REMARK  status: ('A' for Active; 'I' for Inactive)
REMARK    1  A    between atoms: C10_16  and  O3_5 
REMARK    2  A    between atoms: C10_16  and  C6_12 
ROOT
HETATM    1 Br1  UNK     1      14.228   7.059  32.008  1.00  0.00    -0.048 Br
HETATM    2 Br2  UNK     1      16.746  11.490  34.490  1.00  0.00    -0.051 Br
HETATM    3  O1  UNK     1      17.070   5.952  32.072  1.00  0.00    -0.301 OA
HETATM    4  O2  UNK     1      20.515   7.610  33.491  1.00  0.00    -0.287 OA
HETATM    5  C1  UNK     1      18.187   7.831  33.134  1.00  0.00     0.051 A 
HETATM    6  C2  UNK     1      17.045   7.206  32.630  1.00  0.00     0.108 A 
HETATM    7  C3  UNK     1      19.475   7.121  33.069  1.00  0.00     0.188 A 
HETATM    8  C4  UNK     1      18.104   9.109  33.691  1.00  0.00     0.037 A 
HETATM    9  C5  UNK     1      15.813   7.859  32.679  1.00  0.00     0.047 A 
HETATM   10  C6  UNK     1      18.281   5.296  32.017  1.00  0.00     0.153 A 
HETATM   11  C7  UNK     1      19.449   5.775  32.461  1.00  0.00     0.100 A 
HETATM   12  C8  UNK     1      16.870   9.760  33.739  1.00  0.00     0.013 A 
HETATM   13  C9  UNK     1      15.728   9.136  33.234  1.00  0.00     0.041 A 
ENDROOT
BRANCH  10  14
HETATM   14  C10 UNK     1      18.285   3.959  31.419  1.00  0.00     0.201 C 
HETATM   15  O4  UNK     1      17.504   3.070  31.708  1.00  0.00    -0.645 OA
BRANCH  14  16
HETATM   16  O3  UNK     1      19.280   3.872  30.510  1.00  0.00    -0.771 OA
HETATM   17  H4  UNK     1      19.899   3.138  30.711  1.00  0.00     0.167 HD
ENDBRANCH  14  16
ENDBRANCH  10  14
TORSDOF 2
ENDMDL
MODEL 7
REMARK VINA RESULT:      -6.6      2.366      3.213
REMARK  2 active torsions:
REMARK  status: ('A' for Active; 'I' for Inactive)
REMARK    1  A    between atoms: C10_16  and  O3_5 
REMARK    2  A    between atoms: C10_16  and  C6_12 
ROOT
HETATM    1 Br1  UNK     1      18.405   2.101  35.443  1.00  0.00    -0.048 Br
HETATM    2 Br2  UNK     1      17.455   6.641  32.186  1.00  0.00    -0.051 Br
HETATM    3  O1  UNK     1      18.907   0.793  32.734  1.00  0.00    -0.301 OA
HETATM    4  O2  UNK     1      18.740   2.365  28.975  1.00  0.00    -0.287 OA
HETATM    5  C1  UNK     1      18.508   2.716  31.303  1.00  0.00     0.051 A 
HETATM    6  C2  UNK     1      18.583   2.116  32.561  1.00  0.00     0.108 A 
HETATM    7  C3  UNK     1      18.788   1.903  30.107  1.00  0.00     0.188 A 
HETATM    8  C4  UNK     1      18.172   4.066  31.184  1.00  0.00     0.037 A 
HETATM    9  C5  UNK     1      18.320   2.865  33.708  1.00  0.00     0.047 A 
HETATM   10  C6  UNK     1      19.168   0.041  31.608  1.00  0.00     0.153 A 
HETATM   11  C7  UNK     1      19.134   0.487  30.347  1.00  0.00     0.100 A 
HETATM   12  C8  UNK     1      17.910   4.813  32.334  1.00  0.00     0.013 A 
HETATM   13  C9  UNK     1      17.984   4.214  33.593  1.00  0.00     0.041 A 
ENDROOT
BRANCH  10  14
HETATM   14  C10 UNK     1      19.514  -1.367  31.816  1.00  0.00     0.201 C 
HETATM   15  O4  UNK     1      19.752  -1.867  32.900  1.00  0.00    -0.645 OA
BRANCH  14  16
HETATM   16  O3  UNK     1      19.527  -2.010  30.629  1.00  0.00    -0.771 OA
HETATM   17  H4  UNK     1      20.182  -2.740  30.612  1.00  0.00     0.167 HD
ENDBRANCH  14  16
ENDBRANCH  10  14
TORSDOF 2
ENDMDL
MODEL 8
REMARK VINA RESULT:      -6.6     11.859     13.381
REMARK  2 active torsions:
REMARK  status: ('A' for Active; 'I' for Inactive)
REMARK    1  A    between atoms: C10_16  and  O3_5 
REMARK    2  A    between atoms: C10_16  and  C6_12 
ROOT
HETATM    1 Br1  UNK     1      22.878  -6.678  39.108  1.00  0.00    -0.048 Br
HETATM    2 Br2  UNK     1      19.879  -2.624  36.519  1.00  0.00    -0.051 Br
HETATM    3  O1  UNK     1      20.734  -8.460  37.872  1.00  0.00    -0.301 OA
HETATM    4  O2  UNK     1      17.525  -7.499  35.547  1.00  0.00    -0.287 OA
HETATM    5  C1  UNK     1      19.422  -6.752  36.746  1.00  0.00     0.051 A 
HETATM    6  C2  UNK     1      20.501  -7.149  37.538  1.00  0.00     0.108 A 
HETATM    7  C3  UNK     1      18.491  -7.777  36.244  1.00  0.00     0.188 A 
HETATM    8  C4  UNK     1      19.231  -5.403  36.439  1.00  0.00     0.037 A 
HETATM    9  C5  UNK     1      21.395  -6.196  38.027  1.00  0.00     0.047 A 
HETATM   10  C6  UNK     1      19.858  -9.411  37.395  1.00  0.00     0.153 A 
HETATM   11  C7  UNK     1      18.787  -9.172  36.629  1.00  0.00     0.100 A 
HETATM   12  C8  UNK     1      20.127  -4.452  36.929  1.00  0.00     0.013 A 
HETATM   13  C9  UNK     1      21.207  -4.848  37.721  1.00  0.00     0.041 A 
ENDROOT
BRANCH  10  14
HETATM   14  C10 UNK     1      20.126 -10.804  37.761  1.00  0.00     0.201 C 
HETATM   15  O4  UNK     1      19.311 -11.556  38.264  1.00  0.00    -0.645 OA
BRANCH  14  16
HETATM   16  O3  UNK     1      21.405 -11.114  37.458  1.00  0.00    -0.771 OA
HETATM   17  H4  UNK     1      21.998 -11.032  38.235  1.00  0.00     0.167 HD
ENDBRANCH  14  16
ENDBRANCH  10  14
TORSDOF 2
ENDMDL
MODEL 9
REMARK VINA RESULT:      -6.5     17.282     19.625
REMARK  2 active torsions:
REMARK  status: ('A' for Active; 'I' for Inactive)
REMARK    1  A    between atoms: C10_16  and  O3_5 
REMARK    2  A    between atoms: C10_16  and  C6_12 
ROOT
HETATM    1 Br1  UNK     1      18.468  -2.159  15.819  1.00  0.00    -0.048 Br
HETATM    2 Br2  UNK     1      19.933  -4.453  10.847  1.00  0.00    -0.051 Br
HETATM    3  O1  UNK     1      17.227  -4.913  16.240  1.00  0.00    -0.301 OA
HETATM    4  O2  UNK     1      17.142  -8.170  13.788  1.00  0.00    -0.287 OA
HETATM    5  C1  UNK     1      17.836  -5.933  14.120  1.00  0.00     0.051 A 
HETATM    6  C2  UNK     1      17.829  -4.856  15.007  1.00  0.00     0.108 A 
HETATM    7  C3  UNK     1      17.174  -7.188  14.516  1.00  0.00     0.188 A 
HETATM    8  C4  UNK     1      18.463  -5.820  12.877  1.00  0.00     0.037 A 
HETATM    9  C5  UNK     1      18.448  -3.656  14.654  1.00  0.00     0.047 A 
HETATM   10  C6  UNK     1      16.611  -6.092  16.601  1.00  0.00     0.153 A 
HETATM   11  C7  UNK     1      16.544  -7.199  15.852  1.00  0.00     0.100 A 
HETATM   12  C8  UNK     1      19.082  -4.619  12.527  1.00  0.00     0.013 A 
HETATM   13  C9  UNK     1      19.074  -3.540  13.413  1.00  0.00     0.041 A 
ENDROOT
BRANCH  10  14
HETATM   14  C10 UNK     1      15.977  -6.132  17.921  1.00  0.00     0.201 C 
HETATM   15  O4  UNK     1      16.021  -7.083  18.680  1.00  0.00    -0.645 OA
BRANCH  14  16
HETATM   16  O3  UNK     1      15.344  -4.963  18.155  1.00  0.00    -0.771 OA
HETATM   17  H4  UNK     1      14.458  -4.934  17.737  1.00  0.00     0.167 HD
ENDBRANCH  14  16
ENDBRANCH  10  14
TORSDOF 2
ENDMDL
MODEL 10
REMARK VINA RESULT:      -6.4      2.817      5.045
REMARK  2 active torsions:
REMARK  status: ('A' for Active; 'I' for Inactive)
REMARK    1  A    between atoms: C10_16  and  O3_5 
REMARK    2  A    between atoms: C10_16  and  C6_12 
ROOT
HETATM    1 Br1  UNK     1      18.044   2.189  34.777  1.00  0.00    -0.048 Br
HETATM    2 Br2  UNK     1      18.958   1.119  29.286  1.00  0.00    -0.051 Br
HETATM    3  O1  UNK     1      18.125   5.074  33.790  1.00  0.00    -0.301 OA
HETATM    4  O2  UNK     1      18.693   6.561  30.036  1.00  0.00    -0.287 OA
HETATM    5  C1  UNK     1      18.517   4.657  31.428  1.00  0.00     0.051 A 
HETATM    6  C2  UNK     1      18.317   4.215  32.736  1.00  0.00     0.108 A 
HETATM    7  C3  UNK     1      18.523   6.105  31.158  1.00  0.00     0.188 A 
HETATM    8  C4  UNK     1      18.709   3.739  30.394  1.00  0.00     0.037 A 
HETATM    9  C5  UNK     1      18.309   2.848  33.017  1.00  0.00     0.047 A 
HETATM   10  C6  UNK     1      18.131   6.427  33.526  1.00  0.00     0.153 A 
HETATM   11  C7  UNK     1      18.310   6.987  32.324  1.00  0.00     0.100 A 
HETATM   12  C8  UNK     1      18.700   2.372  30.678  1.00  0.00     0.013 A 
HETATM   13  C9  UNK     1      18.501   1.928  31.986  1.00  0.00     0.041 A 
ENDROOT
BRANCH  10  14
HETATM   14  C10 UNK     1      17.923   7.326  34.663  1.00  0.00     0.201 C 
HETATM   15  O4  UNK     1      16.870   7.880  34.922  1.00  0.00    -0.645 OA
BRANCH  14  16
HETATM   16  O3  UNK     1      19.070   7.439  35.367  1.00  0.00    -0.771 OA
HETATM   17  H4  UNK     1      19.012   6.996  36.240  1.00  0.00     0.167 HD
ENDBRANCH  14  16
ENDBRANCH  10  14
TORSDOF 2
ENDMDL
