MODEL 1
REMARK VINA RESULT:      -9.0      0.000      0.000
REMARK  1 active torsions:
REMARK  status: ('A' for Active; 'I' for Inactive)
REMARK    1  A    between atoms: C1_5  and  C2_6 
ROOT
HETATM    1  O1  UNK     1      19.555  -0.911  34.778  1.00  0.00    -0.274 OA
HETATM    2  O2  UNK     1      20.564  -2.878  34.215  1.00  0.00    -0.259 OA
HETATM    3  C2  UNK     1      19.448  -2.818  36.317  1.00  0.00     0.086 A 
HETATM    4  C5  UNK     1      18.403  -0.705  36.907  1.00  0.00    -0.001 A 
HETATM    5  C6  UNK     1      18.743  -2.088  37.194  1.00  0.00     0.035 A 
HETATM    6  C7  UNK     1      18.816  -0.148  35.702  1.00  0.00     0.089 A 
HETATM    7  C8  UNK     1      19.906  -2.236  35.026  1.00  0.00     0.302 A 
HETATM    8  C11 UNK     1      17.672   0.085  37.799  1.00  0.00     0.014 A 
HETATM    9  C12 UNK     1      18.521   1.172  35.364  1.00  0.00     0.038 A 
HETATM   10  C15 UNK     1      17.370   1.410  37.474  1.00  0.00     0.001 A 
HETATM   11  C16 UNK     1      17.793   1.953  36.259  1.00  0.00     0.003 A 
ENDROOT
BRANCH   3  12
HETATM   12  C1  UNK     1      19.759  -4.179  36.629  1.00  0.00     0.145 A 
HETATM   13  N1  UNK     1      18.719  -5.064  36.678  1.00  0.00    -0.338 N 
HETATM   14  C3  UNK     1      19.233  -6.297  36.989  1.00  0.00     0.062 A 
HETATM   15  H1  UNK     1      17.739  -4.863  36.526  1.00  0.00     0.167 HD
HETATM   16  C4  UNK     1      20.602  -6.080  37.116  1.00  0.00     0.086 A 
HETATM   17  C9  UNK     1      18.636  -7.546  37.165  1.00  0.00     0.032 A 
HETATM   18  C10 UNK     1      21.441  -7.160  37.437  1.00  0.00     0.034 A 
HETATM   19  N2  UNK     1      20.910  -4.757  36.889  1.00  0.00    -0.228 NA
HETATM   20  C14 UNK     1      20.864  -8.423  37.619  1.00  0.00     0.002 A 
HETATM   21  C13 UNK     1      19.486  -8.610  37.485  1.00  0.00     0.002 A 
ENDBRANCH   3  12
TORSDOF 1
ENDMDL
MODEL 2
REMARK VINA RESULT:      -9.0      6.564     10.514
REMARK  1 active torsions:
REMARK  status: ('A' for Active; 'I' for Inactive)
REMARK    1  A    between atoms: C1_5  and  C2_6 
ROOT
HETATM    1  O1  UNK     1      18.801   0.315  32.874  1.00  0.00    -0.274 OA
HETATM    2  O2  UNK     1      17.981   1.894  34.303  1.00  0.00    -0.259 OA
HETATM    3  C2  UNK     1      18.446   2.608  32.080  1.00  0.00     0.086 A 
HETATM    4  C5  UNK     1      19.342   0.916  30.584  1.00  0.00    -0.001 A 
HETATM    5  C6  UNK     1      18.901   2.272  30.864  1.00  0.00     0.035 A 
HETATM    6  C7  UNK     1      19.279  -0.034  31.597  1.00  0.00     0.089 A 
HETATM    7  C8  UNK     1      18.380   1.607  33.179  1.00  0.00     0.302 A 
HETATM    8  C11 UNK     1      19.825   0.532  29.330  1.00  0.00     0.014 A 
HETATM    9  C12 UNK     1      19.685  -1.352  31.394  1.00  0.00     0.038 A 
HETATM   10  C15 UNK     1      20.234  -0.786  29.111  1.00  0.00     0.001 A 
HETATM   11  C16 UNK     1      20.165  -1.726  30.141  1.00  0.00     0.003 A 
ENDROOT
BRANCH   3  12
HETATM   12  C1  UNK     1      18.013   3.951  32.319  1.00  0.00     0.145 A 
HETATM   13  N1  UNK     1      18.559   4.604  33.388  1.00  0.00    -0.338 N 
HETATM   14  C3  UNK     1      18.012   5.861  33.433  1.00  0.00     0.062 A 
HETATM   15  H1  UNK     1      19.236   4.239  34.045  1.00  0.00     0.167 HD
HETATM   16  C4  UNK     1      17.136   5.898  32.352  1.00  0.00     0.086 A 
HETATM   17  C9  UNK     1      18.203   6.937  34.301  1.00  0.00     0.032 A 
HETATM   18  C10 UNK     1      16.398   7.068  32.107  1.00  0.00     0.034 A 
HETATM   19  N2  UNK     1      17.150   4.701  31.671  1.00  0.00    -0.228 NA
HETATM   20  C14 UNK     1      16.574   8.160  32.965  1.00  0.00     0.002 A 
HETATM   21  C13 UNK     1      17.461   8.094  34.043  1.00  0.00     0.002 A 
ENDBRANCH   3  12
TORSDOF 1
ENDMDL
MODEL 3
REMARK VINA RESULT:      -8.9      7.164     10.713
REMARK  1 active torsions:
REMARK  status: ('A' for Active; 'I' for Inactive)
REMARK    1  A    between atoms: C1_5  and  C2_6 
ROOT
HETATM    1  O1  UNK     1      18.990   1.317  28.634  1.00  0.00    -0.274 OA
HETATM    2  O2  UNK     1      18.154   3.440  28.627  1.00  0.00    -0.259 OA
HETATM    3  C2  UNK     1      18.732   2.531  30.750  1.00  0.00     0.086 A 
HETATM    4  C5  UNK     1      19.596   0.260  30.736  1.00  0.00    -0.001 A 
HETATM    5  C6  UNK     1      19.202   1.475  31.430  1.00  0.00     0.035 A 
HETATM    6  C7  UNK     1      19.482   0.210  29.351  1.00  0.00     0.089 A 
HETATM    7  C8  UNK     1      18.595   2.493  29.269  1.00  0.00     0.302 A 
HETATM    8  C11 UNK     1      20.087  -0.860  31.412  1.00  0.00     0.014 A 
HETATM    9  C12 UNK     1      19.844  -0.924  28.625  1.00  0.00     0.038 A 
HETATM   10  C15 UNK     1      20.454  -2.003  30.698  1.00  0.00     0.001 A 
HETATM   11  C16 UNK     1      20.332  -2.036  29.308  1.00  0.00     0.003 A 
ENDROOT
BRANCH   3  12
HETATM   12  C1  UNK     1      18.361   3.714  31.464  1.00  0.00     0.145 A 
HETATM   13  N1  UNK     1      18.539   4.912  30.829  1.00  0.00    -0.338 N 
HETATM   14  C3  UNK     1      18.124   5.903  31.682  1.00  0.00     0.062 A 
HETATM   15  H1  UNK     1      18.919   5.060  29.903  1.00  0.00     0.167 HD
HETATM   16  C4  UNK     1      17.704   5.225  32.823  1.00  0.00     0.086 A 
HETATM   17  C9  UNK     1      18.081   7.292  31.556  1.00  0.00     0.032 A 
HETATM   18  C10 UNK     1      17.210   5.960  33.913  1.00  0.00     0.034 A 
HETATM   19  N2  UNK     1      17.859   3.866  32.669  1.00  0.00    -0.228 NA
HETATM   20  C14 UNK     1      17.158   7.356  33.809  1.00  0.00     0.002 A 
HETATM   21  C13 UNK     1      17.587   8.008  32.651  1.00  0.00     0.002 A 
ENDBRANCH   3  12
TORSDOF 1
ENDMDL
MODEL 4
REMARK VINA RESULT:      -8.7     18.934     21.089
REMARK  1 active torsions:
REMARK  status: ('A' for Active; 'I' for Inactive)
REMARK    1  A    between atoms: C1_5  and  C2_6 
ROOT
HETATM    1  O1  UNK     1      17.150  -3.752  15.458  1.00  0.00    -0.274 OA
HETATM    2  O2  UNK     1      16.375  -2.145  16.880  1.00  0.00    -0.259 OA
HETATM    3  C2  UNK     1      18.675  -2.014  16.278  1.00  0.00     0.086 A 
HETATM    4  C5  UNK     1      19.484  -3.751  14.784  1.00  0.00    -0.001 A 
HETATM    5  C6  UNK     1      19.688  -2.557  15.588  1.00  0.00     0.035 A 
HETATM    6  C7  UNK     1      18.217  -4.320  14.736  1.00  0.00     0.089 A 
HETATM    7  C8  UNK     1      17.314  -2.615  16.246  1.00  0.00     0.302 A 
HETATM    8  C11 UNK     1      20.517  -4.345  14.054  1.00  0.00     0.014 A 
HETATM    9  C12 UNK     1      17.953  -5.463  13.983  1.00  0.00     0.038 A 
HETATM   10  C15 UNK     1      20.269  -5.490  13.295  1.00  0.00     0.001 A 
HETATM   11  C16 UNK     1      18.990  -6.049  13.259  1.00  0.00     0.003 A 
ENDROOT
BRANCH   3  12
HETATM   12  C1  UNK     1      18.909  -0.835  17.054  1.00  0.00     0.145 A 
HETATM   13  N1  UNK     1      19.199  -1.003  18.379  1.00  0.00    -0.338 N 
HETATM   14  C3  UNK     1      19.386   0.239  18.928  1.00  0.00     0.062 A 
HETATM   15  H1  UNK     1      19.258  -1.879  18.884  1.00  0.00     0.167 HD
HETATM   16  C4  UNK     1      19.190   1.120  17.867  1.00  0.00     0.086 A 
HETATM   17  C9  UNK     1      19.699   0.657  20.222  1.00  0.00     0.032 A 
HETATM   18  C10 UNK     1      19.310   2.501  18.092  1.00  0.00     0.034 A 
HETATM   19  N2  UNK     1      18.895   0.434  16.711  1.00  0.00    -0.228 NA
HETATM   20  C14 UNK     1      19.624   2.943  19.384  1.00  0.00     0.002 A 
HETATM   21  C13 UNK     1      19.814   2.035  20.429  1.00  0.00     0.002 A 
ENDBRANCH   3  12
TORSDOF 1
ENDMDL
MODEL 5
REMARK VINA RESULT:      -8.5     19.585     20.886
REMARK  1 active torsions:
REMARK  status: ('A' for Active; 'I' for Inactive)
REMARK    1  A    between atoms: C1_5  and  C2_6 
ROOT
HETATM    1  O1  UNK     1      19.280   1.104  15.472  1.00  0.00    -0.274 OA
HETATM    2  O2  UNK     1      19.346  -0.377  13.738  1.00  0.00    -0.259 OA
HETATM    3  C2  UNK     1      18.905  -1.283  15.895  1.00  0.00     0.086 A 
HETATM    4  C5  UNK     1      18.864   0.310  17.730  1.00  0.00    -0.001 A 
HETATM    5  C6  UNK     1      18.755  -1.041  17.205  1.00  0.00     0.035 A 
HETATM    6  C7  UNK     1      19.123   1.354  16.848  1.00  0.00     0.089 A 
HETATM    7  C8  UNK     1      19.191  -0.179  14.938  1.00  0.00     0.302 A 
HETATM    8  C11 UNK     1      18.716   0.597  19.089  1.00  0.00     0.014 A 
HETATM    9  C12 UNK     1      19.238   2.672  17.285  1.00  0.00     0.038 A 
HETATM   10  C15 UNK     1      18.829   1.914  19.542  1.00  0.00     0.001 A 
HETATM   11  C16 UNK     1      19.090   2.950  18.643  1.00  0.00     0.003 A 
ENDROOT
BRANCH   3  12
HETATM   12  C1  UNK     1      18.783  -2.624  15.412  1.00  0.00     0.145 A 
HETATM   13  N1  UNK     1      19.924  -3.239  14.976  1.00  0.00    -0.338 N 
HETATM   14  C3  UNK     1      19.586  -4.502  14.562  1.00  0.00     0.062 A 
HETATM   15  H1  UNK     1      20.855  -2.845  14.946  1.00  0.00     0.167 HD
HETATM   16  C4  UNK     1      18.213  -4.582  14.778  1.00  0.00     0.086 A 
HETATM   17  C9  UNK     1      20.340  -5.550  14.033  1.00  0.00     0.032 A 
HETATM   18  C10 UNK     1      17.535  -5.768  14.451  1.00  0.00     0.034 A 
HETATM   19  N2  UNK     1      17.732  -3.405  15.306  1.00  0.00    -0.228 NA
HETATM   20  C14 UNK     1      18.273  -6.833  13.919  1.00  0.00     0.002 A 
HETATM   21  C13 UNK     1      19.650  -6.724  13.713  1.00  0.00     0.002 A 
ENDBRANCH   3  12
TORSDOF 1
ENDMDL
MODEL 6
REMARK VINA RESULT:      -8.5      6.846      8.490
REMARK  1 active torsions:
REMARK  status: ('A' for Active; 'I' for Inactive)
REMARK    1  A    between atoms: C1_5  and  C2_6 
ROOT
HETATM    1  O1  UNK     1      18.258   5.872  30.436  1.00  0.00    -0.274 OA
HETATM    2  O2  UNK     1      19.024   4.182  29.108  1.00  0.00    -0.259 OA
HETATM    3  C2  UNK     1      18.569   3.629  31.379  1.00  0.00     0.086 A 
HETATM    4  C5  UNK     1      17.779   5.451  32.779  1.00  0.00    -0.001 A 
HETATM    5  C6  UNK     1      18.163   4.063  32.581  1.00  0.00     0.035 A 
HETATM    6  C7  UNK     1      17.833   6.324  31.699  1.00  0.00     0.089 A 
HETATM    7  C8  UNK     1      18.642   4.552  30.213  1.00  0.00     0.302 A 
HETATM    8  C11 UNK     1      17.353   5.937  34.019  1.00  0.00     0.014 A 
HETATM    9  C12 UNK     1      17.477   7.666  31.822  1.00  0.00     0.038 A 
HETATM   10  C15 UNK     1      16.993   7.280  34.157  1.00  0.00     0.001 A 
HETATM   11  C16 UNK     1      17.054   8.143  33.061  1.00  0.00     0.003 A 
ENDROOT
BRANCH   3  12
HETATM   12  C1  UNK     1      18.934   2.255  31.217  1.00  0.00     0.145 A 
HETATM   13  N1  UNK     1      19.444   1.881  30.006  1.00  0.00    -0.338 N 
HETATM   14  C3  UNK     1      19.723   0.539  30.066  1.00  0.00     0.062 A 
HETATM   15  H1  UNK     1      19.586   2.470  29.195  1.00  0.00     0.167 HD
HETATM   16  C4  UNK     1      19.352   0.166  31.355  1.00  0.00     0.086 A 
HETATM   17  C9  UNK     1      20.252  -0.353  29.132  1.00  0.00     0.032 A 
HETATM   18  C10 UNK     1      19.510  -1.172  31.753  1.00  0.00     0.034 A 
HETATM   19  N2  UNK     1      18.863   1.245  32.055  1.00  0.00    -0.228 NA
HETATM   20  C14 UNK     1      20.039  -2.085  30.832  1.00  0.00     0.002 A 
HETATM   21  C13 UNK     1      20.402  -1.681  29.545  1.00  0.00     0.002 A 
ENDBRANCH   3  12
TORSDOF 1
ENDMDL
MODEL 7
REMARK VINA RESULT:      -8.5      7.531      9.015
REMARK  1 active torsions:
REMARK  status: ('A' for Active; 'I' for Inactive)
REMARK    1  A    between atoms: C1_5  and  C2_6 
ROOT
HETATM    1  O1  UNK     1      17.933   4.587  34.173  1.00  0.00    -0.274 OA
HETATM    2  O2  UNK     1      18.410   2.383  33.822  1.00  0.00    -0.259 OA
HETATM    3  C2  UNK     1      18.218   3.753  31.884  1.00  0.00     0.086 A 
HETATM    4  C5  UNK     1      17.685   6.090  32.281  1.00  0.00    -0.001 A 
HETATM    5  C6  UNK     1      17.972   4.976  31.393  1.00  0.00     0.035 A 
HETATM    6  C7  UNK     1      17.674   5.869  33.654  1.00  0.00     0.089 A 
HETATM    7  C8  UNK     1      18.202   3.496  33.350  1.00  0.00     0.302 A 
HETATM    8  C11 UNK     1      17.421   7.377  31.803  1.00  0.00     0.014 A 
HETATM    9  C12 UNK     1      17.407   6.894  34.560  1.00  0.00     0.038 A 
HETATM   10  C15 UNK     1      17.153   8.414  32.700  1.00  0.00     0.001 A 
HETATM   11  C16 UNK     1      17.145   8.174  34.075  1.00  0.00     0.003 A 
ENDROOT
BRANCH   3  12
HETATM   12  C1  UNK     1      18.505   2.680  30.981  1.00  0.00     0.145 A 
HETATM   13  N1  UNK     1      19.543   1.851  31.302  1.00  0.00    -0.338 N 
HETATM   14  C3  UNK     1      19.643   0.905  30.315  1.00  0.00     0.062 A 
HETATM   15  H1  UNK     1      20.148   1.916  32.111  1.00  0.00     0.167 HD
HETATM   16  C4  UNK     1      18.624   1.226  29.422  1.00  0.00     0.086 A 
HETATM   17  C9  UNK     1      20.511  -0.173  30.132  1.00  0.00     0.032 A 
HETATM   18  C10 UNK     1      18.446   0.438  28.273  1.00  0.00     0.034 A 
HETATM   19  N2  UNK     1      17.928   2.333  29.853  1.00  0.00    -0.228 NA
HETATM   20  C14 UNK     1      19.306  -0.649  28.068  1.00  0.00     0.002 A 
HETATM   21  C13 UNK     1      20.319  -0.947  28.982  1.00  0.00     0.002 A 
ENDBRANCH   3  12
TORSDOF 1
ENDMDL
MODEL 8
REMARK VINA RESULT:      -8.5     20.372     22.386
REMARK  1 active torsions:
REMARK  status: ('A' for Active; 'I' for Inactive)
REMARK    1  A    between atoms: C1_5  and  C2_6 
ROOT
HETATM    1  O1  UNK     1      18.185  -3.314  13.654  1.00  0.00    -0.274 OA
HETATM    2  O2  UNK     1      17.369  -2.692  15.692  1.00  0.00    -0.259 OA
HETATM    3  C2  UNK     1      19.094  -1.330  14.776  1.00  0.00     0.086 A 
HETATM    4  C5  UNK     1      19.965  -2.027  12.617  1.00  0.00    -0.001 A 
HETATM    5  C6  UNK     1      19.945  -1.129  13.759  1.00  0.00     0.035 A 
HETATM    6  C7  UNK     1      19.081  -3.100  12.590  1.00  0.00     0.089 A 
HETATM    7  C8  UNK     1      18.147  -2.479  14.768  1.00  0.00     0.302 A 
HETATM    8  C11 UNK     1      20.841  -1.848  11.542  1.00  0.00     0.014 A 
HETATM    9  C12 UNK     1      19.048  -3.997  11.524  1.00  0.00     0.038 A 
HETATM   10  C15 UNK     1      20.819  -2.739  10.466  1.00  0.00     0.001 A 
HETATM   11  C16 UNK     1      19.925  -3.812  10.457  1.00  0.00     0.003 A 
ENDROOT
BRANCH   3  12
HETATM   12  C1  UNK     1      19.096  -0.422  15.881  1.00  0.00     0.145 A 
HETATM   13  N1  UNK     1      19.053  -0.963  17.136  1.00  0.00    -0.338 N 
HETATM   14  C3  UNK     1      19.063   0.071  18.037  1.00  0.00     0.062 A 
HETATM   15  H1  UNK     1      19.009  -1.945  17.376  1.00  0.00     0.167 HD
HETATM   16  C4  UNK     1      19.113   1.217  17.249  1.00  0.00     0.086 A 
HETATM   17  C9  UNK     1      19.034   0.101  19.432  1.00  0.00     0.032 A 
HETATM   18  C10 UNK     1      19.134   2.477  17.871  1.00  0.00     0.034 A 
HETATM   19  N2  UNK     1      19.132   0.891  15.912  1.00  0.00    -0.228 NA
HETATM   20  C14 UNK     1      19.106   2.530  19.271  1.00  0.00     0.002 A 
HETATM   21  C13 UNK     1      19.056   1.362  20.035  1.00  0.00     0.002 A 
ENDBRANCH   3  12
TORSDOF 1
ENDMDL
MODEL 9
REMARK VINA RESULT:      -8.3      4.361      6.709
REMARK  1 active torsions:
REMARK  status: ('A' for Active; 'I' for Inactive)
REMARK    1  A    between atoms: C1_5  and  C2_6 
ROOT
HETATM    1  O1  UNK     1      18.748   2.578  30.741  1.00  0.00    -0.274 OA
HETATM    2  O2  UNK     1      18.712   0.457  31.582  1.00  0.00    -0.259 OA
HETATM    3  C2  UNK     1      18.373   2.225  33.139  1.00  0.00     0.086 A 
HETATM    4  C5  UNK     1      18.440   4.476  32.225  1.00  0.00    -0.001 A 
HETATM    5  C6  UNK     1      18.292   3.549  33.335  1.00  0.00     0.035 A 
HETATM    6  C7  UNK     1      18.663   3.967  30.951  1.00  0.00     0.089 A 
HETATM    7  C8  UNK     1      18.620   1.663  31.784  1.00  0.00     0.302 A 
HETATM    8  C11 UNK     1      18.364   5.861  32.394  1.00  0.00     0.014 A 
HETATM    9  C12 UNK     1      18.813   4.801  29.843  1.00  0.00     0.038 A 
HETATM   10  C15 UNK     1      18.512   6.709  31.294  1.00  0.00     0.001 A 
HETATM   11  C16 UNK     1      18.736   6.180  30.021  1.00  0.00     0.003 A 
ENDROOT
BRANCH   3  12
HETATM   12  C1  UNK     1      18.215   1.342  34.253  1.00  0.00     0.145 A 
HETATM   13  N1  UNK     1      18.962   0.198  34.257  1.00  0.00    -0.338 N 
HETATM   14  C3  UNK     1      18.660  -0.496  35.401  1.00  0.00     0.062 A 
HETATM   15  H1  UNK     1      19.617  -0.106  33.547  1.00  0.00     0.167 HD
HETATM   16  C4  UNK     1      17.714   0.295  36.046  1.00  0.00     0.086 A 
HETATM   17  C9  UNK     1      19.119  -1.711  35.911  1.00  0.00     0.032 A 
HETATM   18  C10 UNK     1      17.182  -0.135  37.273  1.00  0.00     0.034 A 
HETATM   19  N2  UNK     1      17.449   1.433  35.318  1.00  0.00    -0.228 NA
HETATM   20  C14 UNK     1      17.629  -1.352  37.804  1.00  0.00     0.002 A 
HETATM   21  C13 UNK     1      18.580  -2.125  37.133  1.00  0.00     0.002 A 
ENDBRANCH   3  12
TORSDOF 1
ENDMDL
MODEL 10
REMARK VINA RESULT:      -8.2      1.940      7.233
REMARK  1 active torsions:
REMARK  status: ('A' for Active; 'I' for Inactive)
REMARK    1  A    between atoms: C1_5  and  C2_6 
ROOT
HETATM    1  O1  UNK     1      20.530  -8.278  35.342  1.00  0.00    -0.274 OA
HETATM    2  O2  UNK     1      20.676  -6.346  34.136  1.00  0.00    -0.259 OA
HETATM    3  C2  UNK     1      19.779  -6.163  36.334  1.00  0.00     0.086 A 
HETATM    4  C5  UNK     1      19.610  -8.237  37.590  1.00  0.00    -0.001 A 
HETATM    5  C6  UNK     1      19.428  -6.801  37.461  1.00  0.00     0.035 A 
HETATM    6  C7  UNK     1      20.159  -8.943  36.526  1.00  0.00     0.089 A 
HETATM    7  C8  UNK     1      20.361  -6.904  35.182  1.00  0.00     0.302 A 
HETATM    8  C11 UNK     1      19.253  -8.934  38.748  1.00  0.00     0.014 A 
HETATM    9  C12 UNK     1      20.362 -10.321  36.585  1.00  0.00     0.038 A 
HETATM   10  C15 UNK     1      19.450 -10.315  38.822  1.00  0.00     0.001 A 
HETATM   11  C16 UNK     1      20.002 -11.008  37.743  1.00  0.00     0.003 A 
ENDROOT
BRANCH   3  12
HETATM   12  C1  UNK     1      19.593  -4.748  36.244  1.00  0.00     0.145 A 
HETATM   13  N1  UNK     1      18.438  -4.233  36.762  1.00  0.00    -0.338 N 
HETATM   14  C3  UNK     1      18.464  -2.875  36.572  1.00  0.00     0.062 A 
HETATM   15  H1  UNK     1      17.684  -4.746  37.199  1.00  0.00     0.167 HD
HETATM   16  C4  UNK     1      19.675  -2.637  35.928  1.00  0.00     0.086 A 
HETATM   17  C9  UNK     1      17.559  -1.864  36.900  1.00  0.00     0.032 A 
HETATM   18  C10 UNK     1      20.020  -1.321  35.581  1.00  0.00     0.034 A 
HETATM   19  N2  UNK     1      20.362  -3.813  35.732  1.00  0.00    -0.228 NA
HETATM   20  C14 UNK     1      19.127  -0.290  35.900  1.00  0.00     0.002 A 
HETATM   21  C13 UNK     1      17.918  -0.559  36.547  1.00  0.00     0.002 A 
ENDBRANCH   3  12
TORSDOF 1
ENDMDL
