MODEL 1
REMARK VINA RESULT:      -9.8      0.000      0.000
REMARK  3 active torsions:
REMARK  status: ('A' for Active; 'I' for Inactive)
REMARK    1  A    between atoms: C5_13  and  N1_7 
REMARK       I    between atoms: C6_14  and  N2_8 
REMARK    2  A    between atoms: C6_14  and  C9_17 
REMARK    3  A    between atoms: C10_18  and  C16_24 
ROOT
HETATM    1  O1  UNK     1      18.792  -2.245  37.735  1.00  0.00    -0.267 OA
HETATM    2  N1  UNK     1      19.703  -1.407  32.837  1.00  0.00    -0.378 N 
HETATM    3  N2  UNK     1      19.600  -2.388  35.557  1.00  0.00    -0.345 N 
HETATM    4  C1  UNK     1      18.645  -0.986  33.759  1.00  0.00     0.143 C 
HETATM    5  C2  UNK     1      20.790  -2.235  33.363  1.00  0.00     0.143 C 
HETATM    6  C3  UNK     1      19.133  -1.049  35.205  1.00  0.00     0.146 C 
HETATM    7  C4  UNK     1      20.291  -3.130  34.499  1.00  0.00     0.146 C 
HETATM    8  C6  UNK     1      19.370  -2.869  36.845  1.00  0.00     0.260 C 
ENDROOT
BRANCH   8   9
HETATM    9  C9  UNK     1      19.852  -4.233  37.151  1.00  0.00     0.108 A 
HETATM   10  C12 UNK     1      21.043  -4.317  37.754  1.00  0.00     0.037 A 
HETATM   11  C15 UNK     1      21.602  -5.616  38.094  1.00  0.00    -0.001 A 
HETATM   12  C17 UNK     1      20.878  -6.763  37.786  1.00  0.00     0.089 A 
HETATM   13  C18 UNK     1      22.842  -5.751  38.724  1.00  0.00     0.014 A 
HETATM   14  O2  UNK     1      19.623  -6.667  37.152  1.00  0.00    -0.274 OA
HETATM   15  C19 UNK     1      21.356  -8.036  38.086  1.00  0.00     0.038 A 
HETATM   16  C14 UNK     1      19.063  -5.438  36.812  1.00  0.00     0.304 A 
HETATM   17  O3  UNK     1      17.970  -5.366  36.261  1.00  0.00    -0.259 OA
HETATM   18  C21 UNK     1      22.594  -8.162  38.712  1.00  0.00     0.003 A 
HETATM   19  C20 UNK     1      23.336  -7.023  39.031  1.00  0.00     0.001 A 
ENDBRANCH   8   9
BRANCH   2  20
HETATM   20  C5  UNK     1      19.700  -0.975  31.512  1.00  0.00     0.030 A 
HETATM   21  C7  UNK     1      19.096   0.248  31.136  1.00  0.00     0.045 A 
HETATM   22  C10 UNK     1      19.095   0.679  29.810  1.00  0.00     0.050 A 
HETATM   23  C13 UNK     1      19.696  -0.100  28.822  1.00  0.00     0.016 A 
HETATM   24  C11 UNK     1      20.301  -1.310  29.160  1.00  0.00     0.003 A 
HETATM   25  C8  UNK     1      20.302  -1.743  30.486  1.00  0.00     0.029 A 
BRANCH  22  26
HETATM   26  C16 UNK     1      18.448   1.973  29.448  1.00  0.00     0.417 C 
HETATM   27  F1  UNK     1      17.431   2.332  30.287  1.00  0.00    -0.166 F 
HETATM   28  F2  UNK     1      19.306   3.036  29.455  1.00  0.00    -0.166 F 
HETATM   29  F3  UNK     1      17.900   1.955  28.197  1.00  0.00    -0.166 F 
ENDBRANCH  22  26
ENDBRANCH   2  20
TORSDOF 3
ENDMDL
MODEL 2
REMARK VINA RESULT:      -9.8      1.254      2.040
REMARK  3 active torsions:
REMARK  status: ('A' for Active; 'I' for Inactive)
REMARK    1  A    between atoms: C5_13  and  N1_7 
REMARK       I    between atoms: C6_14  and  N2_8 
REMARK    2  A    between atoms: C6_14  and  C9_17 
REMARK    3  A    between atoms: C10_18  and  C16_24 
ROOT
HETATM    1  O1  UNK     1      19.057  -2.586  37.643  1.00  0.00    -0.267 OA
HETATM    2  N1  UNK     1      19.772  -1.462  32.769  1.00  0.00    -0.378 N 
HETATM    3  N2  UNK     1      19.748  -2.622  35.421  1.00  0.00    -0.345 N 
HETATM    4  C1  UNK     1      18.788  -1.049  33.773  1.00  0.00     0.143 C 
HETATM    5  C2  UNK     1      20.834  -2.382  33.181  1.00  0.00     0.143 C 
HETATM    6  C3  UNK     1      19.342  -1.238  35.183  1.00  0.00     0.146 C 
HETATM    7  C4  UNK     1      20.341  -3.325  34.280  1.00  0.00     0.146 C 
HETATM    8  C6  UNK     1      19.554  -3.178  36.684  1.00  0.00     0.260 C 
ENDROOT
BRANCH   8   9
HETATM    9  C9  UNK     1      19.970  -4.583  36.873  1.00  0.00     0.108 A 
HETATM   10  C12 UNK     1      19.039  -5.513  36.634  1.00  0.00     0.037 A 
HETATM   11  C15 UNK     1      19.354  -6.924  36.794  1.00  0.00    -0.001 A 
HETATM   12  C17 UNK     1      20.634  -7.287  37.198  1.00  0.00     0.089 A 
HETATM   13  C18 UNK     1      18.413  -7.929  36.554  1.00  0.00     0.014 A 
HETATM   14  O2  UNK     1      21.611  -6.303  37.449  1.00  0.00    -0.274 OA
HETATM   15  C19 UNK     1      20.999  -8.620  37.370  1.00  0.00     0.038 A 
HETATM   16  C14 UNK     1      21.339  -4.945  37.304  1.00  0.00     0.304 A 
HETATM   17  O3  UNK     1      22.196  -4.096  37.525  1.00  0.00    -0.259 OA
HETATM   18  C21 UNK     1      20.055  -9.615  37.130  1.00  0.00     0.003 A 
HETATM   19  C20 UNK     1      18.764  -9.272  36.722  1.00  0.00     0.001 A 
ENDBRANCH   8   9
BRANCH   2  20
HETATM   20  C5  UNK     1      19.729  -0.940  31.478  1.00  0.00     0.030 A 
HETATM   21  C7  UNK     1      19.129   0.313  31.209  1.00  0.00     0.045 A 
HETATM   22  C10 UNK     1      19.088   0.835  29.916  1.00  0.00     0.050 A 
HETATM   23  C13 UNK     1      19.643   0.119  28.856  1.00  0.00     0.016 A 
HETATM   24  C11 UNK     1      20.243  -1.119  29.089  1.00  0.00     0.003 A 
HETATM   25  C8  UNK     1      20.284  -1.641  30.381  1.00  0.00     0.029 A 
BRANCH  22  26
HETATM   26  C16 UNK     1      18.446   2.158  29.667  1.00  0.00     0.417 C 
HETATM   27  F1  UNK     1      17.438   2.452  30.541  1.00  0.00    -0.166 F 
HETATM   28  F2  UNK     1      19.311   3.211  29.754  1.00  0.00    -0.166 F 
HETATM   29  F3  UNK     1      17.888   2.245  28.424  1.00  0.00    -0.166 F 
ENDBRANCH  22  26
ENDBRANCH   2  20
TORSDOF 3
ENDMDL
MODEL 3
REMARK VINA RESULT:      -9.0      7.382     12.189
REMARK  3 active torsions:
REMARK  status: ('A' for Active; 'I' for Inactive)
REMARK    1  A    between atoms: C5_13  and  N1_7 
REMARK       I    between atoms: C6_14  and  N2_8 
REMARK    2  A    between atoms: C6_14  and  C9_17 
REMARK    3  A    between atoms: C10_18  and  C16_24 
ROOT
HETATM    1  O1  UNK     1      18.100   6.882  30.461  1.00  0.00    -0.267 OA
HETATM    2  N1  UNK     1      18.209   2.810  33.450  1.00  0.00    -0.378 N 
HETATM    3  N2  UNK     1      18.096   5.467  32.309  1.00  0.00    -0.345 N 
HETATM    4  C1  UNK     1      17.938   3.016  32.025  1.00  0.00     0.143 C 
HETATM    5  C2  UNK     1      18.555   3.977  34.264  1.00  0.00     0.143 C 
HETATM    6  C3  UNK     1      18.569   4.319  31.538  1.00  0.00     0.146 C 
HETATM    7  C4  UNK     1      17.861   5.234  33.737  1.00  0.00     0.146 C 
HETATM    8  C6  UNK     1      17.901   6.685  31.660  1.00  0.00     0.260 C 
ENDROOT
BRANCH   8   9
HETATM    9  C9  UNK     1      17.411   7.814  32.478  1.00  0.00     0.108 A 
HETATM   10  C12 UNK     1      16.122   8.140  32.326  1.00  0.00     0.037 A 
HETATM   11  C15 UNK     1      15.549   9.238  33.087  1.00  0.00    -0.001 A 
HETATM   12  C17 UNK     1      16.360   9.940  33.972  1.00  0.00     0.089 A 
HETATM   13  C18 UNK     1      14.208   9.612  32.961  1.00  0.00     0.014 A 
HETATM   14  O2  UNK     1      17.717   9.593  34.128  1.00  0.00    -0.274 OA
HETATM   15  C19 UNK     1      15.872  11.002  34.731  1.00  0.00     0.038 A 
HETATM   16  C14 UNK     1      18.294   8.547  33.414  1.00  0.00     0.304 A 
HETATM   17  O3  UNK     1      19.476   8.252  33.556  1.00  0.00    -0.259 OA
HETATM   18  C21 UNK     1      14.536  11.369  34.598  1.00  0.00     0.003 A 
HETATM   19  C20 UNK     1      13.704  10.676  33.715  1.00  0.00     0.001 A 
ENDBRANCH   8   9
BRANCH   2  20
HETATM   20  C5  UNK     1      18.195   1.527  33.995  1.00  0.00     0.030 A 
HETATM   21  C7  UNK     1      17.785   1.297  35.329  1.00  0.00     0.045 A 
HETATM   22  C10 UNK     1      17.772   0.012  35.872  1.00  0.00     0.050 A 
HETATM   23  C13 UNK     1      18.168  -1.077  35.098  1.00  0.00     0.016 A 
HETATM   24  C11 UNK     1      18.577  -0.884  33.779  1.00  0.00     0.003 A 
HETATM   25  C8  UNK     1      18.592   0.401  33.235  1.00  0.00     0.029 A 
BRANCH  22  26
HETATM   26  C16 UNK     1      17.335  -0.195  37.283  1.00  0.00     0.417 C 
HETATM   27  F1  UNK     1      17.371  -1.502  37.681  1.00  0.00    -0.166 F 
HETATM   28  F2  UNK     1      18.097   0.475  38.197  1.00  0.00    -0.166 F 
HETATM   29  F3  UNK     1      16.052   0.219  37.503  1.00  0.00    -0.166 F 
ENDBRANCH  22  26
ENDBRANCH   2  20
TORSDOF 3
ENDMDL
MODEL 4
REMARK VINA RESULT:      -8.9      6.453     11.349
REMARK  3 active torsions:
REMARK  status: ('A' for Active; 'I' for Inactive)
REMARK    1  A    between atoms: C5_13  and  N1_7 
REMARK       I    between atoms: C6_14  and  N2_8 
REMARK    2  A    between atoms: C6_14  and  C9_17 
REMARK    3  A    between atoms: C10_18  and  C16_24 
ROOT
HETATM    1  O1  UNK     1      18.210   4.270  30.815  1.00  0.00    -0.267 OA
HETATM    2  N1  UNK     1      18.463   1.346  34.928  1.00  0.00    -0.378 N 
HETATM    3  N2  UNK     1      18.377   3.511  33.009  1.00  0.00    -0.345 N 
HETATM    4  C1  UNK     1      17.998   1.130  33.555  1.00  0.00     0.143 C 
HETATM    5  C2  UNK     1      19.013   2.659  35.273  1.00  0.00     0.143 C 
HETATM    6  C3  UNK     1      18.644   2.133  32.602  1.00  0.00     0.146 C 
HETATM    7  C4  UNK     1      18.342   3.762  34.452  1.00  0.00     0.146 C 
HETATM    8  C6  UNK     1      18.178   4.481  32.028  1.00  0.00     0.260 C 
ENDROOT
BRANCH   8   9
HETATM    9  C9  UNK     1      17.900   5.858  32.488  1.00  0.00     0.108 A 
HETATM   10  C12 UNK     1      16.612   6.174  32.665  1.00  0.00     0.037 A 
HETATM   11  C15 UNK     1      16.240   7.506  33.115  1.00  0.00    -0.001 A 
HETATM   12  C17 UNK     1      17.241   8.440  33.356  1.00  0.00     0.089 A 
HETATM   13  C18 UNK     1      14.908   7.878  33.314  1.00  0.00     0.014 A 
HETATM   14  O2  UNK     1      18.596   8.101  33.167  1.00  0.00    -0.274 OA
HETATM   15  C19 UNK     1      16.951   9.732  33.788  1.00  0.00     0.038 A 
HETATM   16  C14 UNK     1      18.984   6.835  32.737  1.00  0.00     0.304 A 
HETATM   17  O3  UNK     1      20.165   6.550  32.576  1.00  0.00    -0.259 OA
HETATM   18  C21 UNK     1      15.621  10.096  33.983  1.00  0.00     0.003 A 
HETATM   19  C20 UNK     1      14.601   9.172  33.748  1.00  0.00     0.001 A 
ENDBRANCH   8   9
BRANCH   2  20
HETATM   20  C5  UNK     1      18.437   0.307  35.856  1.00  0.00     0.030 A 
HETATM   21  C7  UNK     1      19.093  -0.921  35.607  1.00  0.00     0.045 A 
HETATM   22  C10 UNK     1      19.067  -1.959  36.538  1.00  0.00     0.050 A 
HETATM   23  C13 UNK     1      18.384  -1.799  37.743  1.00  0.00     0.016 A 
HETATM   24  C11 UNK     1      17.728  -0.601  38.019  1.00  0.00     0.003 A 
HETATM   25  C8  UNK     1      17.753   0.438  37.089  1.00  0.00     0.029 A 
BRANCH  22  26
HETATM   26  C16 UNK     1      19.768  -3.242  36.243  1.00  0.00     0.417 C 
HETATM   27  F1  UNK     1      19.035  -4.352  36.555  1.00  0.00    -0.166 F 
HETATM   28  F2  UNK     1      20.101  -3.395  34.927  1.00  0.00    -0.166 F 
HETATM   29  F3  UNK     1      20.939  -3.372  36.933  1.00  0.00    -0.166 F 
ENDBRANCH  22  26
ENDBRANCH   2  20
TORSDOF 3
ENDMDL
MODEL 5
REMARK VINA RESULT:      -8.8      6.541     11.114
REMARK  3 active torsions:
REMARK  status: ('A' for Active; 'I' for Inactive)
REMARK    1  A    between atoms: C5_13  and  N1_7 
REMARK       I    between atoms: C6_14  and  N2_8 
REMARK    2  A    between atoms: C6_14  and  C9_17 
REMARK    3  A    between atoms: C10_18  and  C16_24 
ROOT
HETATM    1  O1  UNK     1      18.153   4.286  30.921  1.00  0.00    -0.267 OA
HETATM    2  N1  UNK     1      18.420   1.355  35.027  1.00  0.00    -0.378 N 
HETATM    3  N2  UNK     1      18.402   3.516  33.103  1.00  0.00    -0.345 N 
HETATM    4  C1  UNK     1      17.842   1.181  33.692  1.00  0.00     0.143 C 
HETATM    5  C2  UNK     1      19.112   2.610  35.323  1.00  0.00     0.143 C 
HETATM    6  C3  UNK     1      18.510   2.119  32.689  1.00  0.00     0.146 C 
HETATM    7  C4  UNK     1      18.491   3.771  34.544  1.00  0.00     0.146 C 
HETATM    8  C6  UNK     1      18.226   4.499  32.132  1.00  0.00     0.260 C 
ENDROOT
BRANCH   8   9
HETATM    9  C9  UNK     1      18.111   5.897  32.599  1.00  0.00     0.108 A 
HETATM   10  C12 UNK     1      19.239   6.469  33.036  1.00  0.00     0.037 A 
HETATM   11  C15 UNK     1      19.226   7.841  33.518  1.00  0.00    -0.001 A 
HETATM   12  C17 UNK     1      18.027   8.545  33.515  1.00  0.00     0.089 A 
HETATM   13  C18 UNK     1      20.380   8.478  33.982  1.00  0.00     0.014 A 
HETATM   14  O2  UNK     1      16.842   7.937  33.053  1.00  0.00    -0.274 OA
HETATM   15  C19 UNK     1      17.947   9.861  33.962  1.00  0.00     0.038 A 
HETATM   16  C14 UNK     1      16.823   6.625  32.587  1.00  0.00     0.304 A 
HETATM   17  O3  UNK     1      15.787   6.105  32.187  1.00  0.00    -0.259 OA
HETATM   18  C21 UNK     1      19.102  10.488  34.425  1.00  0.00     0.003 A 
HETATM   19  C20 UNK     1      20.316   9.799  34.435  1.00  0.00     0.001 A 
ENDBRANCH   8   9
BRANCH   2  20
HETATM   20  C5  UNK     1      18.362   0.323  35.963  1.00  0.00     0.030 A 
HETATM   21  C7  UNK     1      19.033  -0.904  35.751  1.00  0.00     0.045 A 
HETATM   22  C10 UNK     1      18.975  -1.934  36.689  1.00  0.00     0.050 A 
HETATM   23  C13 UNK     1      18.243  -1.768  37.864  1.00  0.00     0.016 A 
HETATM   24  C11 UNK     1      17.571  -0.570  38.104  1.00  0.00     0.003 A 
HETATM   25  C8  UNK     1      17.628   0.461  37.166  1.00  0.00     0.029 A 
BRANCH  22  26
HETATM   26  C16 UNK     1      19.694  -3.216  36.433  1.00  0.00     0.417 C 
HETATM   27  F1  UNK     1      20.825  -3.370  37.184  1.00  0.00    -0.166 F 
HETATM   28  F2  UNK     1      18.942  -4.327  36.692  1.00  0.00    -0.166 F 
HETATM   29  F3  UNK     1      20.097  -3.342  35.135  1.00  0.00    -0.166 F 
ENDBRANCH  22  26
ENDBRANCH   2  20
TORSDOF 3
ENDMDL
MODEL 6
REMARK VINA RESULT:      -8.8     27.802     29.227
REMARK  3 active torsions:
REMARK  status: ('A' for Active; 'I' for Inactive)
REMARK    1  A    between atoms: C5_13  and  N1_7 
REMARK       I    between atoms: C6_14  and  N2_8 
REMARK    2  A    between atoms: C6_14  and  C9_17 
REMARK    3  A    between atoms: C10_18  and  C16_24 
ROOT
HETATM    1  O1  UNK     1       9.565   5.700   6.807  1.00  0.00    -0.267 OA
HETATM    2  N1  UNK     1      13.471   8.377   8.569  1.00  0.00    -0.378 N 
HETATM    3  N2  UNK     1      10.938   7.056   8.110  1.00  0.00    -0.345 N 
HETATM    4  C1  UNK     1      13.339   7.309   7.575  1.00  0.00     0.143 C 
HETATM    5  C2  UNK     1      12.258   8.857   9.235  1.00  0.00     0.143 C 
HETATM    6  C3  UNK     1      11.911   7.248   7.036  1.00  0.00     0.146 C 
HETATM    7  C4  UNK     1      11.234   7.730   9.377  1.00  0.00     0.146 C 
HETATM    8  C6  UNK     1       9.815   6.265   7.873  1.00  0.00     0.260 C 
ENDROOT
BRANCH   8   9
HETATM    9  C9  UNK     1       8.865   6.092   8.992  1.00  0.00     0.108 A 
HETATM   10  C12 UNK     1       7.914   7.026   9.110  1.00  0.00     0.037 A 
HETATM   11  C15 UNK     1       6.933   6.941  10.181  1.00  0.00    -0.001 A 
HETATM   12  C17 UNK     1       7.001   5.877  11.074  1.00  0.00     0.089 A 
HETATM   13  C18 UNK     1       5.923   7.894  10.342  1.00  0.00     0.014 A 
HETATM   14  O2  UNK     1       8.004   4.897  10.944  1.00  0.00    -0.274 OA
HETATM   15  C19 UNK     1       6.092   5.739  12.120  1.00  0.00     0.038 A 
HETATM   16  C14 UNK     1       8.957   4.950   9.930  1.00  0.00     0.304 A 
HETATM   17  O3  UNK     1       9.826   4.092   9.825  1.00  0.00    -0.259 OA
HETATM   18  C21 UNK     1       5.089   6.693  12.275  1.00  0.00     0.003 A 
HETATM   19  C20 UNK     1       5.004   7.768  11.388  1.00  0.00     0.001 A 
ENDBRANCH   8   9
BRANCH   2  20
HETATM   20  C5  UNK     1      14.713   8.958   8.823  1.00  0.00     0.030 A 
HETATM   21  C7  UNK     1      15.103  10.166   8.199  1.00  0.00     0.045 A 
HETATM   22  C10 UNK     1      16.345  10.747   8.455  1.00  0.00     0.050 A 
HETATM   23  C13 UNK     1      17.232  10.135   9.340  1.00  0.00     0.016 A 
HETATM   24  C11 UNK     1      16.877   8.944   9.972  1.00  0.00     0.003 A 
HETATM   25  C8  UNK     1      15.635   8.363   9.717  1.00  0.00     0.029 A 
BRANCH  22  26
HETATM   26  C16 UNK     1      16.725  12.020   7.779  1.00  0.00     0.417 C 
HETATM   27  F1  UNK     1      17.102  13.009   8.644  1.00  0.00    -0.166 F 
HETATM   28  F2  UNK     1      17.773  11.890   6.912  1.00  0.00    -0.166 F 
HETATM   29  F3  UNK     1      15.705  12.550   7.042  1.00  0.00    -0.166 F 
ENDBRANCH  22  26
ENDBRANCH   2  20
TORSDOF 3
ENDMDL
MODEL 7
REMARK VINA RESULT:      -8.8      9.361     11.712
REMARK  3 active torsions:
REMARK  status: ('A' for Active; 'I' for Inactive)
REMARK    1  A    between atoms: C5_13  and  N1_7 
REMARK       I    between atoms: C6_14  and  N2_8 
REMARK    2  A    between atoms: C6_14  and  C9_17 
REMARK    3  A    between atoms: C10_18  and  C16_24 
ROOT
HETATM    1  O1  UNK     1      27.517  -9.938  39.338  1.00  0.00    -0.267 OA
HETATM    2  N1  UNK     1      30.107  -6.215  37.110  1.00  0.00    -0.378 N 
HETATM    3  N2  UNK     1      28.149  -8.167  37.965  1.00  0.00    -0.345 N 
HETATM    4  C1  UNK     1      30.256  -6.940  38.375  1.00  0.00     0.143 C 
HETATM    5  C2  UNK     1      29.010  -6.598  36.219  1.00  0.00     0.143 C 
HETATM    6  C3  UNK     1      29.565  -8.300  38.302  1.00  0.00     0.146 C 
HETATM    7  C4  UNK     1      27.808  -7.100  37.020  1.00  0.00     0.146 C 
HETATM    8  C6  UNK     1      27.230  -9.039  38.545  1.00  0.00     0.260 C 
ENDROOT
BRANCH   8   9
HETATM    9  C9  UNK     1      25.808  -8.860  38.183  1.00  0.00     0.108 A 
HETATM   10  C12 UNK     1      25.095  -8.048  38.972  1.00  0.00     0.037 A 
HETATM   11  C15 UNK     1      23.687  -7.810  38.697  1.00  0.00    -0.001 A 
HETATM   12  C17 UNK     1      23.099  -8.437  37.603  1.00  0.00     0.089 A 
HETATM   13  C18 UNK     1      22.904  -6.970  39.494  1.00  0.00     0.014 A 
HETATM   14  O2  UNK     1      23.856  -9.290  36.776  1.00  0.00    -0.274 OA
HETATM   15  C19 UNK     1      21.756  -8.250  37.285  1.00  0.00     0.038 A 
HETATM   16  C14 UNK     1      25.205  -9.538  37.014  1.00  0.00     0.304 A 
HETATM   17  O3  UNK     1      25.855 -10.282  36.288  1.00  0.00    -0.259 OA
HETATM   18  C21 UNK     1      20.982  -7.413  38.085  1.00  0.00     0.003 A 
HETATM   19  C20 UNK     1      21.554  -6.773  39.187  1.00  0.00     0.001 A 
ENDBRANCH   8   9
BRANCH   2  20
HETATM   20  C5  UNK     1      31.025  -5.232  36.745  1.00  0.00     0.030 A 
HETATM   21  C7  UNK     1      32.182  -5.547  35.994  1.00  0.00     0.045 A 
HETATM   22  C10 UNK     1      33.100  -4.562  35.628  1.00  0.00     0.050 A 
HETATM   23  C13 UNK     1      32.887  -3.236  36.003  1.00  0.00     0.016 A 
HETATM   24  C11 UNK     1      31.756  -2.893  36.743  1.00  0.00     0.003 A 
HETATM   25  C8  UNK     1      30.838  -3.878  37.110  1.00  0.00     0.029 A 
BRANCH  22  26
HETATM   26  C16 UNK     1      34.310  -4.928  34.837  1.00  0.00     0.417 C 
HETATM   27  F1  UNK     1      35.338  -5.409  35.599  1.00  0.00    -0.166 F 
HETATM   28  F2  UNK     1      34.081  -5.895  33.900  1.00  0.00    -0.166 F 
HETATM   29  F3  UNK     1      34.829  -3.869  34.150  1.00  0.00    -0.166 F 
ENDBRANCH  22  26
ENDBRANCH   2  20
TORSDOF 3
ENDMDL
MODEL 8
REMARK VINA RESULT:      -8.7      9.345     12.634
REMARK  3 active torsions:
REMARK  status: ('A' for Active; 'I' for Inactive)
REMARK    1  A    between atoms: C5_13  and  N1_7 
REMARK       I    between atoms: C6_14  and  N2_8 
REMARK    2  A    between atoms: C6_14  and  C9_17 
REMARK    3  A    between atoms: C10_18  and  C16_24 
ROOT
HETATM    1  O1  UNK     1      30.980 -10.718  39.047  1.00  0.00    -0.267 OA
HETATM    2  N1  UNK     1      26.399  -8.772  38.173  1.00  0.00    -0.378 N 
HETATM    3  N2  UNK     1      29.228  -9.365  38.327  1.00  0.00    -0.345 N 
HETATM    4  C1  UNK     1      26.880 -10.095  38.581  1.00  0.00     0.143 C 
HETATM    5  C2  UNK     1      27.387  -7.709  37.973  1.00  0.00     0.143 C 
HETATM    6  C3  UNK     1      28.261  -9.993  39.224  1.00  0.00     0.146 C 
HETATM    7  C4  UNK     1      28.714  -8.286  37.477  1.00  0.00     0.146 C 
HETATM    8  C6  UNK     1      30.547  -9.813  38.331  1.00  0.00     0.260 C 
ENDROOT
BRANCH   8   9
HETATM    9  C9  UNK     1      31.487  -9.155  37.399  1.00  0.00     0.108 A 
HETATM   10  C12 UNK     1      32.269  -8.204  37.922  1.00  0.00     0.037 A 
HETATM   11  C15 UNK     1      33.225  -7.498  37.083  1.00  0.00    -0.001 A 
HETATM   12  C17 UNK     1      33.311  -7.828  35.735  1.00  0.00     0.089 A 
HETATM   13  C18 UNK     1      34.062  -6.498  37.587  1.00  0.00     0.014 A 
HETATM   14  O2  UNK     1      32.484  -8.831  35.190  1.00  0.00    -0.274 OA
HETATM   15  C19 UNK     1      34.205  -7.190  34.879  1.00  0.00     0.038 A 
HETATM   16  C14 UNK     1      31.560  -9.523  35.968  1.00  0.00     0.304 A 
HETATM   17  O3  UNK     1      30.845 -10.394  35.484  1.00  0.00    -0.259 OA
HETATM   18  C21 UNK     1      35.035  -6.195  35.389  1.00  0.00     0.003 A 
HETATM   19  C20 UNK     1      34.965  -5.849  36.740  1.00  0.00     0.001 A 
ENDBRANCH   8   9
BRANCH   2  20
HETATM   20  C5  UNK     1      25.035  -8.524  38.042  1.00  0.00     0.030 A 
HETATM   21  C7  UNK     1      24.259  -9.171  37.052  1.00  0.00     0.045 A 
HETATM   22  C10 UNK     1      22.892  -8.922  36.923  1.00  0.00     0.050 A 
HETATM   23  C13 UNK     1      22.263  -8.019  37.779  1.00  0.00     0.016 A 
HETATM   24  C11 UNK     1      23.000  -7.365  38.766  1.00  0.00     0.003 A 
HETATM   25  C8  UNK     1      24.367  -7.613  38.896  1.00  0.00     0.029 A 
BRANCH  22  26
HETATM   26  C16 UNK     1      22.104  -9.621  35.867  1.00  0.00     0.417 C 
HETATM   27  F1  UNK     1      20.961 -10.206  36.333  1.00  0.00    -0.166 F 
HETATM   28  F2  UNK     1      21.695  -8.800  34.855  1.00  0.00    -0.166 F 
HETATM   29  F3  UNK     1      22.807 -10.624  35.263  1.00  0.00    -0.166 F 
ENDBRANCH  22  26
ENDBRANCH   2  20
TORSDOF 3
ENDMDL
MODEL 9
REMARK VINA RESULT:      -8.7      9.654     11.828
REMARK  3 active torsions:
REMARK  status: ('A' for Active; 'I' for Inactive)
REMARK    1  A    between atoms: C5_13  and  N1_7 
REMARK       I    between atoms: C6_14  and  N2_8 
REMARK    2  A    between atoms: C6_14  and  C9_17 
REMARK    3  A    between atoms: C10_18  and  C16_24 
ROOT
HETATM    1  O1  UNK     1      27.598 -10.232  38.991  1.00  0.00    -0.267 OA
HETATM    2  N1  UNK     1      30.094  -6.326  36.980  1.00  0.00    -0.378 N 
HETATM    3  N2  UNK     1      28.202  -8.396  37.693  1.00  0.00    -0.345 N 
HETATM    4  C1  UNK     1      30.221  -7.076  38.233  1.00  0.00     0.143 C 
HETATM    5  C2  UNK     1      29.061  -6.740  36.028  1.00  0.00     0.143 C 
HETATM    6  C3  UNK     1      29.605  -8.467  38.094  1.00  0.00     0.146 C 
HETATM    7  C4  UNK     1      27.850  -7.323  36.759  1.00  0.00     0.146 C 
HETATM    8  C6  UNK     1      27.303  -9.329  38.207  1.00  0.00     0.260 C 
ENDROOT
BRANCH   8   9
HETATM    9  C9  UNK     1      25.892  -9.211  37.781  1.00  0.00     0.108 A 
HETATM   10  C12 UNK     1      25.429 -10.189  36.994  1.00  0.00     0.037 A 
HETATM   11  C15 UNK     1      24.053 -10.160  36.522  1.00  0.00    -0.001 A 
HETATM   12  C17 UNK     1      23.232  -9.105  36.903  1.00  0.00     0.089 A 
HETATM   13  C18 UNK     1      23.528 -11.160  35.699  1.00  0.00     0.014 A 
HETATM   14  O2  UNK     1      23.726  -8.078  37.733  1.00  0.00    -0.274 OA
HETATM   15  C19 UNK     1      21.906  -9.019  36.486  1.00  0.00     0.038 A 
HETATM   16  C14 UNK     1      25.037  -8.078  38.200  1.00  0.00     0.304 A 
HETATM   17  O3  UNK     1      25.458  -7.180  38.921  1.00  0.00    -0.259 OA
HETATM   18  C21 UNK     1      21.390 -10.019  35.665  1.00  0.00     0.003 A 
HETATM   19  C20 UNK     1      22.199 -11.088  35.272  1.00  0.00     0.001 A 
ENDBRANCH   8   9
BRANCH   2  20
HETATM   20  C5  UNK     1      30.976  -5.289  36.683  1.00  0.00     0.030 A 
HETATM   21  C7  UNK     1      32.153  -5.515  35.931  1.00  0.00     0.045 A 
HETATM   22  C10 UNK     1      33.035  -4.476  35.634  1.00  0.00     0.050 A 
HETATM   23  C13 UNK     1      32.766  -3.183  36.081  1.00  0.00     0.016 A 
HETATM   24  C11 UNK     1      31.614  -2.927  36.823  1.00  0.00     0.003 A 
HETATM   25  C8  UNK     1      30.732  -3.966  37.121  1.00  0.00     0.029 A 
BRANCH  22  26
HETATM   26  C16 UNK     1      34.268  -4.749  34.840  1.00  0.00     0.417 C 
HETATM   27  F1  UNK     1      34.086  -5.667  33.844  1.00  0.00    -0.166 F 
HETATM   28  F2  UNK     1      34.774  -3.644  34.216  1.00  0.00    -0.166 F 
HETATM   29  F3  UNK     1      35.288  -5.237  35.605  1.00  0.00    -0.166 F 
ENDBRANCH  22  26
ENDBRANCH   2  20
TORSDOF 3
ENDMDL
MODEL 10
REMARK VINA RESULT:      -8.6     27.563     29.705
REMARK  3 active torsions:
REMARK  status: ('A' for Active; 'I' for Inactive)
REMARK    1  A    between atoms: C5_13  and  N1_7 
REMARK       I    between atoms: C6_14  and  N2_8 
REMARK    2  A    between atoms: C6_14  and  C9_17 
REMARK    3  A    between atoms: C10_18  and  C16_24 
ROOT
HETATM    1  O1  UNK     1      17.471   7.981  10.278  1.00  0.00    -0.267 OA
HETATM    2  N1  UNK     1      12.836   7.480   8.329  1.00  0.00    -0.378 N 
HETATM    3  N2  UNK     1      15.354   8.411   9.411  1.00  0.00    -0.345 N 
HETATM    4  C1  UNK     1      13.999   6.594   8.425  1.00  0.00     0.143 C 
HETATM    5  C2  UNK     1      12.936   8.817   8.919  1.00  0.00     0.143 C 
HETATM    6  C3  UNK     1      14.915   7.026   9.568  1.00  0.00     0.146 C 
HETATM    7  C4  UNK     1      14.372   9.339   8.844  1.00  0.00     0.146 C 
HETATM    8  C6  UNK     1      16.646   8.761   9.800  1.00  0.00     0.260 C 
ENDROOT
BRANCH   8   9
HETATM    9  C9  UNK     1      17.048  10.171   9.612  1.00  0.00     0.108 A 
HETATM   10  C12 UNK     1      17.859  10.422   8.578  1.00  0.00     0.037 A 
HETATM   11  C15 UNK     1      18.310  11.779   8.313  1.00  0.00    -0.001 A 
HETATM   12  C17 UNK     1      17.886  12.805   9.150  1.00  0.00     0.089 A 
HETATM   13  C18 UNK     1      19.156  12.087   7.244  1.00  0.00     0.014 A 
HETATM   14  O2  UNK     1      17.032  12.534  10.238  1.00  0.00    -0.274 OA
HETATM   15  C19 UNK     1      18.281  14.126   8.950  1.00  0.00     0.038 A 
HETATM   16  C14 UNK     1      16.583  11.246  10.517  1.00  0.00     0.304 A 
HETATM   17  O3  UNK     1      15.841  11.021  11.466  1.00  0.00    -0.259 OA
HETATM   18  C21 UNK     1      19.125  14.424   7.884  1.00  0.00     0.003 A 
HETATM   19  C20 UNK     1      19.562  13.408   7.031  1.00  0.00     0.001 A 
ENDBRANCH   8   9
BRANCH   2  20
HETATM   20  C5  UNK     1      11.652   7.034   7.747  1.00  0.00     0.030 A 
HETATM   21  C7  UNK     1      10.456   6.930   8.495  1.00  0.00     0.045 A 
HETATM   22  C10 UNK     1       9.270   6.485   7.910  1.00  0.00     0.050 A 
HETATM   23  C13 UNK     1       9.248   6.130   6.562  1.00  0.00     0.016 A 
HETATM   24  C11 UNK     1      10.410   6.222   5.797  1.00  0.00     0.003 A 
HETATM   25  C8  UNK     1      11.596   6.667   6.381  1.00  0.00     0.029 A 
BRANCH  22  26
HETATM   26  C16 UNK     1       8.027   6.386   8.728  1.00  0.00     0.417 C 
HETATM   27  F1  UNK     1       8.253   6.421  10.076  1.00  0.00    -0.166 F 
HETATM   28  F2  UNK     1       7.134   7.391   8.492  1.00  0.00    -0.166 F 
HETATM   29  F3  UNK     1       7.341   5.227   8.503  1.00  0.00    -0.166 F 
ENDBRANCH  22  26
ENDBRANCH   2  20
TORSDOF 3
ENDMDL
