MODEL 1
REMARK VINA RESULT:      -9.0      0.000      0.000
REMARK  3 active torsions:
REMARK  status: ('A' for Active; 'I' for Inactive)
REMARK    1  A    between atoms: C12_18  and  O2_2 
REMARK    2  A    between atoms: C15_21  and  O3_3 
REMARK    3  A    between atoms: C1_7  and  C2_8 
ROOT
HETATM    1  O1  UNK     1      19.348   1.167  15.569  1.00  0.00    -0.274 OA
HETATM    2  O4  UNK     1      19.380  -0.323  13.840  1.00  0.00    -0.259 OA
HETATM    3  C2  UNK     1      18.939  -1.212  16.003  1.00  0.00     0.086 A 
HETATM    4  C5  UNK     1      18.882   0.396  17.825  1.00  0.00     0.002 A 
HETATM    5  C6  UNK     1      18.772  -0.960  17.310  1.00  0.00     0.035 A 
HETATM    6  C7  UNK     1      19.171   1.429  16.940  1.00  0.00     0.089 A 
HETATM    7  C9  UNK     1      19.238  -0.117  15.041  1.00  0.00     0.302 A 
HETATM    8  C11 UNK     1      18.713   0.695  19.178  1.00  0.00     0.051 A 
HETATM    9  C13 UNK     1      19.292   2.750  17.369  1.00  0.00     0.041 A 
HETATM   10  C15 UNK     1      18.830   2.015  19.624  1.00  0.00     0.069 A 
HETATM   11  C16 UNK     1      19.120   3.040  18.721  1.00  0.00     0.039 A 
ENDROOT
BRANCH   3  12
HETATM   12  C1  UNK     1      18.830  -2.558  15.532  1.00  0.00     0.145 A 
HETATM   13  N1  UNK     1      19.944  -3.118  14.970  1.00  0.00    -0.338 N 
HETATM   14  C3  UNK     1      19.625  -4.396  14.590  1.00  0.00     0.065 A 
HETATM   15  H1  UNK     1      20.852  -2.686  14.858  1.00  0.00     0.167 HD
HETATM   16  C4  UNK     1      18.290  -4.542  14.956  1.00  0.00     0.086 A 
HETATM   17  C8  UNK     1      20.366  -5.406  13.976  1.00  0.00     0.068 A 
HETATM   18  C10 UNK     1      17.639  -5.762  14.702  1.00  0.00     0.037 A 
HETATM   19  N2  UNK     1      17.813  -3.390  15.539  1.00  0.00    -0.228 NA
HETATM   20  C14 UNK     1      18.364  -6.789  14.087  1.00  0.00     0.039 A 
HETATM   21  C12 UNK     1      19.704  -6.613  13.731  1.00  0.00     0.070 A 
BRANCH  21  22
HETATM   22  O2  UNK     1      20.379  -7.637  13.134  1.00  0.00    -0.356 OA
HETATM   23  C17 UNK     1      19.620  -8.517  12.308  1.00  0.00     0.210 C 
ENDBRANCH  21  22
ENDBRANCH   3  12
BRANCH  10  24
HETATM   24  O3  UNK     1      18.663   2.303  20.944  1.00  0.00    -0.356 OA
HETATM   25  C18 UNK     1      19.780   2.084  21.802  1.00  0.00     0.210 C 
ENDBRANCH  10  24
TORSDOF 3
ENDMDL
MODEL 2
REMARK VINA RESULT:      -9.0      2.978      8.606
REMARK  3 active torsions:
REMARK  status: ('A' for Active; 'I' for Inactive)
REMARK    1  A    between atoms: C12_18  and  O2_2 
REMARK    2  A    between atoms: C15_21  and  O3_3 
REMARK    3  A    between atoms: C1_7  and  C2_8 
ROOT
HETATM    1  O1  UNK     1      18.373  -3.331  13.435  1.00  0.00    -0.274 OA
HETATM    2  O4  UNK     1      17.545  -2.453  15.372  1.00  0.00    -0.259 OA
HETATM    3  C2  UNK     1      19.228  -1.186  14.262  1.00  0.00     0.086 A 
HETATM    4  C5  UNK     1      20.074  -2.127  12.187  1.00  0.00     0.002 A 
HETATM    5  C6  UNK     1      20.050  -1.090  13.206  1.00  0.00     0.035 A 
HETATM    6  C7  UNK     1      19.234  -3.227  12.327  1.00  0.00     0.089 A 
HETATM    7  C9  UNK     1      18.316  -2.351  14.423  1.00  0.00     0.302 A 
HETATM    8  C11 UNK     1      20.915  -2.058  11.074  1.00  0.00     0.051 A 
HETATM    9  C13 UNK     1      19.211  -4.256  11.387  1.00  0.00     0.041 A 
HETATM   10  C15 UNK     1      20.902  -3.082  10.122  1.00  0.00     0.069 A 
HETATM   11  C16 UNK     1      20.052  -4.179  10.279  1.00  0.00     0.039 A 
ENDROOT
BRANCH   3  12
HETATM   12  C1  UNK     1      19.234  -0.151  15.250  1.00  0.00     0.145 A 
HETATM   13  N1  UNK     1      19.089  -0.530  16.556  1.00  0.00    -0.338 N 
HETATM   14  C3  UNK     1      19.122   0.603  17.326  1.00  0.00     0.065 A 
HETATM   15  H1  UNK     1      18.986  -1.473  16.908  1.00  0.00     0.167 HD
HETATM   16  C4  UNK     1      19.291   1.639  16.412  1.00  0.00     0.086 A 
HETATM   17  C8  UNK     1      19.021   0.806  18.704  1.00  0.00     0.068 A 
HETATM   18  C10 UNK     1      19.367   2.961  16.880  1.00  0.00     0.037 A 
HETATM   19  N2  UNK     1      19.359   1.151  15.127  1.00  0.00    -0.228 NA
HETATM   20  C14 UNK     1      19.268   3.188  18.259  1.00  0.00     0.039 A 
HETATM   21  C12 UNK     1      19.098   2.128  19.153  1.00  0.00     0.070 A 
BRANCH  21  22
HETATM   22  O2  UNK     1      19.007   2.386  20.489  1.00  0.00    -0.356 OA
HETATM   23  C17 UNK     1      19.639   1.461  21.370  1.00  0.00     0.210 C 
ENDBRANCH  21  22
ENDBRANCH   3  12
BRANCH  10  24
HETATM   24  O3  UNK     1      21.722  -3.011   9.038  1.00  0.00    -0.356 OA
HETATM   25  C18 UNK     1      22.242  -4.241   8.537  1.00  0.00     0.210 C 
ENDBRANCH  10  24
TORSDOF 3
ENDMDL
MODEL 3
REMARK VINA RESULT:      -9.0     13.775     18.046
REMARK  3 active torsions:
REMARK  status: ('A' for Active; 'I' for Inactive)
REMARK    1  A    between atoms: C12_18  and  O2_2 
REMARK    2  A    between atoms: C15_21  and  O3_3 
REMARK    3  A    between atoms: C1_7  and  C2_8 
ROOT
HETATM    1  O1  UNK     1      18.934   1.710  28.630  1.00  0.00    -0.274 OA
HETATM    2  O4  UNK     1      18.229   3.881  28.657  1.00  0.00    -0.259 OA
HETATM    3  C2  UNK     1      18.741   2.901  30.766  1.00  0.00     0.086 A 
HETATM    4  C5  UNK     1      19.515   0.597  30.709  1.00  0.00     0.002 A 
HETATM    5  C6  UNK     1      19.170   1.815  31.426  1.00  0.00     0.035 A 
HETATM    6  C7  UNK     1      19.386   0.573  29.325  1.00  0.00     0.089 A 
HETATM    7  C9  UNK     1      18.606   2.895  29.284  1.00  0.00     0.302 A 
HETATM    8  C11 UNK     1      19.967  -0.550  31.364  1.00  0.00     0.051 A 
HETATM    9  C13 UNK     1      19.697  -0.563  28.579  1.00  0.00     0.041 A 
HETATM   10  C15 UNK     1      20.284  -1.697  30.630  1.00  0.00     0.069 A 
HETATM   11  C16 UNK     1      20.149  -1.703  29.240  1.00  0.00     0.039 A 
ENDROOT
BRANCH   3  12
HETATM   12  C1  UNK     1      18.404   4.079  31.502  1.00  0.00     0.145 A 
HETATM   13  N1  UNK     1      19.387   5.016  31.669  1.00  0.00    -0.338 N 
HETATM   14  C3  UNK     1      18.858   6.052  32.395  1.00  0.00     0.065 A 
HETATM   15  H1  UNK     1      20.334   4.974  31.316  1.00  0.00     0.167 HD
HETATM   16  C4  UNK     1      17.542   5.670  32.635  1.00  0.00     0.086 A 
HETATM   17  C8  UNK     1      19.403   7.254  32.850  1.00  0.00     0.068 A 
HETATM   18  C10 UNK     1      16.703   6.526  33.370  1.00  0.00     0.037 A 
HETATM   19  N2  UNK     1      17.278   4.442  32.073  1.00  0.00    -0.228 NA
HETATM   20  C14 UNK     1      17.229   7.737  33.836  1.00  0.00     0.039 A 
HETATM   21  C12 UNK     1      18.555   8.093  33.579  1.00  0.00     0.070 A 
BRANCH  21  22
HETATM   22  O2  UNK     1      19.033   9.282  34.048  1.00  0.00    -0.356 OA
HETATM   23  C17 UNK     1      20.381   9.300  34.508  1.00  0.00     0.210 C 
ENDBRANCH  21  22
ENDBRANCH   3  12
BRANCH  10  24
HETATM   24  O3  UNK     1      20.726  -2.813  31.271  1.00  0.00    -0.356 OA
HETATM   25  C18 UNK     1      21.006  -2.693  32.664  1.00  0.00     0.210 C 
ENDBRANCH  10  24
TORSDOF 3
ENDMDL
MODEL 4
REMARK VINA RESULT:      -8.5      1.966      8.514
REMARK  3 active torsions:
REMARK  status: ('A' for Active; 'I' for Inactive)
REMARK    1  A    between atoms: C12_18  and  O2_2 
REMARK    2  A    between atoms: C15_21  and  O3_3 
REMARK    3  A    between atoms: C1_7  and  C2_8 
ROOT
HETATM    1  O1  UNK     1      17.186  -4.121  15.353  1.00  0.00    -0.274 OA
HETATM    2  O4  UNK     1      16.407  -2.528  16.790  1.00  0.00    -0.259 OA
HETATM    3  C2  UNK     1      18.576  -2.169  15.878  1.00  0.00     0.086 A 
HETATM    4  C5  UNK     1      19.374  -3.865  14.330  1.00  0.00     0.002 A 
HETATM    5  C6  UNK     1      19.541  -2.619  15.061  1.00  0.00     0.035 A 
HETATM    6  C7  UNK     1      18.199  -4.589  14.496  1.00  0.00     0.089 A 
HETATM    7  C9  UNK     1      17.308  -2.927  16.059  1.00  0.00     0.302 A 
HETATM    8  C11 UNK     1      20.356  -4.361  13.470  1.00  0.00     0.051 A 
HETATM    9  C13 UNK     1      17.978  -5.792  13.826  1.00  0.00     0.041 A 
HETATM   10  C15 UNK     1      20.149  -5.565  12.790  1.00  0.00     0.069 A 
HETATM   11  C16 UNK     1      18.962  -6.279  12.969  1.00  0.00     0.039 A 
ENDROOT
BRANCH   3  12
HETATM   12  C1  UNK     1      18.776  -0.943  16.587  1.00  0.00     0.145 A 
HETATM   13  N1  UNK     1      18.753  -0.998  17.953  1.00  0.00    -0.338 N 
HETATM   14  C3  UNK     1      18.961   0.272  18.427  1.00  0.00     0.065 A 
HETATM   15  H1  UNK     1      18.619  -1.820  18.527  1.00  0.00     0.167 HD
HETATM   16  C4  UNK     1      19.103   1.049  17.281  1.00  0.00     0.086 A 
HETATM   17  C8  UNK     1      19.034   0.791  19.720  1.00  0.00     0.068 A 
HETATM   18  C10 UNK     1      19.334   2.429  17.414  1.00  0.00     0.037 A 
HETATM   19  N2  UNK     1      18.985   0.278  16.148  1.00  0.00    -0.228 NA
HETATM   20  C14 UNK     1      19.411   2.972  18.702  1.00  0.00     0.039 A 
HETATM   21  C12 UNK     1      19.265   2.166  19.834  1.00  0.00     0.070 A 
BRANCH  21  22
HETATM   22  O2  UNK     1      19.347   2.729  21.073  1.00  0.00    -0.356 OA
HETATM   23  C17 UNK     1      20.228   2.110  22.007  1.00  0.00     0.210 C 
ENDBRANCH  21  22
ENDBRANCH   3  12
BRANCH  10  24
HETATM   24  O3  UNK     1      21.108  -6.045  11.952  1.00  0.00    -0.356 OA
HETATM   25  C18 UNK     1      21.406  -7.437  12.037  1.00  0.00     0.210 C 
ENDBRANCH  10  24
TORSDOF 3
ENDMDL
MODEL 5
REMARK VINA RESULT:      -8.5     15.822     19.954
REMARK  3 active torsions:
REMARK  status: ('A' for Active; 'I' for Inactive)
REMARK    1  A    between atoms: C12_18  and  O2_2 
REMARK    2  A    between atoms: C15_21  and  O3_3 
REMARK    3  A    between atoms: C1_7  and  C2_8 
ROOT
HETATM    1  O1  UNK     1      18.501  -0.870  34.699  1.00  0.00    -0.274 OA
HETATM    2  O4  UNK     1      18.277  -1.811  36.766  1.00  0.00    -0.259 OA
HETATM    3  C2  UNK     1      19.767  -2.894  35.258  1.00  0.00     0.086 A 
HETATM    4  C5  UNK     1      20.011  -1.858  33.073  1.00  0.00     0.002 A 
HETATM    5  C6  UNK     1      20.334  -2.893  34.042  1.00  0.00     0.035 A 
HETATM    6  C7  UNK     1      19.098  -0.870  33.425  1.00  0.00     0.089 A 
HETATM    7  C9  UNK     1      18.796  -1.839  35.654  1.00  0.00     0.302 A 
HETATM    8  C11 UNK     1      20.583  -1.825  31.799  1.00  0.00     0.051 A 
HETATM    9  C13 UNK     1      18.744   0.149  32.541  1.00  0.00     0.041 A 
HETATM   10  C15 UNK     1      20.238  -0.809  30.903  1.00  0.00     0.069 A 
HETATM   11  C16 UNK     1      19.320   0.175  31.273  1.00  0.00     0.039 A 
ENDROOT
BRANCH   3  12
HETATM   12  C1  UNK     1      20.103  -3.931  36.185  1.00  0.00     0.145 A 
HETATM   13  N1  UNK     1      19.181  -4.923  36.376  1.00  0.00    -0.338 N 
HETATM   14  C3  UNK     1      19.697  -5.803  37.293  1.00  0.00     0.065 A 
HETATM   15  H1  UNK     1      18.282  -5.013  35.923  1.00  0.00     0.167 HD
HETATM   16  C4  UNK     1      20.944  -5.275  37.615  1.00  0.00     0.086 A 
HETATM   17  C8  UNK     1      19.195  -6.979  37.851  1.00  0.00     0.068 A 
HETATM   18  C10 UNK     1      21.753  -5.947  38.547  1.00  0.00     0.037 A 
HETATM   19  N2  UNK     1      21.179  -4.112  36.917  1.00  0.00    -0.228 NA
HETATM   20  C14 UNK     1      21.269  -7.129  39.120  1.00  0.00     0.039 A 
HETATM   21  C12 UNK     1      20.013  -7.635  38.777  1.00  0.00     0.070 A 
BRANCH  21  22
HETATM   22  O2  UNK     1      19.574  -8.790  39.354  1.00  0.00    -0.356 OA
HETATM   23  C17 UNK     1      19.295  -9.883  38.482  1.00  0.00     0.210 C 
ENDBRANCH  21  22
ENDBRANCH   3  12
BRANCH  10  24
HETATM   24  O3  UNK     1      20.799  -0.780  29.663  1.00  0.00    -0.356 OA
HETATM   25  C18 UNK     1      19.912  -0.660  28.553  1.00  0.00     0.210 C 
ENDBRANCH  10  24
TORSDOF 3
ENDMDL
MODEL 6
REMARK VINA RESULT:      -8.3     16.253     20.301
REMARK  3 active torsions:
REMARK  status: ('A' for Active; 'I' for Inactive)
REMARK    1  A    between atoms: C12_18  and  O2_2 
REMARK    2  A    between atoms: C15_21  and  O3_3 
REMARK    3  A    between atoms: C1_7  and  C2_8 
ROOT
HETATM    1  O1  UNK     1      18.369  -0.137  36.918  1.00  0.00    -0.274 OA
HETATM    2  O4  UNK     1      18.713  -1.757  38.489  1.00  0.00    -0.259 OA
HETATM    3  C2  UNK     1      19.118  -2.367  36.224  1.00  0.00     0.086 A 
HETATM    4  C5  UNK     1      18.772  -0.618  34.571  1.00  0.00     0.002 A 
HETATM    5  C6  UNK     1      19.138  -1.976  34.940  1.00  0.00     0.035 A 
HETATM    6  C7  UNK     1      18.392   0.271  35.572  1.00  0.00     0.089 A 
HETATM    7  C9  UNK     1      18.724  -1.426  37.307  1.00  0.00     0.302 A 
HETATM    8  C11 UNK     1      18.783  -0.177  33.246  1.00  0.00     0.051 A 
HETATM    9  C13 UNK     1      18.027   1.585  35.285  1.00  0.00     0.041 A 
HETATM   10  C15 UNK     1      18.420   1.139  32.943  1.00  0.00     0.069 A 
HETATM   11  C16 UNK     1      18.043   2.018  33.961  1.00  0.00     0.039 A 
ENDROOT
BRANCH   3  12
HETATM   12  C1  UNK     1      19.478  -3.712  36.550  1.00  0.00     0.145 A 
HETATM   13  N1  UNK     1      18.460  -4.602  36.754  1.00  0.00    -0.338 N 
HETATM   14  C3  UNK     1      19.020  -5.817  37.053  1.00  0.00     0.065 A 
HETATM   15  H1  UNK     1      17.468  -4.416  36.689  1.00  0.00     0.167 HD
HETATM   16  C4  UNK     1      20.392  -5.586  37.010  1.00  0.00     0.086 A 
HETATM   17  C8  UNK     1      18.461  -7.062  37.347  1.00  0.00     0.068 A 
HETATM   18  C10 UNK     1      21.274  -6.647  37.274  1.00  0.00     0.037 A 
HETATM   19  N2  UNK     1      20.658  -4.273  36.697  1.00  0.00    -0.228 NA
HETATM   20  C14 UNK     1      20.735  -7.905  37.572  1.00  0.00     0.039 A 
HETATM   21  C12 UNK     1      19.353  -8.107  37.607  1.00  0.00     0.070 A 
BRANCH  21  22
HETATM   22  O2  UNK     1      18.864  -9.346  37.900  1.00  0.00    -0.356 OA
HETATM   23  C17 UNK     1      19.628 -10.464  37.455  1.00  0.00     0.210 C 
ENDBRANCH  21  22
ENDBRANCH   3  12
BRANCH  10  24
HETATM   24  O3  UNK     1      18.434   1.566  31.651  1.00  0.00    -0.356 OA
HETATM   25  C18 UNK     1      19.295   0.875  30.749  1.00  0.00     0.210 C 
ENDBRANCH  10  24
TORSDOF 3
ENDMDL
MODEL 7
REMARK VINA RESULT:      -8.3     17.089     19.144
REMARK  3 active torsions:
REMARK  status: ('A' for Active; 'I' for Inactive)
REMARK    1  A    between atoms: C12_18  and  O2_2 
REMARK    2  A    between atoms: C15_21  and  O3_3 
REMARK    3  A    between atoms: C1_7  and  C2_8 
ROOT
HETATM    1  O1  UNK     1      18.329   3.376  31.444  1.00  0.00    -0.274 OA
HETATM    2  O4  UNK     1      18.371   1.153  31.957  1.00  0.00    -0.259 OA
HETATM    3  C2  UNK     1      18.246   2.667  33.790  1.00  0.00     0.086 A 
HETATM    4  C5  UNK     1      18.175   5.028  33.218  1.00  0.00     0.002 A 
HETATM    5  C6  UNK     1      18.177   3.946  34.189  1.00  0.00     0.035 A 
HETATM    6  C7  UNK     1      18.254   4.717  31.865  1.00  0.00     0.089 A 
HETATM    7  C9  UNK     1      18.321   2.316  32.346  1.00  0.00     0.302 A 
HETATM    8  C11 UNK     1      18.101   6.370  33.598  1.00  0.00     0.051 A 
HETATM    9  C13 UNK     1      18.258   5.707  30.883  1.00  0.00     0.041 A 
HETATM   10  C15 UNK     1      18.104   7.374  32.625  1.00  0.00     0.069 A 
HETATM   11  C16 UNK     1      18.183   7.043  31.271  1.00  0.00     0.039 A 
ENDROOT
BRANCH   3  12
HETATM   12  C1  UNK     1      18.252   1.627  34.772  1.00  0.00     0.145 A 
HETATM   13  N1  UNK     1      19.027   0.529  34.518  1.00  0.00    -0.338 N 
HETATM   14  C3  UNK     1      18.888  -0.334  35.574  1.00  0.00     0.065 A 
HETATM   15  H1  UNK     1      19.612   0.371  33.708  1.00  0.00     0.167 HD
HETATM   16  C4  UNK     1      18.008   0.313  36.437  1.00  0.00     0.086 A 
HETATM   17  C8  UNK     1      19.440  -1.588  35.841  1.00  0.00     0.068 A 
HETATM   18  C10 UNK     1      17.646  -0.313  37.642  1.00  0.00     0.037 A 
HETATM   19  N2  UNK     1      17.623   1.529  35.922  1.00  0.00    -0.228 NA
HETATM   20  C14 UNK     1      18.188  -1.571  37.930  1.00  0.00     0.039 A 
HETATM   21  C12 UNK     1      19.069  -2.196  37.044  1.00  0.00     0.070 A 
BRANCH  21  22
HETATM   22  O2  UNK     1      19.579  -3.422  37.358  1.00  0.00    -0.356 OA
HETATM   23  C17 UNK     1      19.851  -4.305  36.274  1.00  0.00     0.210 C 
ENDBRANCH  21  22
ENDBRANCH   3  12
BRANCH  10  24
HETATM   24  O3  UNK     1      18.031   8.681  32.999  1.00  0.00    -0.356 OA
HETATM   25  C18 UNK     1      16.929   9.060  33.821  1.00  0.00     0.210 C 
ENDBRANCH  10  24
TORSDOF 3
ENDMDL
MODEL 8
REMARK VINA RESULT:      -8.3     15.873     20.330
REMARK  3 active torsions:
REMARK  status: ('A' for Active; 'I' for Inactive)
REMARK    1  A    between atoms: C12_18  and  O2_2 
REMARK    2  A    between atoms: C15_21  and  O3_3 
REMARK    3  A    between atoms: C1_7  and  C2_8 
ROOT
HETATM    1  O1  UNK     1      20.517  -4.428  38.066  1.00  0.00    -0.274 OA
HETATM    2  O4  UNK     1      20.852  -2.366  37.146  1.00  0.00    -0.259 OA
HETATM    3  C2  UNK     1      20.119  -4.084  35.670  1.00  0.00     0.086 A 
HETATM    4  C5  UNK     1      19.743  -6.265  36.677  1.00  0.00     0.002 A 
HETATM    5  C6  UNK     1      19.752  -5.367  35.533  1.00  0.00     0.035 A 
HETATM    6  C7  UNK     1      20.130  -5.773  37.919  1.00  0.00     0.089 A 
HETATM    7  C9  UNK     1      20.526  -3.540  36.994  1.00  0.00     0.302 A 
HETATM    8  C11 UNK     1      19.364  -7.605  36.570  1.00  0.00     0.051 A 
HETATM    9  C13 UNK     1      20.146  -6.581  39.055  1.00  0.00     0.041 A 
HETATM   10  C15 UNK     1      19.375  -8.427  37.701  1.00  0.00     0.069 A 
HETATM   11  C16 UNK     1      19.765  -7.916  38.940  1.00  0.00     0.039 A 
ENDROOT
BRANCH   3  12
HETATM   12  C1  UNK     1      20.122  -3.231  34.522  1.00  0.00     0.145 A 
HETATM   13  N1  UNK     1      19.229  -2.195  34.509  1.00  0.00    -0.338 N 
HETATM   14  C3  UNK     1      19.398  -1.512  33.332  1.00  0.00     0.065 A 
HETATM   15  H1  UNK     1      18.565  -1.955  35.233  1.00  0.00     0.167 HD
HETATM   16  C4  UNK     1      20.418  -2.197  32.678  1.00  0.00     0.086 A 
HETATM   17  C8  UNK     1      18.764  -0.388  32.800  1.00  0.00     0.068 A 
HETATM   18  C10 UNK     1      20.846  -1.747  31.417  1.00  0.00     0.037 A 
HETATM   19  N2  UNK     1      20.856  -3.261  33.432  1.00  0.00    -0.228 NA
HETATM   20  C14 UNK     1      20.224  -0.621  30.864  1.00  0.00     0.039 A 
HETATM   21  C12 UNK     1      19.202   0.045  31.544  1.00  0.00     0.070 A 
BRANCH  21  22
HETATM   22  O2  UNK     1      18.620   1.139  30.975  1.00  0.00    -0.356 OA
HETATM   23  C17 UNK     1      18.995   1.446  29.634  1.00  0.00     0.210 C 
ENDBRANCH  21  22
ENDBRANCH   3  12
BRANCH  10  24
HETATM   24  O3  UNK     1      19.004  -9.733  37.593  1.00  0.00    -0.356 OA
HETATM   25  C18 UNK     1      19.357 -10.598  38.670  1.00  0.00     0.210 C 
ENDBRANCH  10  24
TORSDOF 3
ENDMDL
MODEL 9
REMARK VINA RESULT:      -8.2     17.640     20.694
REMARK  3 active torsions:
REMARK  status: ('A' for Active; 'I' for Inactive)
REMARK    1  A    between atoms: C12_18  and  O2_2 
REMARK    2  A    between atoms: C15_21  and  O3_3 
REMARK    3  A    between atoms: C1_7  and  C2_8 
ROOT
HETATM    1  O1  UNK     1      18.134   1.695  32.505  1.00  0.00    -0.274 OA
HETATM    2  O4  UNK     1      18.105   3.720  31.452  1.00  0.00    -0.259 OA
HETATM    3  C2  UNK     1      18.468   3.749  33.805  1.00  0.00     0.086 A 
HETATM    4  C5  UNK     1      18.521   1.579  34.901  1.00  0.00     0.002 A 
HETATM    5  C6  UNK     1      18.608   3.031  34.929  1.00  0.00     0.035 A 
HETATM    6  C7  UNK     1      18.283   0.945  33.686  1.00  0.00     0.089 A 
HETATM    7  C9  UNK     1      18.222   3.085  32.496  1.00  0.00     0.302 A 
HETATM    8  C11 UNK     1      18.665   0.801  36.051  1.00  0.00     0.051 A 
HETATM    9  C13 UNK     1      18.187  -0.443  33.590  1.00  0.00     0.041 A 
HETATM   10  C15 UNK     1      18.571  -0.591  35.971  1.00  0.00     0.069 A 
HETATM   11  C16 UNK     1      18.332  -1.212  34.743  1.00  0.00     0.039 A 
ENDROOT
BRANCH   3  12
HETATM   12  C1  UNK     1      18.552   5.175  33.870  1.00  0.00     0.145 A 
HETATM   13  N1  UNK     1      17.405   5.882  33.638  1.00  0.00    -0.338 N 
HETATM   14  C3  UNK     1      17.706   7.215  33.748  1.00  0.00     0.065 A 
HETATM   15  H1  UNK     1      16.490   5.506  33.432  1.00  0.00     0.167 HD
HETATM   16  C4  UNK     1      19.064   7.240  34.051  1.00  0.00     0.086 A 
HETATM   17  C8  UNK     1      16.931   8.368  33.612  1.00  0.00     0.068 A 
HETATM   18  C10 UNK     1      19.704   8.478  34.234  1.00  0.00     0.037 A 
HETATM   19  N2  UNK     1      19.573   5.963  34.123  1.00  0.00    -0.228 NA
HETATM   20  C14 UNK     1      18.944   9.647  34.102  1.00  0.00     0.039 A 
HETATM   21  C12 UNK     1      17.582   9.591  33.797  1.00  0.00     0.070 A 
BRANCH  21  22
HETATM   22  O2  UNK     1      16.874  10.750  33.677  1.00  0.00    -0.356 OA
HETATM   23  C17 UNK     1      17.482  11.934  34.186  1.00  0.00     0.210 C 
ENDBRANCH  21  22
ENDBRANCH   3  12
BRANCH  10  24
HETATM   24  O3  UNK     1      18.713  -1.347  37.095  1.00  0.00    -0.356 OA
HETATM   25  C18 UNK     1      19.282  -2.644  36.937  1.00  0.00     0.210 C 
ENDBRANCH  10  24
TORSDOF 3
ENDMDL
MODEL 10
REMARK VINA RESULT:      -8.2     20.033     22.265
REMARK  3 active torsions:
REMARK  status: ('A' for Active; 'I' for Inactive)
REMARK    1  A    between atoms: C12_18  and  O2_2 
REMARK    2  A    between atoms: C15_21  and  O3_3 
REMARK    3  A    between atoms: C1_7  and  C2_8 
ROOT
HETATM    1  O1  UNK     1      18.614  -8.312  36.837  1.00  0.00    -0.274 OA
HETATM    2  O4  UNK     1      17.275  -6.464  36.817  1.00  0.00    -0.259 OA
HETATM    3  C2  UNK     1      19.596  -6.101  36.433  1.00  0.00     0.086 A 
HETATM    4  C5  UNK     1      20.998  -8.087  36.431  1.00  0.00     0.002 A 
HETATM    5  C6  UNK     1      20.813  -6.650  36.303  1.00  0.00     0.035 A 
HETATM    6  C7  UNK     1      19.892  -8.885  36.699  1.00  0.00     0.089 A 
HETATM    7  C9  UNK     1      18.400  -6.942  36.709  1.00  0.00     0.302 A 
HETATM    8  C11 UNK     1      22.250  -8.691  36.300  1.00  0.00     0.051 A 
HETATM    9  C13 UNK     1      20.001 -10.269  36.835  1.00  0.00     0.041 A 
HETATM   10  C15 UNK     1      22.376 -10.078  36.434  1.00  0.00     0.069 A 
HETATM   11  C16 UNK     1      21.253 -10.864  36.702  1.00  0.00     0.039 A 
ENDROOT
BRANCH   3  12
HETATM   12  C1  UNK     1      19.451  -4.684  36.307  1.00  0.00     0.145 A 
HETATM   13  N1  UNK     1      18.354  -4.112  36.890  1.00  0.00    -0.338 N 
HETATM   14  C3  UNK     1      18.409  -2.763  36.651  1.00  0.00     0.065 A 
HETATM   15  H1  UNK     1      17.629  -4.583  37.415  1.00  0.00     0.167 HD
HETATM   16  C4  UNK     1      19.576  -2.590  35.913  1.00  0.00     0.086 A 
HETATM   17  C8  UNK     1      17.563  -1.711  37.007  1.00  0.00     0.068 A 
HETATM   18  C10 UNK     1      19.937  -1.297  35.496  1.00  0.00     0.037 A 
HETATM   19  N2  UNK     1      20.210  -3.794  35.709  1.00  0.00    -0.228 NA
HETATM   20  C14 UNK     1      19.103  -0.227  35.842  1.00  0.00     0.039 A 
HETATM   21  C12 UNK     1      17.938  -0.432  36.584  1.00  0.00     0.070 A 
BRANCH  21  22
HETATM   22  O2  UNK     1      17.150   0.634  36.904  1.00  0.00    -0.356 OA
HETATM   23  C17 UNK     1      17.499   1.368  38.075  1.00  0.00     0.210 C 
ENDBRANCH  21  22
ENDBRANCH   3  12
BRANCH  10  24
HETATM   24  O3  UNK     1      23.598 -10.664  36.304  1.00  0.00    -0.356 OA
HETATM   25  C18 UNK     1      23.635 -11.963  35.720  1.00  0.00     0.210 C 
ENDBRANCH  10  24
TORSDOF 3
ENDMDL
