MODEL 1
REMARK VINA RESULT:     -10.0      0.000      0.000
REMARK  6 active torsions:
REMARK  status: ('A' for Active; 'I' for Inactive)
REMARK    1  A    between atoms: C5_12  and  N1_5 
REMARK    2  A    between atoms: C6_13  and  N2_6 
REMARK    3  A    between atoms: C18_25  and  N3_7 
REMARK       I    between atoms: C9_16  and  N3_7 
REMARK    4  A    between atoms: C5_12  and  C7_14 
REMARK    5  A    between atoms: C6_13  and  C9_16 
REMARK    6  A    between atoms: C13_20  and  C17_24 
ROOT
HETATM    1  N1  UNK     1      19.196  -3.158  36.155  1.00  0.00     0.096 N 
HETATM    2  N2  UNK     1      18.283  -0.532  35.361  1.00  0.00     0.100 N 
HETATM    3  C1  UNK     1      19.933  -2.361  35.167  1.00  0.00     0.303 C 
HETATM    4  C2  UNK     1      18.485  -2.282  37.094  1.00  0.00     0.303 C 
HETATM    5  C3  UNK     1      18.992  -1.409  34.420  1.00  0.00     0.303 C 
HETATM    6  C4  UNK     1      17.544  -1.330  36.347  1.00  0.00     0.303 C 
ENDROOT
BRANCH   1   7
HETATM    7  C5  UNK     1      20.096  -4.062  36.867  1.00  0.00     0.312 C 
BRANCH   7   8
HETATM    8  C7  UNK     1      19.688  -5.488  36.725  1.00  0.00    -0.011 A 
HETATM    9  C10 UNK     1      18.568  -5.826  36.068  1.00  0.00     0.092 A 
HETATM   10  C14 UNK     1      18.125  -7.221  35.902  1.00  0.00     0.288 A 
HETATM   11  O1  UNK     1      18.929  -8.201  36.462  1.00  0.00    -0.275 OA
HETATM   12  O3  UNK     1      17.096  -7.491  35.293  1.00  0.00    -0.260 OA
HETATM   13  C11 UNK     1      20.111  -7.877  37.156  1.00  0.00     0.090 A 
HETATM   14  C8  UNK     1      20.519  -6.550  37.307  1.00  0.00     0.007 A 
HETATM   15  C15 UNK     1      20.842  -8.945  37.679  1.00  0.00     0.039 A 
HETATM   16  C12 UNK     1      21.707  -6.311  38.012  1.00  0.00     0.022 A 
HETATM   17  C13 UNK     1      22.449  -7.372  38.542  1.00  0.00    -0.058 A 
HETATM   18  C16 UNK     1      22.019  -8.687  38.375  1.00  0.00     0.010 A 
BRANCH  17  19
HETATM   19  C17 UNK     1      23.711  -7.095  39.288  1.00  0.00     0.034 C 
HETATM   20  C20 UNK     1      24.880  -7.937  38.786  1.00  0.00     0.010 C 
ENDBRANCH  17  19
ENDBRANCH   7   8
ENDBRANCH   1   7
BRANCH   2  21
HETATM   21  C6  UNK     1      17.385   0.374  34.647  1.00  0.00     0.375 C 
BRANCH  21  22
HETATM   22  C9  UNK     1      18.149   1.619  34.232  1.00  0.00     0.250 C 
HETATM   23  O2  UNK     1      19.029   2.118  34.927  1.00  0.00    -0.271 OA
HETATM   24  N3  UNK     1      17.704   2.065  32.989  1.00  0.00    -0.325 N 
HETATM   25  H15 UNK     1      16.969   1.524  32.543  1.00  0.00     0.169 HD
BRANCH  24  26
HETATM   26  C18 UNK     1      18.163   3.189  32.261  1.00  0.00     0.041 A 
HETATM   27  C19 UNK     1      18.598   3.057  30.941  1.00  0.00    -0.032 A 
HETATM   28  C22 UNK     1      19.047   4.175  30.240  1.00  0.00     0.051 A 
HETATM   29  C23 UNK     1      18.596   1.729  30.257  1.00  0.00     0.050 C 
HETATM   30  C25 UNK     1      19.060   5.427  30.857  1.00  0.00     0.117 A 
HETATM   31  C24 UNK     1      18.625   5.559  32.175  1.00  0.00     0.044 A 
HETATM   32  F1  UNK     1      19.492   6.501  30.183  1.00  0.00    -0.206 F 
HETATM   33  C21 UNK     1      18.176   4.440  32.877  1.00  0.00     0.033 A 
ENDBRANCH  24  26
ENDBRANCH  21  22
ENDBRANCH   2  21
TORSDOF 6
ENDMDL
MODEL 2
REMARK VINA RESULT:      -9.6      5.849      8.612
REMARK  6 active torsions:
REMARK  status: ('A' for Active; 'I' for Inactive)
REMARK    1  A    between atoms: C5_12  and  N1_5 
REMARK    2  A    between atoms: C6_13  and  N2_6 
REMARK    3  A    between atoms: C18_25  and  N3_7 
REMARK       I    between atoms: C9_16  and  N3_7 
REMARK    4  A    between atoms: C5_12  and  C7_14 
REMARK    5  A    between atoms: C6_13  and  C9_16 
REMARK    6  A    between atoms: C13_20  and  C17_24 
ROOT
HETATM    1  N1  UNK     1      18.895   3.639  31.292  1.00  0.00     0.096 N 
HETATM    2  N2  UNK     1      19.230   6.309  32.346  1.00  0.00     0.100 N 
HETATM    3  C1  UNK     1      18.032   4.149  32.364  1.00  0.00     0.303 C 
HETATM    4  C2  UNK     1      19.364   4.740  30.443  1.00  0.00     0.303 C 
HETATM    5  C3  UNK     1      18.763   5.208  33.197  1.00  0.00     0.303 C 
HETATM    6  C4  UNK     1      20.095   5.799  31.276  1.00  0.00     0.303 C 
ENDROOT
BRANCH   1   7
HETATM    7  C5  UNK     1      18.195   2.631  30.497  1.00  0.00     0.312 C 
BRANCH   7   8
HETATM    8  C7  UNK     1      18.929   1.335  30.462  1.00  0.00    -0.011 A 
HETATM    9  C10 UNK     1      19.593   0.944  29.364  1.00  0.00     0.092 A 
HETATM   10  C14 UNK     1      20.331  -0.328  29.282  1.00  0.00     0.288 A 
HETATM   11  O1  UNK     1      20.316  -1.130  30.411  1.00  0.00    -0.275 OA
HETATM   12  O3  UNK     1      20.928  -0.650  28.261  1.00  0.00    -0.260 OA
HETATM   13  C11 UNK     1      19.628  -0.746  31.580  1.00  0.00     0.090 A 
HETATM   14  C8  UNK     1      18.932   0.462  31.643  1.00  0.00     0.007 A 
HETATM   15  C15 UNK     1      19.682  -1.634  32.656  1.00  0.00     0.039 A 
HETATM   16  C12 UNK     1      18.273   0.770  32.841  1.00  0.00     0.022 A 
HETATM   17  C13 UNK     1      18.317  -0.110  33.928  1.00  0.00    -0.058 A 
HETATM   18  C16 UNK     1      19.021  -1.309  33.837  1.00  0.00     0.010 A 
BRANCH  17  19
HETATM   19  C17 UNK     1      17.608   0.239  35.194  1.00  0.00     0.034 C 
HETATM   20  C20 UNK     1      16.090   0.231  35.031  1.00  0.00     0.010 C 
ENDBRANCH  17  19
ENDBRANCH   7   8
ENDBRANCH   1   7
BRANCH   2  21
HETATM   21  C6  UNK     1      19.928   7.318  33.142  1.00  0.00     0.375 C 
BRANCH  21  22
HETATM   22  C9  UNK     1      18.944   7.985  34.087  1.00  0.00     0.250 C 
HETATM   23  O2  UNK     1      19.062   7.935  35.307  1.00  0.00    -0.271 OA
HETATM   24  N3  UNK     1      17.944   8.632  33.363  1.00  0.00    -0.325 N 
HETATM   25  H15 UNK     1      18.004   8.580  32.351  1.00  0.00     0.169 HD
BRANCH  24  26
HETATM   26  C18 UNK     1      16.847   9.366  33.874  1.00  0.00     0.041 A 
HETATM   27  C19 UNK     1      15.607   8.756  34.068  1.00  0.00    -0.032 A 
HETATM   28  C22 UNK     1      14.537   9.496  34.571  1.00  0.00     0.051 A 
HETATM   29  C23 UNK     1      15.396   7.313  33.742  1.00  0.00     0.050 C 
HETATM   30  C25 UNK     1      14.707  10.846  34.882  1.00  0.00     0.117 A 
HETATM   31  C24 UNK     1      15.947  11.455  34.689  1.00  0.00     0.044 A 
HETATM   32  F1  UNK     1      13.679  11.556  35.364  1.00  0.00    -0.206 F 
HETATM   33  C21 UNK     1      17.017  10.715  34.185  1.00  0.00     0.033 A 
ENDBRANCH  24  26
ENDBRANCH  21  22
ENDBRANCH   2  21
TORSDOF 6
ENDMDL
MODEL 3
REMARK VINA RESULT:      -9.4      2.495      3.078
REMARK  6 active torsions:
REMARK  status: ('A' for Active; 'I' for Inactive)
REMARK    1  A    between atoms: C5_12  and  N1_5 
REMARK    2  A    between atoms: C6_13  and  N2_6 
REMARK    3  A    between atoms: C18_25  and  N3_7 
REMARK       I    between atoms: C9_16  and  N3_7 
REMARK    4  A    between atoms: C5_12  and  C7_14 
REMARK    5  A    between atoms: C6_13  and  C9_16 
REMARK    6  A    between atoms: C13_20  and  C17_24 
ROOT
HETATM    1  N1  UNK     1      19.323  -3.748  36.477  1.00  0.00     0.096 N 
HETATM    2  N2  UNK     1      18.949  -0.937  35.913  1.00  0.00     0.100 N 
HETATM    3  C1  UNK     1      20.435  -2.909  36.010  1.00  0.00     0.303 C 
HETATM    4  C2  UNK     1      18.353  -2.943  37.227  1.00  0.00     0.303 C 
HETATM    5  C3  UNK     1      19.919  -1.743  35.160  1.00  0.00     0.303 C 
HETATM    6  C4  UNK     1      17.837  -1.776  36.377  1.00  0.00     0.303 C 
ENDROOT
BRANCH   1   7
HETATM    7  C5  UNK     1      19.817  -4.858  37.289  1.00  0.00     0.312 C 
BRANCH   7   8
HETATM    8  C7  UNK     1      19.205  -6.158  36.896  1.00  0.00    -0.011 A 
HETATM    9  C10 UNK     1      18.232  -6.215  35.974  1.00  0.00     0.092 A 
HETATM   10  C14 UNK     1      17.597  -7.475  35.554  1.00  0.00     0.288 A 
HETATM   11  O1  UNK     1      18.054  -8.635  36.159  1.00  0.00    -0.275 OA
HETATM   12  O3  UNK     1      16.711  -7.488  34.706  1.00  0.00    -0.260 OA
HETATM   13  C11 UNK     1      19.075  -8.607  37.129  1.00  0.00     0.090 A 
HETATM   14  C8  UNK     1      19.667  -7.405  37.519  1.00  0.00     0.007 A 
HETATM   15  C15 UNK     1      19.455  -9.836  37.672  1.00  0.00     0.039 A 
HETATM   16  C12 UNK     1      20.676  -7.462  38.491  1.00  0.00     0.022 A 
HETATM   17  C13 UNK     1      21.067  -8.686  39.045  1.00  0.00    -0.058 A 
HETATM   18  C16 UNK     1      20.458  -9.871  38.635  1.00  0.00     0.010 A 
BRANCH  17  19
HETATM   19  C17 UNK     1      22.143  -8.723  40.078  1.00  0.00     0.034 C 
HETATM   20  C20 UNK     1      23.333  -7.841  39.709  1.00  0.00     0.010 C 
ENDBRANCH  17  19
ENDBRANCH   7   8
ENDBRANCH   1   7
BRANCH   2  21
HETATM   21  C6  UNK     1      18.458   0.174  35.100  1.00  0.00     0.375 C 
BRANCH  21  22
HETATM   22  C9  UNK     1      18.242  -0.300  33.674  1.00  0.00     0.250 C 
HETATM   23  O2  UNK     1      17.270  -0.971  33.340  1.00  0.00    -0.271 OA
HETATM   24  N3  UNK     1      19.280   0.142  32.857  1.00  0.00    -0.325 N 
HETATM   25  H15 UNK     1      20.006   0.699  33.297  1.00  0.00     0.169 HD
BRANCH  24  26
HETATM   26  C18 UNK     1      19.445  -0.089  31.470  1.00  0.00     0.041 A 
HETATM   27  C19 UNK     1      20.096  -1.234  31.008  1.00  0.00    -0.032 A 
HETATM   28  C22 UNK     1      20.250  -1.444  29.638  1.00  0.00     0.051 A 
HETATM   29  C23 UNK     1      20.642  -2.249  31.959  1.00  0.00     0.050 C 
HETATM   30  C25 UNK     1      19.751  -0.510  28.728  1.00  0.00     0.117 A 
HETATM   31  C24 UNK     1      19.099   0.633  29.190  1.00  0.00     0.044 A 
HETATM   32  F1  UNK     1      19.899  -0.711  27.413  1.00  0.00    -0.206 F 
HETATM   33  C21 UNK     1      18.946   0.844  30.561  1.00  0.00     0.033 A 
ENDBRANCH  24  26
ENDBRANCH  21  22
ENDBRANCH   2  21
TORSDOF 6
ENDMDL
MODEL 4
REMARK VINA RESULT:      -9.4      4.136     11.094
REMARK  6 active torsions:
REMARK  status: ('A' for Active; 'I' for Inactive)
REMARK    1  A    between atoms: C5_12  and  N1_5 
REMARK    2  A    between atoms: C6_13  and  N2_6 
REMARK    3  A    between atoms: C18_25  and  N3_7 
REMARK       I    between atoms: C9_16  and  N3_7 
REMARK    4  A    between atoms: C5_12  and  C7_14 
REMARK    5  A    between atoms: C6_13  and  C9_16 
REMARK    6  A    between atoms: C13_20  and  C17_24 
ROOT
HETATM    1  N1  UNK     1      19.127  -1.241  34.703  1.00  0.00     0.096 N 
HETATM    2  N2  UNK     1      19.818  -3.207  36.707  1.00  0.00     0.100 N 
HETATM    3  C1  UNK     1      20.134  -2.277  34.440  1.00  0.00     0.303 C 
HETATM    4  C2  UNK     1      18.135  -1.723  35.671  1.00  0.00     0.303 C 
HETATM    5  C3  UNK     1      20.811  -2.724  35.740  1.00  0.00     0.303 C 
HETATM    6  C4  UNK     1      18.813  -2.170  36.971  1.00  0.00     0.303 C 
ENDROOT
BRANCH   1   7
HETATM    7  C5  UNK     1      18.480  -0.818  33.462  1.00  0.00     0.312 C 
BRANCH   7   8
HETATM    8  C7  UNK     1      18.428   0.665  33.333  1.00  0.00    -0.011 A 
HETATM    9  C10 UNK     1      18.289   1.450  34.412  1.00  0.00     0.092 A 
HETATM   10  C14 UNK     1      18.231   2.919  34.333  1.00  0.00     0.288 A 
HETATM   11  O1  UNK     1      18.330   3.480  33.069  1.00  0.00    -0.275 OA
HETATM   12  O3  UNK     1      18.105   3.605  35.342  1.00  0.00    -0.260 OA
HETATM   13  C11 UNK     1      18.478   2.681  31.918  1.00  0.00     0.090 A 
HETATM   14  C8  UNK     1      18.530   1.290  32.008  1.00  0.00     0.007 A 
HETATM   15  C15 UNK     1      18.567   3.354  30.698  1.00  0.00     0.039 A 
HETATM   16  C12 UNK     1      18.678   0.567  30.816  1.00  0.00     0.022 A 
HETATM   17  C13 UNK     1      18.768   1.227  29.586  1.00  0.00    -0.058 A 
HETATM   18  C16 UNK     1      18.714   2.619  29.527  1.00  0.00     0.010 A 
BRANCH  17  19
HETATM   19  C17 UNK     1      18.925   0.438  28.329  1.00  0.00     0.034 C 
HETATM   20  C20 UNK     1      19.864  -0.753  28.505  1.00  0.00     0.010 C 
ENDBRANCH  17  19
ENDBRANCH   7   8
ENDBRANCH   1   7
BRANCH   2  21
HETATM   21  C6  UNK     1      20.465  -3.632  37.946  1.00  0.00     0.375 C 
BRANCH  21  22
HETATM   22  C9  UNK     1      20.798  -5.112  37.861  1.00  0.00     0.250 C 
HETATM   23  O2  UNK     1      21.912  -5.522  37.551  1.00  0.00    -0.271 OA
HETATM   24  N3  UNK     1      19.679  -5.876  38.185  1.00  0.00    -0.325 N 
HETATM   25  H15 UNK     1      18.832  -5.371  38.429  1.00  0.00     0.169 HD
BRANCH  24  26
HETATM   26  C18 UNK     1      19.580  -7.288  38.222  1.00  0.00     0.041 A 
HETATM   27  C19 UNK     1      18.993  -7.991  37.170  1.00  0.00    -0.032 A 
HETATM   28  C22 UNK     1      18.903  -9.382  37.225  1.00  0.00     0.051 A 
HETATM   29  C23 UNK     1      18.449  -7.280  35.973  1.00  0.00     0.050 C 
HETATM   30  C25 UNK     1      19.402 -10.070  38.332  1.00  0.00     0.117 A 
HETATM   31  C24 UNK     1      19.990  -9.367  39.383  1.00  0.00     0.044 A 
HETATM   32  F1  UNK     1      19.315 -11.405  38.385  1.00  0.00    -0.206 F 
HETATM   33  C21 UNK     1      20.079  -7.975  39.329  1.00  0.00     0.033 A 
ENDBRANCH  24  26
ENDBRANCH  21  22
ENDBRANCH   2  21
TORSDOF 6
ENDMDL
MODEL 5
REMARK VINA RESULT:      -9.1      3.960     11.512
REMARK  6 active torsions:
REMARK  status: ('A' for Active; 'I' for Inactive)
REMARK    1  A    between atoms: C5_12  and  N1_5 
REMARK    2  A    between atoms: C6_13  and  N2_6 
REMARK    3  A    between atoms: C18_25  and  N3_7 
REMARK       I    between atoms: C9_16  and  N3_7 
REMARK    4  A    between atoms: C5_12  and  C7_14 
REMARK    5  A    between atoms: C6_13  and  C9_16 
REMARK    6  A    between atoms: C13_20  and  C17_24 
ROOT
HETATM    1  N1  UNK     1      18.690   0.899  34.158  1.00  0.00     0.096 N 
HETATM    2  N2  UNK     1      19.354  -1.580  35.491  1.00  0.00     0.100 N 
HETATM    3  C1  UNK     1      18.344  -0.401  33.568  1.00  0.00     0.303 C 
HETATM    4  C2  UNK     1      18.722   0.806  35.622  1.00  0.00     0.303 C 
HETATM    5  C3  UNK     1      19.324  -1.486  34.026  1.00  0.00     0.303 C 
HETATM    6  C4  UNK     1      19.702  -0.280  36.080  1.00  0.00     0.303 C 
ENDROOT
BRANCH   1   7
HETATM    7  C5  UNK     1      17.753   1.932  33.723  1.00  0.00     0.312 C 
BRANCH   7   8
HETATM    8  C7  UNK     1      18.169   2.564  32.439  1.00  0.00    -0.011 A 
HETATM    9  C10 UNK     1      18.381   1.825  31.340  1.00  0.00     0.092 A 
HETATM   10  C14 UNK     1      18.793   2.405  30.051  1.00  0.00     0.288 A 
HETATM   11  O1  UNK     1      18.959   3.780  30.010  1.00  0.00    -0.275 OA
HETATM   12  O3  UNK     1      18.976   1.697  29.066  1.00  0.00    -0.260 OA
HETATM   13  C11 UNK     1      18.742   4.582  31.148  1.00  0.00     0.090 A 
HETATM   14  C8  UNK     1      18.352   4.019  32.364  1.00  0.00     0.007 A 
HETATM   15  C15 UNK     1      18.939   5.955  30.991  1.00  0.00     0.039 A 
HETATM   16  C12 UNK     1      18.159   4.885  33.449  1.00  0.00     0.022 A 
HETATM   17  C13 UNK     1      18.353   6.264  33.307  1.00  0.00    -0.058 A 
HETATM   18  C16 UNK     1      18.741   6.798  32.080  1.00  0.00     0.010 A 
BRANCH  17  19
HETATM   19  C17 UNK     1      18.141   7.168  34.476  1.00  0.00     0.034 C 
HETATM   20  C20 UNK     1      19.327   8.098  34.713  1.00  0.00     0.010 C 
ENDBRANCH  17  19
ENDBRANCH   7   8
ENDBRANCH   1   7
BRANCH   2  21
HETATM   21  C6  UNK     1      20.290  -2.615  35.925  1.00  0.00     0.375 C 
BRANCH  21  22
HETATM   22  C9  UNK     1      19.520  -3.748  36.582  1.00  0.00     0.250 C 
HETATM   23  O2  UNK     1      18.339  -3.648  36.899  1.00  0.00    -0.271 OA
HETATM   24  N3  UNK     1      20.346  -4.858  36.747  1.00  0.00    -0.325 N 
HETATM   25  H15 UNK     1      21.303  -4.772  36.418  1.00  0.00     0.169 HD
BRANCH  24  26
HETATM   26  C18 UNK     1      20.006  -6.109  37.317  1.00  0.00     0.041 A 
HETATM   27  C19 UNK     1      19.484  -7.135  36.529  1.00  0.00    -0.032 A 
HETATM   28  C22 UNK     1      19.154  -8.360  37.108  1.00  0.00     0.051 A 
HETATM   29  C23 UNK     1      19.265  -6.948  35.062  1.00  0.00     0.050 C 
HETATM   30  C25 UNK     1      19.348  -8.560  38.476  1.00  0.00     0.117 A 
HETATM   31  C24 UNK     1      19.871  -7.534  39.263  1.00  0.00     0.044 A 
HETATM   32  F1  UNK     1      19.031  -9.736  39.032  1.00  0.00    -0.206 F 
HETATM   33  C21 UNK     1      20.200  -6.308  38.683  1.00  0.00     0.033 A 
ENDBRANCH  24  26
ENDBRANCH  21  22
ENDBRANCH   2  21
TORSDOF 6
ENDMDL
MODEL 6
REMARK VINA RESULT:      -9.1      3.719     11.293
REMARK  6 active torsions:
REMARK  status: ('A' for Active; 'I' for Inactive)
REMARK    1  A    between atoms: C5_12  and  N1_5 
REMARK    2  A    between atoms: C6_13  and  N2_6 
REMARK    3  A    between atoms: C18_25  and  N3_7 
REMARK       I    between atoms: C9_16  and  N3_7 
REMARK    4  A    between atoms: C5_12  and  C7_14 
REMARK    5  A    between atoms: C6_13  and  C9_16 
REMARK    6  A    between atoms: C13_20  and  C17_24 
ROOT
HETATM    1  N1  UNK     1      17.999   1.394  35.348  1.00  0.00     0.096 N 
HETATM    2  N2  UNK     1      18.450  -1.148  36.649  1.00  0.00     0.100 N 
HETATM    3  C1  UNK     1      17.776   1.225  36.790  1.00  0.00     0.303 C 
HETATM    4  C2  UNK     1      19.038   0.471  34.878  1.00  0.00     0.303 C 
HETATM    5  C3  UNK     1      17.409  -0.227  37.119  1.00  0.00     0.303 C 
HETATM    6  C4  UNK     1      18.671  -0.980  35.207  1.00  0.00     0.303 C 
ENDROOT
BRANCH   1   7
HETATM    7  C5  UNK     1      18.352   2.777  35.037  1.00  0.00     0.312 C 
BRANCH   7   8
HETATM    8  C7  UNK     1      18.346   3.042  33.571  1.00  0.00    -0.011 A 
HETATM    9  C10 UNK     1      18.333   2.035  32.685  1.00  0.00     0.092 A 
HETATM   10  C14 UNK     1      18.328   2.248  31.228  1.00  0.00     0.288 A 
HETATM   11  O1  UNK     1      18.336   3.563  30.790  1.00  0.00    -0.275 OA
HETATM   12  O3  UNK     1      18.313   1.302  30.448  1.00  0.00    -0.260 OA
HETATM   13  C11 UNK     1      18.349   4.641  31.697  1.00  0.00     0.090 A 
HETATM   14  C8  UNK     1      18.355   4.425  33.075  1.00  0.00     0.007 A 
HETATM   15  C15 UNK     1      18.357   5.923  31.143  1.00  0.00     0.039 A 
HETATM   16  C12 UNK     1      18.369   5.551  33.910  1.00  0.00     0.022 A 
HETATM   17  C13 UNK     1      18.377   6.841  33.370  1.00  0.00    -0.058 A 
HETATM   18  C16 UNK     1      18.370   7.028  31.989  1.00  0.00     0.010 A 
BRANCH  17  19
HETATM   19  C17 UNK     1      18.392   8.026  34.277  1.00  0.00     0.034 C 
HETATM   20  C20 UNK     1      19.799   8.575  34.494  1.00  0.00     0.010 C 
ENDBRANCH  17  19
ENDBRANCH   7   8
ENDBRANCH   1   7
BRANCH   2  21
HETATM   21  C6  UNK     1      18.098  -2.532  36.963  1.00  0.00     0.375 C 
BRANCH  21  22
HETATM   22  C9  UNK     1      19.293  -3.430  36.696  1.00  0.00     0.250 C 
HETATM   23  O2  UNK     1      20.442  -3.003  36.641  1.00  0.00    -0.271 OA
HETATM   24  N3  UNK     1      18.878  -4.751  36.541  1.00  0.00    -0.325 N 
HETATM   25  H15 UNK     1      17.882  -4.933  36.628  1.00  0.00     0.169 HD
BRANCH  24  26
HETATM   26  C18 UNK     1      19.685  -5.885  36.282  1.00  0.00     0.041 A 
HETATM   27  C19 UNK     1      20.364  -6.530  37.315  1.00  0.00    -0.032 A 
HETATM   28  C22 UNK     1      21.156  -7.645  37.041  1.00  0.00     0.051 A 
HETATM   29  C23 UNK     1      20.265  -6.046  38.726  1.00  0.00     0.050 C 
HETATM   30  C25 UNK     1      21.267  -8.116  35.732  1.00  0.00     0.117 A 
HETATM   31  C24 UNK     1      20.586  -7.472  34.699  1.00  0.00     0.044 A 
HETATM   32  F1  UNK     1      22.027  -9.186  35.468  1.00  0.00    -0.206 F 
HETATM   33  C21 UNK     1      19.795  -6.356  34.974  1.00  0.00     0.033 A 
ENDBRANCH  24  26
ENDBRANCH  21  22
ENDBRANCH   2  21
TORSDOF 6
ENDMDL
MODEL 7
REMARK VINA RESULT:      -9.0      4.128     10.893
REMARK  6 active torsions:
REMARK  status: ('A' for Active; 'I' for Inactive)
REMARK    1  A    between atoms: C5_12  and  N1_5 
REMARK    2  A    between atoms: C6_13  and  N2_6 
REMARK    3  A    between atoms: C18_25  and  N3_7 
REMARK       I    between atoms: C9_16  and  N3_7 
REMARK    4  A    between atoms: C5_12  and  C7_14 
REMARK    5  A    between atoms: C6_13  and  C9_16 
REMARK    6  A    between atoms: C13_20  and  C17_24 
ROOT
HETATM    1  N1  UNK     1      18.707  -0.774  35.321  1.00  0.00     0.096 N 
HETATM    2  N2  UNK     1      19.680  -3.008  36.876  1.00  0.00     0.100 N 
HETATM    3  C1  UNK     1      19.626  -1.762  34.743  1.00  0.00     0.303 C 
HETATM    4  C2  UNK     1      17.883  -1.390  36.368  1.00  0.00     0.303 C 
HETATM    5  C3  UNK     1      20.505  -2.391  35.830  1.00  0.00     0.303 C 
HETATM    6  C4  UNK     1      18.762  -2.019  37.455  1.00  0.00     0.303 C 
ENDROOT
BRANCH   1   7
HETATM    7  C5  UNK     1      17.868  -0.177  34.284  1.00  0.00     0.312 C 
BRANCH   7   8
HETATM    8  C7  UNK     1      18.528  -0.195  32.948  1.00  0.00    -0.011 A 
HETATM    9  C10 UNK     1      19.042  -1.327  32.444  1.00  0.00     0.092 A 
HETATM   10  C14 UNK     1      19.703  -1.394  31.130  1.00  0.00     0.288 A 
HETATM   11  O1  UNK     1      19.777  -0.212  30.410  1.00  0.00    -0.275 OA
HETATM   12  O3  UNK     1      20.160  -2.448  30.702  1.00  0.00    -0.260 OA
HETATM   13  C11 UNK     1      19.245   0.992  30.912  1.00  0.00     0.090 A 
HETATM   14  C8  UNK     1      18.622   1.040  32.160  1.00  0.00     0.007 A 
HETATM   15  C15 UNK     1      19.377   2.120  30.100  1.00  0.00     0.039 A 
HETATM   16  C12 UNK     1      18.120   2.277  32.588  1.00  0.00     0.022 A 
HETATM   17  C13 UNK     1      18.245   3.416  31.785  1.00  0.00    -0.058 A 
HETATM   18  C16 UNK     1      18.871   3.338  30.543  1.00  0.00     0.010 A 
BRANCH  17  19
HETATM   19  C17 UNK     1      17.702   4.723  32.261  1.00  0.00     0.034 C 
HETATM   20  C20 UNK     1      18.236   5.106  33.638  1.00  0.00     0.010 C 
ENDBRANCH  17  19
ENDBRANCH   7   8
ENDBRANCH   1   7
BRANCH   2  21
HETATM   21  C6  UNK     1      20.520  -3.606  37.912  1.00  0.00     0.375 C 
BRANCH  21  22
HETATM   22  C9  UNK     1      20.700  -5.087  37.623  1.00  0.00     0.250 C 
HETATM   23  O2  UNK     1      21.545  -5.509  36.839  1.00  0.00    -0.271 OA
HETATM   24  N3  UNK     1      19.793  -5.837  38.368  1.00  0.00    -0.325 N 
HETATM   25  H15 UNK     1      19.165  -5.323  38.980  1.00  0.00     0.169 HD
BRANCH  24  26
HETATM   26  C18 UNK     1      19.642  -7.244  38.381  1.00  0.00     0.041 A 
HETATM   27  C19 UNK     1      18.914  -7.895  37.385  1.00  0.00    -0.032 A 
HETATM   28  C22 UNK     1      18.775  -9.282  37.415  1.00  0.00     0.051 A 
HETATM   29  C23 UNK     1      18.268  -7.129  36.275  1.00  0.00     0.050 C 
HETATM   30  C25 UNK     1      19.366 -10.020  38.441  1.00  0.00     0.117 A 
HETATM   31  C24 UNK     1      20.096  -9.370  39.436  1.00  0.00     0.044 A 
HETATM   32  F1  UNK     1      19.233 -11.352  38.470  1.00  0.00    -0.206 F 
HETATM   33  C21 UNK     1      20.234  -7.982  39.407  1.00  0.00     0.033 A 
ENDBRANCH  24  26
ENDBRANCH  21  22
ENDBRANCH   2  21
TORSDOF 6
ENDMDL
MODEL 8
REMARK VINA RESULT:      -9.0      3.883     11.393
REMARK  6 active torsions:
REMARK  status: ('A' for Active; 'I' for Inactive)
REMARK    1  A    between atoms: C5_12  and  N1_5 
REMARK    2  A    between atoms: C6_13  and  N2_6 
REMARK    3  A    between atoms: C18_25  and  N3_7 
REMARK       I    between atoms: C9_16  and  N3_7 
REMARK    4  A    between atoms: C5_12  and  C7_14 
REMARK    5  A    between atoms: C6_13  and  C9_16 
REMARK    6  A    between atoms: C13_20  and  C17_24 
ROOT
HETATM    1  N1  UNK     1      18.484   0.978  34.229  1.00  0.00     0.096 N 
HETATM    2  N2  UNK     1      19.253  -1.591  35.309  1.00  0.00     0.100 N 
HETATM    3  C1  UNK     1      18.314  -0.257  33.453  1.00  0.00     0.303 C 
HETATM    4  C2  UNK     1      18.393   0.697  35.666  1.00  0.00     0.303 C 
HETATM    5  C3  UNK     1      19.346  -1.311  33.871  1.00  0.00     0.303 C 
HETATM    6  C4  UNK     1      19.425  -0.356  36.084  1.00  0.00     0.303 C 
ENDROOT
BRANCH   1   7
HETATM    7  C5  UNK     1      17.497   1.980  33.831  1.00  0.00     0.312 C 
BRANCH   7   8
HETATM    8  C7  UNK     1      18.136   3.235  33.343  1.00  0.00    -0.011 A 
HETATM    9  C10 UNK     1      18.505   4.201  34.196  1.00  0.00     0.092 A 
HETATM   10  C14 UNK     1      19.139   5.457  33.761  1.00  0.00     0.288 A 
HETATM   11  O1  UNK     1      19.348   5.610  32.400  1.00  0.00    -0.275 OA
HETATM   12  O3  UNK     1      19.465   6.318  34.571  1.00  0.00    -0.260 OA
HETATM   13  C11 UNK     1      18.972   4.612  31.479  1.00  0.00     0.090 A 
HETATM   14  C8  UNK     1      18.372   3.427  31.906  1.00  0.00     0.007 A 
HETATM   15  C15 UNK     1      19.231   4.874  30.133  1.00  0.00     0.039 A 
HETATM   16  C12 UNK     1      18.026   2.484  30.928  1.00  0.00     0.022 A 
HETATM   17  C13 UNK     1      18.279   2.733  29.574  1.00  0.00    -0.058 A 
HETATM   18  C16 UNK     1      18.881   3.925  29.177  1.00  0.00     0.010 A 
BRANCH  17  19
HETATM   19  C17 UNK     1      17.903   1.715  28.550  1.00  0.00     0.034 C 
HETATM   20  C20 UNK     1      18.865   0.531  28.528  1.00  0.00     0.010 C 
ENDBRANCH  17  19
ENDBRANCH   7   8
ENDBRANCH   1   7
BRANCH   2  21
HETATM   21  C6  UNK     1      20.239  -2.595  35.706  1.00  0.00     0.375 C 
BRANCH  21  22
HETATM   22  C9  UNK     1      19.547  -3.702  36.482  1.00  0.00     0.250 C 
HETATM   23  O2  UNK     1      18.373  -3.631  36.831  1.00  0.00    -0.271 OA
HETATM   24  N3  UNK     1      20.431  -4.755  36.710  1.00  0.00    -0.325 N 
HETATM   25  H15 UNK     1      21.371  -4.653  36.342  1.00  0.00     0.169 HD
BRANCH  24  26
HETATM   26  C18 UNK     1      20.171  -5.966  37.395  1.00  0.00     0.041 A 
HETATM   27  C19 UNK     1      19.572  -7.043  36.741  1.00  0.00    -0.032 A 
HETATM   28  C22 UNK     1      19.323  -8.229  37.433  1.00  0.00     0.051 A 
HETATM   29  C23 UNK     1      19.183  -6.953  35.301  1.00  0.00     0.050 C 
HETATM   30  C25 UNK     1      19.675  -8.338  38.779  1.00  0.00     0.117 A 
HETATM   31  C24 UNK     1      20.275  -7.263  39.432  1.00  0.00     0.044 A 
HETATM   32  F1  UNK     1      19.435  -9.476  39.442  1.00  0.00    -0.206 F 
HETATM   33  C21 UNK     1      20.523  -6.076  38.740  1.00  0.00     0.033 A 
ENDBRANCH  24  26
ENDBRANCH  21  22
ENDBRANCH   2  21
TORSDOF 6
ENDMDL
MODEL 9
REMARK VINA RESULT:      -8.9      9.070     12.712
REMARK  6 active torsions:
REMARK  status: ('A' for Active; 'I' for Inactive)
REMARK    1  A    between atoms: C5_12  and  N1_5 
REMARK    2  A    between atoms: C6_13  and  N2_6 
REMARK    3  A    between atoms: C18_25  and  N3_7 
REMARK       I    between atoms: C9_16  and  N3_7 
REMARK    4  A    between atoms: C5_12  and  C7_14 
REMARK    5  A    between atoms: C6_13  and  C9_16 
REMARK    6  A    between atoms: C13_20  and  C17_24 
ROOT
HETATM    1  N1  UNK     1      26.938  -9.345  37.430  1.00  0.00     0.096 N 
HETATM    2  N2  UNK     1      29.797  -9.057  37.748  1.00  0.00     0.100 N 
HETATM    3  C1  UNK     1      27.544  -9.168  38.756  1.00  0.00     0.303 C 
HETATM    4  C2  UNK     1      27.758  -8.696  36.400  1.00  0.00     0.303 C 
HETATM    5  C3  UNK     1      28.978  -9.708  38.777  1.00  0.00     0.303 C 
HETATM    6  C4  UNK     1      29.192  -9.236  36.422  1.00  0.00     0.303 C 
ENDROOT
BRANCH   1   7
HETATM    7  C5  UNK     1      25.572  -8.826  37.410  1.00  0.00     0.312 C 
BRANCH   7   8
HETATM    8  C7  UNK     1      24.615  -9.785  36.789  1.00  0.00    -0.011 A 
HETATM    9  C10 UNK     1      25.043 -10.931  36.238  1.00  0.00     0.092 A 
HETATM   10  C14 UNK     1      24.136 -11.909  35.613  1.00  0.00     0.288 A 
HETATM   11  O1  UNK     1      22.786 -11.595  35.614  1.00  0.00    -0.275 OA
HETATM   12  O3  UNK     1      24.564 -12.947  35.121  1.00  0.00    -0.260 OA
HETATM   13  C11 UNK     1      22.307 -10.400  36.186  1.00  0.00     0.090 A 
HETATM   14  C8  UNK     1      23.178  -9.482  36.775  1.00  0.00     0.007 A 
HETATM   15  C15 UNK     1      20.928 -10.189  36.130  1.00  0.00     0.039 A 
HETATM   16  C12 UNK     1      22.623  -8.317  37.320  1.00  0.00     0.022 A 
HETATM   17  C13 UNK     1      21.243  -8.091  37.270  1.00  0.00    -0.058 A 
HETATM   18  C16 UNK     1      20.397  -9.026  36.677  1.00  0.00     0.010 A 
BRANCH  17  19
HETATM   19  C17 UNK     1      20.673  -6.843  37.858  1.00  0.00     0.034 C 
HETATM   20  C20 UNK     1      20.250  -7.027  39.313  1.00  0.00     0.010 C 
ENDBRANCH  17  19
ENDBRANCH   7   8
ENDBRANCH   1   7
BRANCH   2  21
HETATM   21  C6  UNK     1      31.164  -9.574  37.770  1.00  0.00     0.375 C 
BRANCH  21  22
HETATM   22  C9  UNK     1      31.998  -8.840  36.734  1.00  0.00     0.250 C 
HETATM   23  O2  UNK     1      32.511  -9.407  35.775  1.00  0.00    -0.271 OA
HETATM   24  N3  UNK     1      32.068  -7.484  37.046  1.00  0.00    -0.325 N 
HETATM   25  H15 UNK     1      31.573  -7.178  37.878  1.00  0.00     0.169 HD
BRANCH  24  26
HETATM   26  C18 UNK     1      32.747  -6.468  36.331  1.00  0.00     0.041 A 
HETATM   27  C19 UNK     1      32.086  -5.713  35.361  1.00  0.00    -0.032 A 
HETATM   28  C22 UNK     1      32.772  -4.717  34.666  1.00  0.00     0.051 A 
HETATM   29  C23 UNK     1      30.646  -5.952  35.044  1.00  0.00     0.050 C 
HETATM   30  C25 UNK     1      34.118  -4.474  34.942  1.00  0.00     0.117 A 
HETATM   31  C24 UNK     1      34.778  -5.228  35.913  1.00  0.00     0.044 A 
HETATM   32  F1  UNK     1      34.776  -3.518  34.275  1.00  0.00    -0.206 F 
HETATM   33  C21 UNK     1      34.092  -6.225  36.607  1.00  0.00     0.033 A 
ENDBRANCH  24  26
ENDBRANCH  21  22
ENDBRANCH   2  21
TORSDOF 6
ENDMDL
MODEL 10
REMARK VINA RESULT:      -8.7      8.526     12.101
REMARK  6 active torsions:
REMARK  status: ('A' for Active; 'I' for Inactive)
REMARK    1  A    between atoms: C5_12  and  N1_5 
REMARK    2  A    between atoms: C6_13  and  N2_6 
REMARK    3  A    between atoms: C18_25  and  N3_7 
REMARK       I    between atoms: C9_16  and  N3_7 
REMARK    4  A    between atoms: C5_12  and  C7_14 
REMARK    5  A    between atoms: C6_13  and  C9_16 
REMARK    6  A    between atoms: C13_20  and  C17_24 
ROOT
HETATM    1  N1  UNK     1      28.570  -8.983  36.120  1.00  0.00     0.096 N 
HETATM    2  N2  UNK     1      26.218  -8.467  37.719  1.00  0.00     0.100 N 
HETATM    3  C1  UNK     1      27.437  -9.916  36.132  1.00  0.00     0.303 C 
HETATM    4  C2  UNK     1      28.111  -7.614  36.380  1.00  0.00     0.303 C 
HETATM    5  C3  UNK     1      26.678  -9.837  37.462  1.00  0.00     0.303 C 
HETATM    6  C4  UNK     1      27.352  -7.535  37.709  1.00  0.00     0.303 C 
ENDROOT
BRANCH   1   7
HETATM    7  C5  UNK     1      29.291  -9.058  34.851  1.00  0.00     0.312 C 
BRANCH   7   8
HETATM    8  C7  UNK     1      29.970  -7.776  34.513  1.00  0.00    -0.011 A 
HETATM    9  C10 UNK     1      30.962  -7.296  35.276  1.00  0.00     0.092 A 
HETATM   10  C14 UNK     1      31.662  -6.033  34.983  1.00  0.00     0.288 A 
HETATM   11  O1  UNK     1      31.248  -5.339  33.857  1.00  0.00    -0.275 OA
HETATM   12  O3  UNK     1      32.567  -5.627  35.704  1.00  0.00    -0.260 OA
HETATM   13  C11 UNK     1      30.209  -5.819  33.036  1.00  0.00     0.090 A 
HETATM   14  C8  UNK     1      29.554  -7.017  33.326  1.00  0.00     0.007 A 
HETATM   15  C15 UNK     1      29.876  -5.036  31.929  1.00  0.00     0.039 A 
HETATM   16  C12 UNK     1      28.530  -7.424  32.460  1.00  0.00     0.022 A 
HETATM   17  C13 UNK     1      28.185  -6.650  31.347  1.00  0.00    -0.058 A 
HETATM   18  C16 UNK     1      28.857  -5.459  31.081  1.00  0.00     0.010 A 
BRANCH  17  19
HETATM   19  C17 UNK     1      27.092  -7.104  30.438  1.00  0.00     0.034 C 
HETATM   20  C20 UNK     1      27.305  -8.531  29.940  1.00  0.00     0.010 C 
ENDBRANCH  17  19
ENDBRANCH   7   8
ENDBRANCH   1   7
BRANCH   2  21
HETATM   21  C6  UNK     1      25.496  -8.393  38.988  1.00  0.00     0.375 C 
BRANCH  21  22
HETATM   22  C9  UNK     1      24.231  -7.573  38.802  1.00  0.00     0.250 C 
HETATM   23  O2  UNK     1      24.226  -6.346  38.844  1.00  0.00    -0.271 OA
HETATM   24  N3  UNK     1      23.141  -8.412  38.580  1.00  0.00    -0.325 N 
HETATM   25  H15 UNK     1      23.325  -9.411  38.567  1.00  0.00     0.169 HD
BRANCH  24  26
HETATM   26  C18 UNK     1      21.794  -8.037  38.362  1.00  0.00     0.041 A 
HETATM   27  C19 UNK     1      21.175  -8.275  37.134  1.00  0.00    -0.032 A 
HETATM   28  C22 UNK     1      19.847  -7.897  36.936  1.00  0.00     0.051 A 
HETATM   29  C23 UNK     1      21.913  -8.930  36.011  1.00  0.00     0.050 C 
HETATM   30  C25 UNK     1      19.136  -7.283  37.968  1.00  0.00     0.117 A 
HETATM   31  C24 UNK     1      19.754  -7.046  39.196  1.00  0.00     0.044 A 
HETATM   32  F1  UNK     1      17.861  -6.920  37.778  1.00  0.00    -0.206 F 
HETATM   33  C21 UNK     1      21.083  -7.423  39.393  1.00  0.00     0.033 A 
ENDBRANCH  24  26
ENDBRANCH  21  22
ENDBRANCH   2  21
TORSDOF 6
ENDMDL
