MODEL 1
REMARK VINA RESULT:     -10.7      0.000      0.000
REMARK  6 active torsions:
REMARK  status: ('A' for Active; 'I' for Inactive)
REMARK    1  A    between atoms: C5_11  and  N1_4 
REMARK    2  A    between atoms: C6_12  and  N2_5 
REMARK    3  A    between atoms: C13_19  and  N3_6 
REMARK       I    between atoms: C8_14  and  N3_6 
REMARK    4  A    between atoms: C5_11  and  C7_13 
REMARK    5  A    between atoms: C6_12  and  C8_14 
REMARK    6  A    between atoms: C16_22  and  C20_26 
ROOT
HETATM    1  N1  UNK     1      19.443  -3.651  36.364  1.00  0.00     0.096 N 
HETATM    2  N2  UNK     1      18.941  -0.860  35.797  1.00  0.00     0.100 N 
HETATM    3  C1  UNK     1      20.534  -2.737  36.002  1.00  0.00     0.303 C 
HETATM    4  C2  UNK     1      18.364  -2.918  37.037  1.00  0.00     0.303 C 
HETATM    5  C3  UNK     1      20.019  -1.593  35.121  1.00  0.00     0.303 C 
HETATM    6  C4  UNK     1      17.850  -1.773  36.158  1.00  0.00     0.303 C 
ENDROOT
BRANCH   2   7
HETATM    7  C6  UNK     1      18.449   0.229  34.956  1.00  0.00     0.375 C 
BRANCH   7   8
HETATM    8  C8  UNK     1      18.291  -0.266  33.528  1.00  0.00     0.250 C 
HETATM    9  N3  UNK     1      19.316   0.236  32.728  1.00  0.00    -0.325 N 
HETATM   10  H14 UNK     1      20.139   0.555  33.230  1.00  0.00     0.169 HD
HETATM   11  O2  UNK     1      17.370  -0.999  33.181  1.00  0.00    -0.271 OA
BRANCH   9  12
HETATM   12  C13 UNK     1      19.521   0.009  31.347  1.00  0.00     0.047 A 
HETATM   13  C16 UNK     1      19.131   0.974  30.417  1.00  0.00    -0.031 A 
HETATM   14  C21 UNK     1      19.334   0.751  29.055  1.00  0.00     0.009 A 
HETATM   15  C25 UNK     1      19.926  -0.436  28.622  1.00  0.00     0.001 A 
HETATM   16  C22 UNK     1      20.317  -1.400  29.552  1.00  0.00     0.009 A 
HETATM   17  C19 UNK     1      20.113  -1.176  30.914  1.00  0.00    -0.035 A 
HETATM   18  C24 UNK     1      20.543  -2.228  31.887  1.00  0.00     0.050 C 
BRANCH  13  19
HETATM   19  C20 UNK     1      18.493   2.254  30.848  1.00  0.00     0.036 C 
HETATM   20  C26 UNK     1      18.697   3.372  29.831  1.00  0.00     0.010 C 
ENDBRANCH  13  19
ENDBRANCH   9  12
ENDBRANCH   7   8
ENDBRANCH   2   7
BRANCH   1  21
HETATM   21  C5  UNK     1      19.936  -4.739  37.205  1.00  0.00     0.312 C 
BRANCH  21  22
HETATM   22  C7  UNK     1      20.063  -6.017  36.452  1.00  0.00    -0.011 A 
HETATM   23  C10 UNK     1      20.323  -6.025  35.137  1.00  0.00     0.092 A 
HETATM   24  C14 UNK     1      20.458  -7.263  34.351  1.00  0.00     0.288 A 
HETATM   25  O1  UNK     1      20.303  -8.457  35.039  1.00  0.00    -0.275 OA
HETATM   26  O3  UNK     1      20.698  -7.231  33.149  1.00  0.00    -0.260 OA
HETATM   27  C11 UNK     1      20.029  -8.481  36.421  1.00  0.00     0.090 A 
HETATM   28  C9  UNK     1      19.903  -7.300  37.152  1.00  0.00     0.006 A 
HETATM   29  C15 UNK     1      19.892  -9.740  37.008  1.00  0.00     0.045 A 
HETATM   30  C12 UNK     1      19.629  -7.409  38.522  1.00  0.00     0.015 A 
HETATM   31  C17 UNK     1      19.489  -8.664  39.126  1.00  0.00     0.007 A 
HETATM   32  C18 UNK     1      19.620  -9.828  38.370  1.00  0.00    -0.059 A 
HETATM   33  C23 UNK     1      19.470 -11.160  39.020  1.00  0.00     0.048 C 
ENDBRANCH  21  22
ENDBRANCH   1  21
TORSDOF 6
ENDMDL
MODEL 2
REMARK VINA RESULT:     -10.2      5.845     12.750
REMARK  6 active torsions:
REMARK  status: ('A' for Active; 'I' for Inactive)
REMARK    1  A    between atoms: C5_11  and  N1_4 
REMARK    2  A    between atoms: C6_12  and  N2_5 
REMARK    3  A    between atoms: C13_19  and  N3_6 
REMARK       I    between atoms: C8_14  and  N3_6 
REMARK    4  A    between atoms: C5_11  and  C7_13 
REMARK    5  A    between atoms: C6_12  and  C8_14 
REMARK    6  A    between atoms: C16_22  and  C20_26 
ROOT
HETATM    1  N1  UNK     1      18.374   6.300  32.239  1.00  0.00     0.096 N 
HETATM    2  N2  UNK     1      19.015   4.128  30.440  1.00  0.00     0.100 N 
HETATM    3  C1  UNK     1      18.035   4.909  32.569  1.00  0.00     0.303 C 
HETATM    4  C2  UNK     1      19.565   6.346  31.381  1.00  0.00     0.303 C 
HETATM    5  C3  UNK     1      17.823   4.082  31.295  1.00  0.00     0.303 C 
HETATM    6  C4  UNK     1      19.354   5.518  30.109  1.00  0.00     0.303 C 
ENDROOT
BRANCH   2   7
HETATM    7  C6  UNK     1      18.812   3.341  29.226  1.00  0.00     0.375 C 
BRANCH   7   8
HETATM    8  C8  UNK     1      18.533   1.895  29.602  1.00  0.00     0.250 C 
HETATM    9  N3  UNK     1      19.565   1.396  30.395  1.00  0.00    -0.325 N 
HETATM   10  H14 UNK     1      20.137   2.099  30.852  1.00  0.00     0.169 HD
HETATM   11  O2  UNK     1      17.528   1.298  29.230  1.00  0.00    -0.271 OA
BRANCH   9  12
HETATM   12  C13 UNK     1      19.678   0.098  30.946  1.00  0.00     0.047 A 
HETATM   13  C16 UNK     1      19.154  -0.170  32.212  1.00  0.00    -0.031 A 
HETATM   14  C21 UNK     1      19.265  -1.450  32.755  1.00  0.00     0.009 A 
HETATM   15  C25 UNK     1      19.899  -2.462  32.035  1.00  0.00     0.001 A 
HETATM   16  C22 UNK     1      20.422  -2.194  30.770  1.00  0.00     0.009 A 
HETATM   17  C19 UNK     1      20.311  -0.914  30.226  1.00  0.00    -0.035 A 
HETATM   18  C24 UNK     1      20.882  -0.658  28.868  1.00  0.00     0.050 C 
BRANCH  13  19
HETATM   19  C20 UNK     1      18.470   0.893  33.008  1.00  0.00     0.036 C 
HETATM   20  C26 UNK     1      18.269   0.484  34.464  1.00  0.00     0.010 C 
ENDBRANCH  13  19
ENDBRANCH   9  12
ENDBRANCH   7   8
ENDBRANCH   2   7
BRANCH   1  21
HETATM   21  C5  UNK     1      18.577   7.086  33.453  1.00  0.00     0.312 C 
BRANCH  21  22
HETATM   22  C7  UNK     1      17.432   7.996  33.731  1.00  0.00    -0.011 A 
HETATM   23  C10 UNK     1      16.176   7.532  33.797  1.00  0.00     0.092 A 
HETATM   24  C14 UNK     1      15.014   8.394  34.069  1.00  0.00     0.288 A 
HETATM   25  O1  UNK     1      15.270   9.742  34.261  1.00  0.00    -0.275 OA
HETATM   26  O3  UNK     1      13.878   7.933  34.123  1.00  0.00    -0.260 OA
HETATM   27  C11 UNK     1      16.579  10.260  34.197  1.00  0.00     0.090 A 
HETATM   28  C9  UNK     1      17.671   9.432  33.938  1.00  0.00     0.006 A 
HETATM   29  C15 UNK     1      16.718  11.634  34.405  1.00  0.00     0.045 A 
HETATM   30  C12 UNK     1      18.940  10.024  33.890  1.00  0.00     0.015 A 
HETATM   31  C17 UNK     1      19.096  11.400  34.097  1.00  0.00     0.007 A 
HETATM   32  C18 UNK     1      17.986  12.203  34.354  1.00  0.00    -0.059 A 
HETATM   33  C23 UNK     1      18.160  13.667  34.574  1.00  0.00     0.048 C 
ENDBRANCH  21  22
ENDBRANCH   1  21
TORSDOF 6
ENDMDL
MODEL 3
REMARK VINA RESULT:     -10.1      1.672      2.927
REMARK  6 active torsions:
REMARK  status: ('A' for Active; 'I' for Inactive)
REMARK    1  A    between atoms: C5_11  and  N1_4 
REMARK    2  A    between atoms: C6_12  and  N2_5 
REMARK    3  A    between atoms: C13_19  and  N3_6 
REMARK       I    between atoms: C8_14  and  N3_6 
REMARK    4  A    between atoms: C5_11  and  C7_13 
REMARK    5  A    between atoms: C6_12  and  C8_14 
REMARK    6  A    between atoms: C16_22  and  C20_26 
ROOT
HETATM    1  N1  UNK     1      19.201  -3.036  36.227  1.00  0.00     0.096 N 
HETATM    2  N2  UNK     1      18.312  -0.427  35.351  1.00  0.00     0.100 N 
HETATM    3  C1  UNK     1      19.975  -2.251  35.257  1.00  0.00     0.303 C 
HETATM    4  C2  UNK     1      18.449  -2.146  37.121  1.00  0.00     0.303 C 
HETATM    5  C3  UNK     1      19.061  -1.317  34.456  1.00  0.00     0.303 C 
HETATM    6  C4  UNK     1      17.537  -1.211  36.321  1.00  0.00     0.303 C 
ENDROOT
BRANCH   2   7
HETATM    7  C6  UNK     1      17.440   0.462  34.588  1.00  0.00     0.375 C 
BRANCH   7   8
HETATM    8  C8  UNK     1      18.242   1.656  34.097  1.00  0.00     0.250 C 
HETATM    9  N3  UNK     1      17.707   2.137  32.902  1.00  0.00    -0.325 N 
HETATM   10  H14 UNK     1      16.746   1.865  32.719  1.00  0.00     0.169 HD
HETATM   11  O2  UNK     1      19.215   2.093  34.702  1.00  0.00    -0.271 OA
BRANCH   9  12
HETATM   12  C13 UNK     1      18.165   3.231  32.131  1.00  0.00     0.047 A 
HETATM   13  C16 UNK     1      18.584   3.028  30.815  1.00  0.00    -0.031 A 
HETATM   14  C21 UNK     1      19.035   4.107  30.054  1.00  0.00     0.009 A 
HETATM   15  C25 UNK     1      19.068   5.387  30.607  1.00  0.00     0.001 A 
HETATM   16  C22 UNK     1      18.650   5.589  31.922  1.00  0.00     0.009 A 
HETATM   17  C19 UNK     1      18.198   4.510  32.683  1.00  0.00    -0.035 A 
HETATM   18  C24 UNK     1      17.756   4.759  34.090  1.00  0.00     0.050 C 
BRANCH  13  19
HETATM   19  C20 UNK     1      18.561   1.669  30.194  1.00  0.00     0.036 C 
HETATM   20  C26 UNK     1      18.107   1.707  28.739  1.00  0.00     0.010 C 
ENDBRANCH  13  19
ENDBRANCH   9  12
ENDBRANCH   7   8
ENDBRANCH   2   7
BRANCH   1  21
HETATM   21  C5  UNK     1      20.073  -3.924  36.991  1.00  0.00     0.312 C 
BRANCH  21  22
HETATM   22  C7  UNK     1      20.109  -5.301  36.423  1.00  0.00    -0.011 A 
HETATM   23  C10 UNK     1      20.196  -5.504  35.101  1.00  0.00     0.092 A 
HETATM   24  C14 UNK     1      20.234  -6.846  34.496  1.00  0.00     0.288 A 
HETATM   25  O1  UNK     1      20.177  -7.924  35.365  1.00  0.00    -0.275 OA
HETATM   26  O3  UNK     1      20.315  -6.994  33.281  1.00  0.00    -0.260 OA
HETATM   27  C11 UNK     1      20.085  -7.742  36.760  1.00  0.00     0.090 A 
HETATM   28  C9  UNK     1      20.049  -6.464  37.319  1.00  0.00     0.006 A 
HETATM   29  C15 UNK     1      20.032  -8.899  37.538  1.00  0.00     0.045 A 
HETATM   30  C12 UNK     1      19.956  -6.368  38.714  1.00  0.00     0.015 A 
HETATM   31  C17 UNK     1      19.903  -7.519  39.509  1.00  0.00     0.007 A 
HETATM   32  C18 UNK     1      19.941  -8.783  38.922  1.00  0.00    -0.059 A 
HETATM   33  C23 UNK     1      19.883 -10.004  39.774  1.00  0.00     0.048 C 
ENDBRANCH  21  22
ENDBRANCH   1  21
TORSDOF 6
ENDMDL
MODEL 4
REMARK VINA RESULT:     -10.0      2.497      3.677
REMARK  6 active torsions:
REMARK  status: ('A' for Active; 'I' for Inactive)
REMARK    1  A    between atoms: C5_11  and  N1_4 
REMARK    2  A    between atoms: C6_12  and  N2_5 
REMARK    3  A    between atoms: C13_19  and  N3_6 
REMARK       I    between atoms: C8_14  and  N3_6 
REMARK    4  A    between atoms: C5_11  and  C7_13 
REMARK    5  A    between atoms: C6_12  and  C8_14 
REMARK    6  A    between atoms: C16_22  and  C20_26 
ROOT
HETATM    1  N1  UNK     1      19.271  -2.463  35.982  1.00  0.00     0.096 N 
HETATM    2  N2  UNK     1      18.452   0.179  35.140  1.00  0.00     0.100 N 
HETATM    3  C1  UNK     1      19.769  -1.871  34.734  1.00  0.00     0.303 C 
HETATM    4  C2  UNK     1      18.964  -1.412  36.960  1.00  0.00     0.303 C 
HETATM    5  C3  UNK     1      18.756  -0.872  34.162  1.00  0.00     0.303 C 
HETATM    6  C4  UNK     1      17.953  -0.412  36.388  1.00  0.00     0.303 C 
ENDROOT
BRANCH   2   7
HETATM    7  C6  UNK     1      17.485   1.130  34.595  1.00  0.00     0.375 C 
BRANCH   7   8
HETATM    8  C8  UNK     1      18.221   2.348  34.062  1.00  0.00     0.250 C 
HETATM    9  N3  UNK     1      17.730   2.695  32.804  1.00  0.00    -0.325 N 
HETATM   10  H14 UNK     1      16.808   2.332  32.586  1.00  0.00     0.169 HD
HETATM   11  O2  UNK     1      19.116   2.906  34.689  1.00  0.00    -0.271 OA
BRANCH   9  12
HETATM   12  C13 UNK     1      18.151   3.765  31.979  1.00  0.00     0.047 A 
HETATM   13  C16 UNK     1      18.020   5.081  32.424  1.00  0.00    -0.031 A 
HETATM   14  C21 UNK     1      18.436   6.136  31.611  1.00  0.00     0.009 A 
HETATM   15  C25 UNK     1      18.981   5.876  30.354  1.00  0.00     0.001 A 
HETATM   16  C22 UNK     1      19.113   4.560  29.910  1.00  0.00     0.009 A 
HETATM   17  C19 UNK     1      18.697   3.505  30.723  1.00  0.00    -0.035 A 
HETATM   18  C24 UNK     1      18.852   2.106  30.219  1.00  0.00     0.050 C 
BRANCH  13  19
HETATM   19  C20 UNK     1      17.438   5.392  33.765  1.00  0.00     0.036 C 
HETATM   20  C26 UNK     1      17.747   6.817  34.212  1.00  0.00     0.010 C 
ENDBRANCH  13  19
ENDBRANCH   9  12
ENDBRANCH   7   8
ENDBRANCH   2   7
BRANCH   1  21
HETATM   21  C5  UNK     1      20.238  -3.413  36.527  1.00  0.00     0.312 C 
BRANCH  21  22
HETATM   22  C7  UNK     1      19.609  -4.717  36.876  1.00  0.00    -0.011 A 
HETATM   23  C10 UNK     1      18.382  -5.034  36.440  1.00  0.00     0.092 A 
HETATM   24  C14 UNK     1      17.721  -6.311  36.759  1.00  0.00     0.288 A 
HETATM   25  O1  UNK     1      18.432  -7.200  37.548  1.00  0.00    -0.275 OA
HETATM   26  O3  UNK     1      16.596  -6.567  36.341  1.00  0.00    -0.260 OA
HETATM   27  C11 UNK     1      19.724  -6.895  38.022  1.00  0.00     0.090 A 
HETATM   28  C9  UNK     1      20.338  -5.682  37.712  1.00  0.00     0.006 A 
HETATM   29  C15 UNK     1      20.346  -7.866  38.809  1.00  0.00     0.045 A 
HETATM   30  C12 UNK     1      21.623  -5.454  38.222  1.00  0.00     0.015 A 
HETATM   31  C17 UNK     1      22.260  -6.417  39.012  1.00  0.00     0.007 A 
HETATM   32  C18 UNK     1      21.622  -7.622  39.306  1.00  0.00    -0.059 A 
HETATM   33  C23 UNK     1      22.307  -8.643  40.149  1.00  0.00     0.048 C 
ENDBRANCH  21  22
ENDBRANCH   1  21
TORSDOF 6
ENDMDL
MODEL 5
REMARK VINA RESULT:      -9.9      5.620      9.821
REMARK  6 active torsions:
REMARK  status: ('A' for Active; 'I' for Inactive)
REMARK    1  A    between atoms: C5_11  and  N1_4 
REMARK    2  A    between atoms: C6_12  and  N2_5 
REMARK    3  A    between atoms: C13_19  and  N3_6 
REMARK       I    between atoms: C8_14  and  N3_6 
REMARK    4  A    between atoms: C5_11  and  C7_13 
REMARK    5  A    between atoms: C6_12  and  C8_14 
REMARK    6  A    between atoms: C16_22  and  C20_26 
ROOT
HETATM    1  N1  UNK     1      18.860   3.733  31.318  1.00  0.00     0.096 N 
HETATM    2  N2  UNK     1      19.249   6.392  32.385  1.00  0.00     0.100 N 
HETATM    3  C1  UNK     1      17.969   4.280  32.351  1.00  0.00     0.303 C 
HETATM    4  C2  UNK     1      19.408   4.814  30.490  1.00  0.00     0.303 C 
HETATM    5  C3  UNK     1      18.704   5.311  33.215  1.00  0.00     0.303 C 
HETATM    6  C4  UNK     1      20.140   5.847  31.354  1.00  0.00     0.303 C 
ENDROOT
BRANCH   2   7
HETATM    7  C6  UNK     1      19.950   7.375  33.209  1.00  0.00     0.375 C 
BRANCH   7   8
HETATM    8  C8  UNK     1      18.960   8.046  34.147  1.00  0.00     0.250 C 
HETATM    9  N3  UNK     1      17.995   8.735  33.414  1.00  0.00    -0.325 N 
HETATM   10  H14 UNK     1      17.895   8.442  32.448  1.00  0.00     0.169 HD
HETATM   11  O2  UNK     1      19.046   7.964  35.368  1.00  0.00    -0.271 OA
BRANCH   9  12
HETATM   12  C13 UNK     1      16.905   9.486  33.916  1.00  0.00     0.047 A 
HETATM   13  C16 UNK     1      15.662   8.877  34.093  1.00  0.00    -0.031 A 
HETATM   14  C21 UNK     1      14.588   9.617  34.588  1.00  0.00     0.009 A 
HETATM   15  C25 UNK     1      14.756  10.965  34.905  1.00  0.00     0.001 A 
HETATM   16  C22 UNK     1      15.998  11.573  34.728  1.00  0.00     0.009 A 
HETATM   17  C19 UNK     1      17.072  10.834  34.233  1.00  0.00    -0.035 A 
HETATM   18  C24 UNK     1      18.392  11.514  34.054  1.00  0.00     0.050 C 
BRANCH  13  19
HETATM   19  C20 UNK     1      15.451   7.435  33.762  1.00  0.00     0.036 C 
HETATM   20  C26 UNK     1      14.872   7.243  32.364  1.00  0.00     0.010 C 
ENDBRANCH  13  19
ENDBRANCH   9  12
ENDBRANCH   7   8
ENDBRANCH   2   7
BRANCH   1  21
HETATM   21  C5  UNK     1      18.158   2.751  30.495  1.00  0.00     0.312 C 
BRANCH  21  22
HETATM   22  C7  UNK     1      18.849   1.432  30.482  1.00  0.00    -0.011 A 
HETATM   23  C10 UNK     1      19.445   0.971  29.374  1.00  0.00     0.092 A 
HETATM   24  C14 UNK     1      20.140  -0.326  29.316  1.00  0.00     0.288 A 
HETATM   25  O1  UNK     1      20.156  -1.077  30.480  1.00  0.00    -0.275 OA
HETATM   26  O3  UNK     1      20.676  -0.715  28.283  1.00  0.00    -0.260 OA
HETATM   27  C11 UNK     1      19.536  -0.620  31.661  1.00  0.00     0.090 A 
HETATM   28  C9  UNK     1      18.882   0.612  31.702  1.00  0.00     0.006 A 
HETATM   29  C15 UNK     1      19.615  -1.460  32.773  1.00  0.00     0.045 A 
HETATM   30  C12 UNK     1      18.291   0.994  32.913  1.00  0.00     0.015 A 
HETATM   31  C17 UNK     1      18.361   0.163  34.038  1.00  0.00     0.007 A 
HETATM   32  C18 UNK     1      19.022  -1.062  33.967  1.00  0.00    -0.059 A 
HETATM   33  C23 UNK     1      19.093  -1.942  35.168  1.00  0.00     0.048 C 
ENDBRANCH  21  22
ENDBRANCH   1  21
TORSDOF 6
ENDMDL
MODEL 6
REMARK VINA RESULT:      -9.6      5.868     12.329
REMARK  6 active torsions:
REMARK  status: ('A' for Active; 'I' for Inactive)
REMARK    1  A    between atoms: C5_11  and  N1_4 
REMARK    2  A    between atoms: C6_12  and  N2_5 
REMARK    3  A    between atoms: C13_19  and  N3_6 
REMARK       I    between atoms: C8_14  and  N3_6 
REMARK    4  A    between atoms: C5_11  and  C7_13 
REMARK    5  A    between atoms: C6_12  and  C8_14 
REMARK    6  A    between atoms: C16_22  and  C20_26 
ROOT
HETATM    1  N1  UNK     1      18.425   5.890  32.925  1.00  0.00     0.096 N 
HETATM    2  N2  UNK     1      18.982   4.013  30.797  1.00  0.00     0.100 N 
HETATM    3  C1  UNK     1      18.102   4.463  33.060  1.00  0.00     0.303 C 
HETATM    4  C2  UNK     1      19.574   6.071  32.029  1.00  0.00     0.303 C 
HETATM    5  C3  UNK     1      17.832   3.832  31.690  1.00  0.00     0.303 C 
HETATM    6  C4  UNK     1      19.305   5.439  30.660  1.00  0.00     0.303 C 
ENDROOT
BRANCH   2   7
HETATM    7  C6  UNK     1      18.723   3.413  29.490  1.00  0.00     0.375 C 
BRANCH   7   8
HETATM    8  C8  UNK     1      18.521   1.915  29.653  1.00  0.00     0.250 C 
HETATM    9  N3  UNK     1      19.508   1.384  30.481  1.00  0.00    -0.325 N 
HETATM   10  H14 UNK     1      19.979   2.056  31.079  1.00  0.00     0.169 HD
HETATM   11  O2  UNK     1      17.605   1.309  29.108  1.00  0.00    -0.271 OA
BRANCH   9  12
HETATM   12  C13 UNK     1      19.668   0.035  30.877  1.00  0.00     0.047 A 
HETATM   13  C16 UNK     1      19.192  -0.389  32.119  1.00  0.00    -0.031 A 
HETATM   14  C21 UNK     1      19.349  -1.719  32.508  1.00  0.00     0.009 A 
HETATM   15  C25 UNK     1      19.980  -2.626  31.657  1.00  0.00     0.001 A 
HETATM   16  C22 UNK     1      20.455  -2.203  30.416  1.00  0.00     0.009 A 
HETATM   17  C19 UNK     1      20.298  -0.873  30.026  1.00  0.00    -0.035 A 
HETATM   18  C24 UNK     1      20.817  -0.450  28.689  1.00  0.00     0.050 C 
BRANCH  13  19
HETATM   19  C20 UNK     1      18.513   0.559  33.053  1.00  0.00     0.036 C 
HETATM   20  C26 UNK     1      18.553   0.074  34.498  1.00  0.00     0.010 C 
ENDBRANCH  13  19
ENDBRANCH   9  12
ENDBRANCH   7   8
ENDBRANCH   2   7
BRANCH   1  21
HETATM   21  C5  UNK     1      18.684   6.489  34.232  1.00  0.00     0.312 C 
BRANCH  21  22
HETATM   22  C7  UNK     1      18.526   7.970  34.212  1.00  0.00    -0.011 A 
HETATM   23  C10 UNK     1      19.573   8.783  34.414  1.00  0.00     0.092 A 
HETATM   24  C14 UNK     1      19.463  10.251  34.403  1.00  0.00     0.288 A 
HETATM   25  O1  UNK     1      18.204  10.780  34.170  1.00  0.00    -0.275 OA
HETATM   26  O3  UNK     1      20.444  10.964  34.591  1.00  0.00    -0.260 OA
HETATM   27  C11 UNK     1      17.084   9.952  33.954  1.00  0.00     0.090 A 
HETATM   28  C9  UNK     1      17.203   8.562  33.968  1.00  0.00     0.006 A 
HETATM   29  C15 UNK     1      15.866  10.594  33.730  1.00  0.00     0.045 A 
HETATM   30  C12 UNK     1      16.042   7.808  33.746  1.00  0.00     0.015 A 
HETATM   31  C17 UNK     1      14.813   8.437  33.519  1.00  0.00     0.007 A 
HETATM   32  C18 UNK     1      14.725   9.828  33.511  1.00  0.00    -0.059 A 
HETATM   33  C23 UNK     1      13.412  10.492  33.269  1.00  0.00     0.048 C 
ENDBRANCH  21  22
ENDBRANCH   1  21
TORSDOF 6
ENDMDL
MODEL 7
REMARK VINA RESULT:      -9.6     10.747     12.506
REMARK  6 active torsions:
REMARK  status: ('A' for Active; 'I' for Inactive)
REMARK    1  A    between atoms: C5_11  and  N1_4 
REMARK    2  A    between atoms: C6_12  and  N2_5 
REMARK    3  A    between atoms: C13_19  and  N3_6 
REMARK       I    between atoms: C8_14  and  N3_6 
REMARK    4  A    between atoms: C5_11  and  C7_13 
REMARK    5  A    between atoms: C6_12  and  C8_14 
REMARK    6  A    between atoms: C16_22  and  C20_26 
ROOT
HETATM    1  N1  UNK     1      32.346  -6.009  36.323  1.00  0.00     0.096 N 
HETATM    2  N2  UNK     1      31.779  -6.830  33.609  1.00  0.00     0.100 N 
HETATM    3  C1  UNK     1      30.977  -5.996  35.791  1.00  0.00     0.303 C 
HETATM    4  C2  UNK     1      33.143  -7.047  35.658  1.00  0.00     0.303 C 
HETATM    5  C3  UNK     1      30.983  -5.790  34.272  1.00  0.00     0.303 C 
HETATM    6  C4  UNK     1      33.148  -6.843  34.139  1.00  0.00     0.303 C 
ENDROOT
BRANCH   2   7
HETATM    7  C6  UNK     1      31.786  -6.633  32.161  1.00  0.00     0.375 C 
BRANCH   7   8
HETATM    8  C8  UNK     1      31.297  -7.899  31.477  1.00  0.00     0.250 C 
HETATM    9  N3  UNK     1      30.411  -7.579  30.450  1.00  0.00    -0.325 N 
HETATM   10  H14 UNK     1      30.470  -6.625  30.110  1.00  0.00     0.169 HD
HETATM   11  O2  UNK     1      31.660  -9.019  31.822  1.00  0.00    -0.271 OA
BRANCH   9  12
HETATM   12  C13 UNK     1      29.740  -8.472  29.580  1.00  0.00     0.047 A 
HETATM   13  C16 UNK     1      28.396  -8.778  29.797  1.00  0.00    -0.031 A 
HETATM   14  C21 UNK     1      27.735  -9.658  28.940  1.00  0.00     0.009 A 
HETATM   15  C25 UNK     1      28.416 -10.231  27.867  1.00  0.00     0.001 A 
HETATM   16  C22 UNK     1      29.759  -9.925  27.650  1.00  0.00     0.009 A 
HETATM   17  C19 UNK     1      30.421  -9.045  28.507  1.00  0.00    -0.035 A 
HETATM   18  C24 UNK     1      31.861  -8.736  28.248  1.00  0.00     0.050 C 
BRANCH  13  19
HETATM   19  C20 UNK     1      27.639  -8.181  30.939  1.00  0.00     0.036 C 
HETATM   20  C26 UNK     1      26.770  -7.006  30.503  1.00  0.00     0.010 C 
ENDBRANCH  13  19
ENDBRANCH   9  12
ENDBRANCH   7   8
ENDBRANCH   2   7
BRANCH   1  21
HETATM   21  C5  UNK     1      32.338  -6.207  37.771  1.00  0.00     0.312 C 
BRANCH  21  22
HETATM   22  C7  UNK     1      30.994  -5.963  38.364  1.00  0.00    -0.011 A 
HETATM   23  C10 UNK     1      30.613  -4.733  38.736  1.00  0.00     0.092 A 
HETATM   24  C14 UNK     1      29.295  -4.444  39.327  1.00  0.00     0.288 A 
HETATM   25  O1  UNK     1      28.436  -5.520  39.488  1.00  0.00    -0.275 OA
HETATM   26  O3  UNK     1      28.981  -3.305  39.655  1.00  0.00    -0.260 OA
HETATM   27  C11 UNK     1      28.809  -6.825  39.107  1.00  0.00     0.090 A 
HETATM   28  C9  UNK     1      30.061  -7.083  38.549  1.00  0.00     0.006 A 
HETATM   29  C15 UNK     1      27.863  -7.830  39.317  1.00  0.00     0.045 A 
HETATM   30  C12 UNK     1      30.355  -8.407  38.197  1.00  0.00     0.015 A 
HETATM   31  C17 UNK     1      29.418  -9.427  38.401  1.00  0.00     0.007 A 
HETATM   32  C18 UNK     1      28.174  -9.139  38.960  1.00  0.00    -0.059 A 
HETATM   33  C23 UNK     1      27.181 -10.230  39.175  1.00  0.00     0.048 C 
ENDBRANCH  21  22
ENDBRANCH   1  21
TORSDOF 6
ENDMDL
MODEL 8
REMARK VINA RESULT:      -9.4      6.315     13.251
REMARK  6 active torsions:
REMARK  status: ('A' for Active; 'I' for Inactive)
REMARK    1  A    between atoms: C5_11  and  N1_4 
REMARK    2  A    between atoms: C6_12  and  N2_5 
REMARK    3  A    between atoms: C13_19  and  N3_6 
REMARK       I    between atoms: C8_14  and  N3_6 
REMARK    4  A    between atoms: C5_11  and  C7_13 
REMARK    5  A    between atoms: C6_12  and  C8_14 
REMARK    6  A    between atoms: C16_22  and  C20_26 
ROOT
HETATM    1  N1  UNK     1      18.185   6.894  32.750  1.00  0.00     0.096 N 
HETATM    2  N2  UNK     1      18.880   4.667  31.041  1.00  0.00     0.100 N 
HETATM    3  C1  UNK     1      17.614   5.558  32.966  1.00  0.00     0.303 C 
HETATM    4  C2  UNK     1      19.515   6.789  32.137  1.00  0.00     0.303 C 
HETATM    5  C3  UNK     1      17.550   4.772  31.651  1.00  0.00     0.303 C 
HETATM    6  C4  UNK     1      19.451   6.002  30.824  1.00  0.00     0.303 C 
ENDROOT
BRANCH   2   7
HETATM    7  C6  UNK     1      18.818   3.919  29.788  1.00  0.00     0.375 C 
BRANCH   7   8
HETATM    8  C8  UNK     1      18.458   2.472  30.080  1.00  0.00     0.250 C 
HETATM    9  N3  UNK     1      19.379   1.917  30.967  1.00  0.00    -0.325 N 
HETATM   10  H14 UNK     1      19.914   2.587  31.510  1.00  0.00     0.169 HD
HETATM   11  O2  UNK     1      17.487   1.918  29.576  1.00  0.00    -0.271 OA
BRANCH   9  12
HETATM   12  C13 UNK     1      19.393   0.599  31.483  1.00  0.00     0.047 A 
HETATM   13  C16 UNK     1      19.963  -0.434  30.738  1.00  0.00    -0.031 A 
HETATM   14  C21 UNK     1      19.978  -1.733  31.247  1.00  0.00     0.009 A 
HETATM   15  C25 UNK     1      19.423  -2.000  32.498  1.00  0.00     0.001 A 
HETATM   16  C22 UNK     1      18.853  -0.967  33.242  1.00  0.00     0.009 A 
HETATM   17  C19 UNK     1      18.838   0.332  32.734  1.00  0.00    -0.035 A 
HETATM   18  C24 UNK     1      18.221   1.419  33.555  1.00  0.00     0.050 C 
BRANCH  13  19
HETATM   19  C20 UNK     1      20.565  -0.181  29.394  1.00  0.00     0.036 C 
HETATM   20  C26 UNK     1      19.719  -0.759  28.265  1.00  0.00     0.010 C 
ENDBRANCH  13  19
ENDBRANCH   9  12
ENDBRANCH   7   8
ENDBRANCH   2   7
BRANCH   1  21
HETATM   21  C5  UNK     1      18.247   7.640  34.004  1.00  0.00     0.312 C 
BRANCH  21  22
HETATM   22  C7  UNK     1      17.214   8.711  34.073  1.00  0.00    -0.011 A 
HETATM   23  C10 UNK     1      15.911   8.412  34.170  1.00  0.00     0.092 A 
HETATM   24  C14 UNK     1      14.855   9.436  34.241  1.00  0.00     0.288 A 
HETATM   25  O1  UNK     1      15.267  10.759  34.203  1.00  0.00    -0.275 OA
HETATM   26  O3  UNK     1      13.672   9.125  34.330  1.00  0.00    -0.260 OA
HETATM   27  C11 UNK     1      16.629  11.104  34.100  1.00  0.00     0.090 A 
HETATM   28  C9  UNK     1      17.619  10.123  34.034  1.00  0.00     0.006 A 
HETATM   29  C15 UNK     1      16.928  12.468  34.069  1.00  0.00     0.045 A 
HETATM   30  C12 UNK     1      18.951  10.548  33.932  1.00  0.00     0.015 A 
HETATM   31  C17 UNK     1      19.266  11.912  33.901  1.00  0.00     0.007 A 
HETATM   32  C18 UNK     1      18.256  12.870  33.969  1.00  0.00    -0.059 A 
HETATM   33  C23 UNK     1      18.599  14.320  33.934  1.00  0.00     0.048 C 
ENDBRANCH  21  22
ENDBRANCH   1  21
TORSDOF 6
ENDMDL
MODEL 9
REMARK VINA RESULT:      -9.3     10.732     12.484
REMARK  6 active torsions:
REMARK  status: ('A' for Active; 'I' for Inactive)
REMARK    1  A    between atoms: C5_11  and  N1_4 
REMARK    2  A    between atoms: C6_12  and  N2_5 
REMARK    3  A    between atoms: C13_19  and  N3_6 
REMARK       I    between atoms: C8_14  and  N3_6 
REMARK    4  A    between atoms: C5_11  and  C7_13 
REMARK    5  A    between atoms: C6_12  and  C8_14 
REMARK    6  A    between atoms: C16_22  and  C20_26 
ROOT
HETATM    1  N1  UNK     1      32.397  -6.620  36.429  1.00  0.00     0.096 N 
HETATM    2  N2  UNK     1      33.639  -7.071  33.857  1.00  0.00     0.100 N 
HETATM    3  C1  UNK     1      33.049  -7.896  36.110  1.00  0.00     0.303 C 
HETATM    4  C2  UNK     1      33.025  -5.523  35.683  1.00  0.00     0.303 C 
HETATM    5  C3  UNK     1      33.009  -8.168  34.602  1.00  0.00     0.303 C 
HETATM    6  C4  UNK     1      32.986  -5.795  34.175  1.00  0.00     0.303 C 
ENDROOT
BRANCH   2   7
HETATM    7  C6  UNK     1      33.598  -7.330  32.420  1.00  0.00     0.375 C 
BRANCH   7   8
HETATM    8  C8  UNK     1      32.194  -7.753  32.022  1.00  0.00     0.250 C 
HETATM    9  N3  UNK     1      31.341  -6.650  32.022  1.00  0.00    -0.325 N 
HETATM   10  H14 UNK     1      31.802  -5.748  31.961  1.00  0.00     0.169 HD
HETATM   11  O2  UNK     1      31.905  -8.914  31.752  1.00  0.00    -0.271 OA
BRANCH   9  12
HETATM   12  C13 UNK     1      29.961  -6.627  31.709  1.00  0.00     0.047 A 
HETATM   13  C16 UNK     1      29.017  -6.533  32.732  1.00  0.00    -0.031 A 
HETATM   14  C21 UNK     1      27.657  -6.510  32.425  1.00  0.00     0.009 A 
HETATM   15  C25 UNK     1      27.240  -6.581  31.095  1.00  0.00     0.001 A 
HETATM   16  C22 UNK     1      28.184  -6.674  30.073  1.00  0.00     0.009 A 
HETATM   17  C19 UNK     1      29.545  -6.698  30.381  1.00  0.00    -0.035 A 
HETATM   18  C24 UNK     1      30.533  -6.798  29.263  1.00  0.00     0.050 C 
BRANCH  13  19
HETATM   19  C20 UNK     1      29.431  -6.457  34.166  1.00  0.00     0.036 C 
HETATM   20  C26 UNK     1      28.342  -6.956  35.109  1.00  0.00     0.010 C 
ENDBRANCH  13  19
ENDBRANCH   9  12
ENDBRANCH   7   8
ENDBRANCH   2   7
BRANCH   1  21
HETATM   21  C5  UNK     1      32.438  -6.361  37.866  1.00  0.00     0.312 C 
BRANCH  21  22
HETATM   22  C7  UNK     1      31.098  -6.010  38.413  1.00  0.00    -0.011 A 
HETATM   23  C10 UNK     1      30.810  -4.756  38.792  1.00  0.00     0.092 A 
HETATM   24  C14 UNK     1      29.500  -4.363  39.337  1.00  0.00     0.288 A 
HETATM   25  O1  UNK     1      28.546  -5.362  39.448  1.00  0.00    -0.275 OA
HETATM   26  O3  UNK     1      29.272  -3.206  39.672  1.00  0.00    -0.260 OA
HETATM   27  C11 UNK     1      28.819  -6.689  39.059  1.00  0.00     0.090 A 
HETATM   28  C9  UNK     1      30.065  -7.047  38.544  1.00  0.00     0.006 A 
HETATM   29  C15 UNK     1      27.784  -7.612  39.216  1.00  0.00     0.045 A 
HETATM   30  C12 UNK     1      30.258  -8.387  38.181  1.00  0.00     0.015 A 
HETATM   31  C17 UNK     1      29.230  -9.325  38.332  1.00  0.00     0.007 A 
HETATM   32  C18 UNK     1      27.994  -8.937  38.849  1.00  0.00    -0.059 A 
HETATM   33  C23 UNK     1      26.904  -9.941  39.008  1.00  0.00     0.048 C 
ENDBRANCH  21  22
ENDBRANCH   1  21
TORSDOF 6
ENDMDL
MODEL 10
REMARK VINA RESULT:      -9.3      1.853      9.848
REMARK  6 active torsions:
REMARK  status: ('A' for Active; 'I' for Inactive)
REMARK    1  A    between atoms: C5_11  and  N1_4 
REMARK    2  A    between atoms: C6_12  and  N2_5 
REMARK    3  A    between atoms: C13_19  and  N3_6 
REMARK       I    between atoms: C8_14  and  N3_6 
REMARK    4  A    between atoms: C5_11  and  C7_13 
REMARK    5  A    between atoms: C6_12  and  C8_14 
REMARK    6  A    between atoms: C16_22  and  C20_26 
ROOT
HETATM    1  N1  UNK     1      18.757  -0.977  35.188  1.00  0.00     0.096 N 
HETATM    2  N2  UNK     1      19.719  -3.107  36.891  1.00  0.00     0.100 N 
HETATM    3  C1  UNK     1      19.588  -2.064  34.655  1.00  0.00     0.303 C 
HETATM    4  C2  UNK     1      17.973  -1.448  36.337  1.00  0.00     0.303 C 
HETATM    5  C3  UNK     1      20.504  -2.635  35.744  1.00  0.00     0.303 C 
HETATM    6  C4  UNK     1      18.889  -2.020  37.425  1.00  0.00     0.303 C 
ENDROOT
BRANCH   2   7
HETATM    7  C6  UNK     1      20.593  -3.649  37.929  1.00  0.00     0.375 C 
BRANCH   7   8
HETATM    8  C8  UNK     1      20.845  -5.123  37.658  1.00  0.00     0.250 C 
HETATM    9  N3  UNK     1      19.735  -5.878  38.036  1.00  0.00    -0.325 N 
HETATM   10  H14 UNK     1      18.866  -5.359  38.115  1.00  0.00     0.169 HD
HETATM   11  O2  UNK     1      21.895  -5.537  37.178  1.00  0.00    -0.271 OA
BRANCH   9  12
HETATM   12  C13 UNK     1      19.576  -7.281  37.946  1.00  0.00     0.047 A 
HETATM   13  C16 UNK     1      20.223  -8.116  38.857  1.00  0.00    -0.031 A 
HETATM   14  C21 UNK     1      20.066  -9.499  38.768  1.00  0.00     0.009 A 
HETATM   15  C25 UNK     1      19.261 -10.048  37.769  1.00  0.00     0.001 A 
HETATM   16  C22 UNK     1      18.613  -9.213  36.859  1.00  0.00     0.009 A 
HETATM   17  C19 UNK     1      18.771  -7.830  36.948  1.00  0.00    -0.035 A 
HETATM   18  C24 UNK     1      18.064  -6.961  35.957  1.00  0.00     0.050 C 
BRANCH  13  19
HETATM   19  C20 UNK     1      21.093  -7.559  39.937  1.00  0.00     0.036 C 
HETATM   20  C26 UNK     1      22.562  -7.919  39.739  1.00  0.00     0.010 C 
ENDBRANCH  13  19
ENDBRANCH   9  12
ENDBRANCH   7   8
ENDBRANCH   2   7
BRANCH   1  21
HETATM   21  C5  UNK     1      17.883  -0.436  34.150  1.00  0.00     0.312 C 
BRANCH  21  22
HETATM   22  C7  UNK     1      18.572  -0.332  32.833  1.00  0.00    -0.011 A 
HETATM   23  C10 UNK     1      19.140  -1.403  32.261  1.00  0.00     0.092 A 
HETATM   24  C14 UNK     1      19.831  -1.348  30.962  1.00  0.00     0.288 A 
HETATM   25  O1  UNK     1      19.876  -0.114  30.332  1.00  0.00    -0.275 OA
HETATM   26  O3  UNK     1      20.338  -2.349  30.468  1.00  0.00    -0.260 OA
HETATM   27  C11 UNK     1      19.289   1.030  30.910  1.00  0.00     0.090 A 
HETATM   28  C9  UNK     1      18.637   0.963  32.141  1.00  0.00     0.006 A 
HETATM   29  C15 UNK     1      19.396   2.219  30.186  1.00  0.00     0.045 A 
HETATM   30  C12 UNK     1      18.080   2.145  32.647  1.00  0.00     0.015 A 
HETATM   31  C17 UNK     1      18.178   3.345  31.934  1.00  0.00     0.007 A 
HETATM   32  C18 UNK     1      18.835   3.382  30.705  1.00  0.00    -0.059 A 
HETATM   33  C23 UNK     1      18.936   4.664  29.952  1.00  0.00     0.048 C 
ENDBRANCH  21  22
ENDBRANCH   1  21
TORSDOF 6
ENDMDL
