MODEL 1
REMARK VINA RESULT:      -9.1      0.000      0.000
REMARK  2 active torsions:
REMARK  status: ('A' for Active; 'I' for Inactive)
REMARK    1  A    between atoms: C5_11  and  N1_5 
REMARK       I    between atoms: C6_12  and  N2_6 
REMARK    2  A    between atoms: C6_12  and  C7_13 
ROOT
HETATM    1  O1  UNK     1      18.886  -2.321  37.752  1.00  0.00    -0.267 OA
HETATM    2  N1  UNK     1      19.810  -1.568  32.842  1.00  0.00    -0.378 N 
HETATM    3  N2  UNK     1      19.696  -2.505  35.578  1.00  0.00    -0.345 N 
HETATM    4  C1  UNK     1      18.756  -1.122  33.757  1.00  0.00     0.143 C 
HETATM    5  C2  UNK     1      20.889  -2.397  33.383  1.00  0.00     0.143 C 
HETATM    6  C3  UNK     1      19.241  -1.168  35.203  1.00  0.00     0.146 C 
HETATM    7  C4  UNK     1      20.381  -3.270  34.532  1.00  0.00     0.146 C 
HETATM    8  C6  UNK     1      19.460  -2.964  36.873  1.00  0.00     0.260 C 
ENDROOT
BRANCH   8   9
HETATM    9  C7  UNK     1      19.928  -4.327  37.201  1.00  0.00     0.108 A 
HETATM   10  C10 UNK     1      21.120  -4.414  37.802  1.00  0.00     0.037 A 
HETATM   11  C12 UNK     1      21.665  -5.714  38.164  1.00  0.00    -0.001 A 
HETATM   12  C15 UNK     1      20.928  -6.857  37.873  1.00  0.00     0.089 A 
HETATM   13  C17 UNK     1      22.904  -5.852  38.792  1.00  0.00     0.014 A 
HETATM   14  O2  UNK     1      19.673  -6.759  37.240  1.00  0.00    -0.274 OA
HETATM   15  C18 UNK     1      21.394  -8.131  38.193  1.00  0.00     0.038 A 
HETATM   16  C11 UNK     1      19.126  -5.529  36.882  1.00  0.00     0.304 A 
HETATM   17  O3  UNK     1      18.033  -5.453  36.330  1.00  0.00    -0.259 OA
HETATM   18  C20 UNK     1      22.631  -8.261  38.820  1.00  0.00     0.003 A 
HETATM   19  C19 UNK     1      23.385  -7.124  39.119  1.00  0.00     0.001 A 
ENDBRANCH   8   9
BRANCH   2  20
HETATM   20  C5  UNK     1      19.814  -1.156  31.511  1.00  0.00     0.031 A 
HETATM   21  C8  UNK     1      19.367   0.134  31.138  1.00  0.00     0.053 A 
HETATM   22  C13 UNK     1      19.370   0.548  29.806  1.00  0.00     0.036 A 
HETATM   23 Cl1  UNK     1      18.819   2.124  29.391  1.00  0.00    -0.084 Cl
HETATM   24  C16 UNK     1      19.822  -0.317  28.808  1.00  0.00     0.024 A 
HETATM   25  C14 UNK     1      20.269  -1.595  29.144  1.00  0.00     0.004 A 
HETATM   26  C9  UNK     1      20.264  -2.009  30.476  1.00  0.00     0.029 A 
ENDBRANCH   2  20
TORSDOF 2
ENDMDL
MODEL 2
REMARK VINA RESULT:      -9.0      1.332      2.154
REMARK  2 active torsions:
REMARK  status: ('A' for Active; 'I' for Inactive)
REMARK    1  A    between atoms: C5_11  and  N1_5 
REMARK       I    between atoms: C6_12  and  N2_6 
REMARK    2  A    between atoms: C6_12  and  C7_13 
ROOT
HETATM    1  O1  UNK     1      19.226  -2.719  37.742  1.00  0.00    -0.267 OA
HETATM    2  N1  UNK     1      19.904  -1.676  32.845  1.00  0.00    -0.378 N 
HETATM    3  N2  UNK     1      19.890  -2.797  35.513  1.00  0.00    -0.345 N 
HETATM    4  C1  UNK     1      18.939  -1.231  33.854  1.00  0.00     0.143 C 
HETATM    5  C2  UNK     1      20.955  -2.608  33.259  1.00  0.00     0.143 C 
HETATM    6  C3  UNK     1      19.506  -1.411  35.260  1.00  0.00     0.146 C 
HETATM    7  C4  UNK     1      20.458  -3.527  34.376  1.00  0.00     0.146 C 
HETATM    8  C6  UNK     1      19.702  -3.332  36.787  1.00  0.00     0.260 C 
ENDROOT
BRANCH   8   9
HETATM    9  C7  UNK     1      20.095  -4.741  36.991  1.00  0.00     0.108 A 
HETATM   10  C10 UNK     1      19.149  -5.659  36.760  1.00  0.00     0.037 A 
HETATM   11  C12 UNK     1      19.442  -7.074  36.934  1.00  0.00    -0.001 A 
HETATM   12  C15 UNK     1      20.715  -7.451  37.345  1.00  0.00     0.089 A 
HETATM   13  C17 UNK     1      18.485  -8.065  36.703  1.00  0.00     0.014 A 
HETATM   14  O2  UNK     1      21.707  -6.481  37.587  1.00  0.00    -0.274 OA
HETATM   15  C18 UNK     1      21.059  -8.789  37.531  1.00  0.00     0.038 A 
HETATM   16  C11 UNK     1      21.457  -5.120  37.429  1.00  0.00     0.304 A 
HETATM   17  O3  UNK     1      22.327  -4.283  37.643  1.00  0.00    -0.259 OA
HETATM   18  C20 UNK     1      20.100  -9.772  37.299  1.00  0.00     0.003 A 
HETATM   19  C19 UNK     1      18.815  -9.411  36.886  1.00  0.00     0.001 A 
ENDBRANCH   8   9
BRANCH   2  20
HETATM   20  C5  UNK     1      19.857  -1.171  31.548  1.00  0.00     0.031 A 
HETATM   21  C8  UNK     1      19.363   0.129  31.281  1.00  0.00     0.053 A 
HETATM   22  C13 UNK     1      19.315   0.636  29.982  1.00  0.00     0.036 A 
HETATM   23 Cl1  UNK     1      18.708   2.220  29.697  1.00  0.00    -0.084 Cl
HETATM   24  C16 UNK     1      19.760  -0.143  28.913  1.00  0.00     0.024 A 
HETATM   25  C14 UNK     1      20.252  -1.428  29.143  1.00  0.00     0.004 A 
HETATM   26  C9  UNK     1      20.299  -1.934  30.442  1.00  0.00     0.029 A 
ENDBRANCH   2  20
TORSDOF 2
ENDMDL
MODEL 3
REMARK VINA RESULT:      -8.4     28.332     29.794
REMARK  2 active torsions:
REMARK  status: ('A' for Active; 'I' for Inactive)
REMARK    1  A    between atoms: C5_11  and  N1_5 
REMARK       I    between atoms: C6_12  and  N2_6 
REMARK    2  A    between atoms: C6_12  and  C7_13 
ROOT
HETATM    1  O1  UNK     1       9.101   5.793   6.866  1.00  0.00    -0.267 OA
HETATM    2  N1  UNK     1      13.193   8.186   8.613  1.00  0.00    -0.378 N 
HETATM    3  N2  UNK     1      10.575   7.035   8.169  1.00  0.00    -0.345 N 
HETATM    4  C1  UNK     1      12.978   7.148   7.601  1.00  0.00     0.143 C 
HETATM    5  C2  UNK     1      12.023   8.729   9.305  1.00  0.00     0.143 C 
HETATM    6  C3  UNK     1      11.542   7.186   7.085  1.00  0.00     0.146 C 
HETATM    7  C4  UNK     1      10.932   7.665   9.444  1.00  0.00     0.146 C 
HETATM    8  C6  UNK     1       9.401   6.321   7.937  1.00  0.00     0.260 C 
ENDROOT
BRANCH   8   9
HETATM    9  C7  UNK     1       8.459   6.186   9.067  1.00  0.00     0.108 A 
HETATM   10  C10 UNK     1       7.578   7.180   9.226  1.00  0.00     0.037 A 
HETATM   11  C12 UNK     1       6.610   7.136  10.312  1.00  0.00    -0.001 A 
HETATM   12  C15 UNK     1       6.619   6.048  11.177  1.00  0.00     0.089 A 
HETATM   13  C17 UNK     1       5.673   8.151  10.514  1.00  0.00     0.014 A 
HETATM   14  O2  UNK     1       7.549   5.004  11.005  1.00  0.00    -0.274 OA
HETATM   15  C18 UNK     1       5.720   5.946  12.236  1.00  0.00     0.038 A 
HETATM   16  C11 UNK     1       8.487   5.017   9.976  1.00  0.00     0.304 A 
HETATM   17  O3  UNK     1       9.293   4.104   9.835  1.00  0.00    -0.259 OA
HETATM   18  C20 UNK     1       4.788   6.962  12.432  1.00  0.00     0.003 A 
HETATM   19  C19 UNK     1       4.764   8.064  11.573  1.00  0.00     0.001 A 
ENDBRANCH   8   9
BRANCH   2  20
HETATM   20  C5  UNK     1      14.471   8.684   8.856  1.00  0.00     0.031 A 
HETATM   21  C8  UNK     1      15.435   7.927   9.565  1.00  0.00     0.053 A 
HETATM   22  C13 UNK     1      16.715   8.425   9.809  1.00  0.00     0.036 A 
HETATM   23 Cl1  UNK     1      17.858   7.476  10.675  1.00  0.00    -0.084 Cl
HETATM   24  C16 UNK     1      17.068   9.694   9.350  1.00  0.00     0.024 A 
HETATM   25  C14 UNK     1      16.142  10.465   8.648  1.00  0.00     0.004 A 
HETATM   26  C9  UNK     1      14.861   9.967   8.405  1.00  0.00     0.029 A 
ENDBRANCH   2  20
TORSDOF 2
ENDMDL
MODEL 4
REMARK VINA RESULT:      -8.3      6.932     11.633
REMARK  2 active torsions:
REMARK  status: ('A' for Active; 'I' for Inactive)
REMARK    1  A    between atoms: C5_11  and  N1_5 
REMARK       I    between atoms: C6_12  and  N2_6 
REMARK    2  A    between atoms: C6_12  and  C7_13 
ROOT
HETATM    1  O1  UNK     1      18.183   4.294  30.798  1.00  0.00    -0.267 OA
HETATM    2  N1  UNK     1      18.444   1.337  34.887  1.00  0.00    -0.378 N 
HETATM    3  N2  UNK     1      18.350   3.517  32.986  1.00  0.00    -0.345 N 
HETATM    4  C1  UNK     1      17.986   1.129  33.510  1.00  0.00     0.143 C 
HETATM    5  C2  UNK     1      18.985   2.651  35.244  1.00  0.00     0.143 C 
HETATM    6  C3  UNK     1      18.627   2.145  32.568  1.00  0.00     0.146 C 
HETATM    7  C4  UNK     1      18.308   3.756  34.431  1.00  0.00     0.146 C 
HETATM    8  C6  UNK     1      18.147   4.494  32.012  1.00  0.00     0.260 C 
ENDROOT
BRANCH   8   9
HETATM    9  C7  UNK     1      17.858   5.865  32.483  1.00  0.00     0.108 A 
HETATM   10  C10 UNK     1      16.569   6.167  32.669  1.00  0.00     0.037 A 
HETATM   11  C12 UNK     1      16.185   7.492  33.131  1.00  0.00    -0.001 A 
HETATM   12  C15 UNK     1      17.179   8.434  33.373  1.00  0.00     0.089 A 
HETATM   13  C17 UNK     1      14.851   7.851  33.339  1.00  0.00     0.014 A 
HETATM   14  O2  UNK     1      18.536   8.111  33.175  1.00  0.00    -0.274 OA
HETATM   15  C18 UNK     1      16.878   9.721  33.815  1.00  0.00     0.038 A 
HETATM   16  C11 UNK     1      18.933   6.851  32.734  1.00  0.00     0.304 A 
HETATM   17  O3  UNK     1      20.117   6.579  32.564  1.00  0.00    -0.259 OA
HETATM   18  C20 UNK     1      15.545  10.071  34.020  1.00  0.00     0.003 A 
HETATM   19  C19 UNK     1      14.533   9.138  33.783  1.00  0.00     0.001 A 
ENDBRANCH   8   9
BRANCH   2  20
HETATM   20  C5  UNK     1      18.424   0.291  35.806  1.00  0.00     0.031 A 
HETATM   21  C8  UNK     1      19.062  -0.943  35.532  1.00  0.00     0.053 A 
HETATM   22  C13 UNK     1      19.042  -1.992  36.452  1.00  0.00     0.036 A 
HETATM   23 Cl1  UNK     1      19.828  -3.477  36.083  1.00  0.00    -0.084 Cl
HETATM   24  C16 UNK     1      18.384  -1.836  37.672  1.00  0.00     0.024 A 
HETATM   25  C14 UNK     1      17.746  -0.633  37.973  1.00  0.00     0.004 A 
HETATM   26  C9  UNK     1      17.766   0.416  37.052  1.00  0.00     0.029 A 
ENDBRANCH   2  20
TORSDOF 2
ENDMDL
MODEL 5
REMARK VINA RESULT:      -8.3      8.143     12.587
REMARK  2 active torsions:
REMARK  status: ('A' for Active; 'I' for Inactive)
REMARK    1  A    between atoms: C5_11  and  N1_5 
REMARK       I    between atoms: C6_12  and  N2_6 
REMARK    2  A    between atoms: C6_12  and  C7_13 
ROOT
HETATM    1  O1  UNK     1      18.088   6.834  30.481  1.00  0.00    -0.267 OA
HETATM    2  N1  UNK     1      18.235   2.785  33.498  1.00  0.00    -0.378 N 
HETATM    3  N2  UNK     1      18.107   5.433  32.339  1.00  0.00    -0.345 N 
HETATM    4  C1  UNK     1      17.949   2.980  32.074  1.00  0.00     0.143 C 
HETATM    5  C2  UNK     1      18.592   3.958  34.299  1.00  0.00     0.143 C 
HETATM    6  C3  UNK     1      18.572   4.280  31.571  1.00  0.00     0.146 C 
HETATM    7  C4  UNK     1      17.889   5.210  33.771  1.00  0.00     0.146 C 
HETATM    8  C6  UNK     1      17.904   6.646  31.683  1.00  0.00     0.260 C 
ENDROOT
BRANCH   8   9
HETATM    9  C7  UNK     1      17.422   7.781  32.499  1.00  0.00     0.108 A 
HETATM   10  C10 UNK     1      16.131   8.102  32.360  1.00  0.00     0.037 A 
HETATM   11  C12 UNK     1      15.564   9.206  33.122  1.00  0.00    -0.001 A 
HETATM   12  C15 UNK     1      16.386   9.915  33.990  1.00  0.00     0.089 A 
HETATM   13  C17 UNK     1      14.222   9.576  33.009  1.00  0.00     0.014 A 
HETATM   14  O2  UNK     1      17.745   9.572  34.132  1.00  0.00    -0.274 OA
HETATM   15  C18 UNK     1      15.906  10.982  34.747  1.00  0.00     0.038 A 
HETATM   16  C11 UNK     1      18.315   8.522  33.417  1.00  0.00     0.304 A 
HETATM   17  O3  UNK     1      19.500   8.231  33.547  1.00  0.00    -0.259 OA
HETATM   18  C20 UNK     1      14.566  11.346  34.629  1.00  0.00     0.003 A 
HETATM   19  C19 UNK     1      13.726  10.644  33.761  1.00  0.00     0.001 A 
ENDBRANCH   8   9
BRANCH   2  20
HETATM   20  C5  UNK     1      18.231   1.506  34.052  1.00  0.00     0.031 A 
HETATM   21  C8  UNK     1      17.897   1.293  35.410  1.00  0.00     0.053 A 
HETATM   22  C13 UNK     1      17.894   0.013  35.966  1.00  0.00     0.036 A 
HETATM   23 Cl1  UNK     1      17.483  -0.207  37.622  1.00  0.00    -0.084 Cl
HETATM   24  C16 UNK     1      18.222  -1.090  35.178  1.00  0.00     0.024 A 
HETATM   25  C14 UNK     1      18.556  -0.913  33.835  1.00  0.00     0.004 A 
HETATM   26  C9  UNK     1      18.561   0.367  33.280  1.00  0.00     0.029 A 
ENDBRANCH   2  20
TORSDOF 2
ENDMDL
MODEL 6
REMARK VINA RESULT:      -8.3      8.751     11.193
REMARK  2 active torsions:
REMARK  status: ('A' for Active; 'I' for Inactive)
REMARK    1  A    between atoms: C5_11  and  N1_5 
REMARK       I    between atoms: C6_12  and  N2_6 
REMARK    2  A    between atoms: C6_12  and  C7_13 
ROOT
HETATM    1  O1  UNK     1      20.157   6.199  32.999  1.00  0.00    -0.267 OA
HETATM    2  N1  UNK     1      15.934   8.859  33.785  1.00  0.00    -0.378 N 
HETATM    3  N2  UNK     1      17.935   6.829  33.287  1.00  0.00    -0.345 N 
HETATM    4  C1  UNK     1      17.355   9.111  34.040  1.00  0.00     0.143 C 
HETATM    5  C2  UNK     1      15.561   7.598  33.141  1.00  0.00     0.143 C 
HETATM    6  C3  UNK     1      18.228   8.251  33.129  1.00  0.00     0.146 C 
HETATM    7  C4  UNK     1      16.532   6.481  33.528  1.00  0.00     0.146 C 
HETATM    8  C6  UNK     1      18.978   5.908  33.202  1.00  0.00     0.260 C 
ENDROOT
BRANCH   8   9
HETATM    9  C7  UNK     1      18.635   4.482  33.380  1.00  0.00     0.108 A 
HETATM   10  C10 UNK     1      18.783   3.988  34.614  1.00  0.00     0.037 A 
HETATM   11  C12 UNK     1      18.471   2.593  34.888  1.00  0.00    -0.001 A 
HETATM   12  C15 UNK     1      18.019   1.788  33.848  1.00  0.00     0.089 A 
HETATM   13  C17 UNK     1      18.610   2.035  36.161  1.00  0.00     0.014 A 
HETATM   14  O2  UNK     1      17.865   2.314  32.550  1.00  0.00    -0.274 OA
HETATM   15  C18 UNK     1      17.703   0.445  34.044  1.00  0.00     0.038 A 
HETATM   16  C11 UNK     1      18.156   3.644  32.258  1.00  0.00     0.304 A 
HETATM   17  O3  UNK     1      18.019   4.093  31.125  1.00  0.00    -0.259 OA
HETATM   18  C20 UNK     1      17.845  -0.104  35.316  1.00  0.00     0.003 A 
HETATM   19  C19 UNK     1      18.298   0.689  36.373  1.00  0.00     0.001 A 
ENDBRANCH   8   9
BRANCH   2  20
HETATM   20  C5  UNK     1      14.978   9.826  34.089  1.00  0.00     0.031 A 
HETATM   21  C8  UNK     1      14.861  10.362  35.394  1.00  0.00     0.053 A 
HETATM   22  C13 UNK     1      13.904  11.329  35.699  1.00  0.00     0.036 A 
HETATM   23 Cl1  UNK     1      13.791  11.956  37.297  1.00  0.00    -0.084 Cl
HETATM   24  C16 UNK     1      13.037  11.790  34.708  1.00  0.00     0.024 A 
HETATM   25  C14 UNK     1      13.127  11.282  33.412  1.00  0.00     0.004 A 
HETATM   26  C9  UNK     1      14.084  10.313  33.107  1.00  0.00     0.029 A 
ENDBRANCH   2  20
TORSDOF 2
ENDMDL
MODEL 7
REMARK VINA RESULT:      -8.3      6.486      8.786
REMARK  2 active torsions:
REMARK  status: ('A' for Active; 'I' for Inactive)
REMARK    1  A    between atoms: C5_11  and  N1_5 
REMARK       I    between atoms: C6_12  and  N2_6 
REMARK    2  A    between atoms: C6_12  and  C7_13 
ROOT
HETATM    1  O1  UNK     1      18.183   2.208  30.830  1.00  0.00    -0.267 OA
HETATM    2  N1  UNK     1      18.641   6.624  33.242  1.00  0.00    -0.378 N 
HETATM    3  N2  UNK     1      18.269   3.861  32.466  1.00  0.00    -0.345 N 
HETATM    4  C1  UNK     1      19.049   6.142  31.919  1.00  0.00     0.143 C 
HETATM    5  C2  UNK     1      17.913   5.704  34.118  1.00  0.00     0.143 C 
HETATM    6  C3  UNK     1      18.198   4.948  31.493  1.00  0.00     0.146 C 
HETATM    7  C4  UNK     1      18.352   4.259  33.875  1.00  0.00     0.146 C 
HETATM    8  C6  UNK     1      18.254   2.543  32.013  1.00  0.00     0.260 C 
ENDROOT
BRANCH   8   9
HETATM    9  C7  UNK     1      18.339   1.477  33.033  1.00  0.00     0.108 A 
HETATM   10  C10 UNK     1      17.765   1.740  34.212  1.00  0.00     0.037 A 
HETATM   11  C12 UNK     1      17.797   0.752  35.280  1.00  0.00    -0.001 A 
HETATM   12  C15 UNK     1      18.435  -0.463  35.054  1.00  0.00     0.089 A 
HETATM   13  C17 UNK     1      17.210   0.984  36.526  1.00  0.00     0.014 A 
HETATM   14  O2  UNK     1      19.039  -0.734  33.810  1.00  0.00    -0.274 OA
HETATM   15  C18 UNK     1      18.502  -1.450  36.035  1.00  0.00     0.038 A 
HETATM   16  C11 UNK     1      19.024   0.191  32.769  1.00  0.00     0.304 A 
HETATM   17  O3  UNK     1      19.552  -0.053  31.690  1.00  0.00    -0.259 OA
HETATM   18  C20 UNK     1      17.914  -1.212  37.275  1.00  0.00     0.003 A 
HETATM   19  C19 UNK     1      17.270   0.003  37.521  1.00  0.00     0.001 A 
ENDBRANCH   8   9
BRANCH   2  20
HETATM   20  C5  UNK     1      18.884   7.942  33.621  1.00  0.00     0.031 A 
HETATM   21  C8  UNK     1      17.856   8.915  33.605  1.00  0.00     0.053 A 
HETATM   22  C13 UNK     1      18.099  10.235  33.984  1.00  0.00     0.036 A 
HETATM   23 Cl1  UNK     1      16.824  11.390  33.951  1.00  0.00    -0.084 Cl
HETATM   24  C16 UNK     1      19.376  10.620  34.392  1.00  0.00     0.024 A 
HETATM   25  C14 UNK     1      20.411   9.684  34.420  1.00  0.00     0.004 A 
HETATM   26  C9  UNK     1      20.168   8.364  34.039  1.00  0.00     0.029 A 
ENDBRANCH   2  20
TORSDOF 2
ENDMDL
MODEL 8
REMARK VINA RESULT:      -8.3      6.904     11.367
REMARK  2 active torsions:
REMARK  status: ('A' for Active; 'I' for Inactive)
REMARK    1  A    between atoms: C5_11  and  N1_5 
REMARK       I    between atoms: C6_12  and  N2_6 
REMARK    2  A    between atoms: C6_12  and  C7_13 
ROOT
HETATM    1  O1  UNK     1      18.136   4.250  30.969  1.00  0.00    -0.267 OA
HETATM    2  N1  UNK     1      18.429   1.356  35.100  1.00  0.00    -0.378 N 
HETATM    3  N2  UNK     1      18.401   3.499  33.156  1.00  0.00    -0.345 N 
HETATM    4  C1  UNK     1      17.841   1.171  33.770  1.00  0.00     0.143 C 
HETATM    5  C2  UNK     1      19.127   2.612  35.378  1.00  0.00     0.143 C 
HETATM    6  C3  UNK     1      18.503   2.098  32.754  1.00  0.00     0.146 C 
HETATM    7  C4  UNK     1      18.502   3.767  34.594  1.00  0.00     0.146 C 
HETATM    8  C6  UNK     1      18.220   4.475  32.177  1.00  0.00     0.260 C 
ENDROOT
BRANCH   8   9
HETATM    9  C7  UNK     1      18.110   5.876  32.633  1.00  0.00     0.108 A 
HETATM   10  C10 UNK     1      19.241   6.447  33.063  1.00  0.00     0.037 A 
HETATM   11  C12 UNK     1      19.233   7.825  33.533  1.00  0.00    -0.001 A 
HETATM   12  C15 UNK     1      18.035   8.531  33.526  1.00  0.00     0.089 A 
HETATM   13  C17 UNK     1      20.389   8.462  33.990  1.00  0.00     0.014 A 
HETATM   14  O2  UNK     1      16.848   7.924  33.072  1.00  0.00    -0.274 OA
HETATM   15  C18 UNK     1      17.961   9.852  33.963  1.00  0.00     0.038 A 
HETATM   16  C11 UNK     1      16.824   6.608  32.617  1.00  0.00     0.304 A 
HETATM   17  O3  UNK     1      15.786   6.088  32.224  1.00  0.00    -0.259 OA
HETATM   18  C20 UNK     1      19.118  10.480  34.418  1.00  0.00     0.003 A 
HETATM   19  C19 UNK     1      20.330   9.786  34.432  1.00  0.00     0.001 A 
ENDBRANCH   8   9
BRANCH   2  20
HETATM   20  C5  UNK     1      18.378   0.333  36.045  1.00  0.00     0.031 A 
HETATM   21  C8  UNK     1      18.979  -0.925  35.802  1.00  0.00     0.053 A 
HETATM   22  C13 UNK     1      18.928  -1.950  36.747  1.00  0.00     0.036 A 
HETATM   23 Cl1  UNK     1      19.671  -3.466  36.416  1.00  0.00    -0.084 Cl
HETATM   24  C16 UNK     1      18.276  -1.745  37.963  1.00  0.00     0.024 A 
HETATM   25  C14 UNK     1      17.673  -0.516  38.233  1.00  0.00     0.004 A 
HETATM   26  C9  UNK     1      17.723   0.508  37.287  1.00  0.00     0.029 A 
ENDBRANCH   2  20
TORSDOF 2
ENDMDL
MODEL 9
REMARK VINA RESULT:      -8.2     27.588     29.573
REMARK  2 active torsions:
REMARK  status: ('A' for Active; 'I' for Inactive)
REMARK    1  A    between atoms: C5_11  and  N1_5 
REMARK       I    between atoms: C6_12  and  N2_6 
REMARK    2  A    between atoms: C6_12  and  C7_13 
ROOT
HETATM    1  O1  UNK     1      14.956   4.714   9.231  1.00  0.00    -0.267 OA
HETATM    2  N1  UNK     1      16.400   9.503   9.943  1.00  0.00    -0.378 N 
HETATM    3  N2  UNK     1      15.045   7.039   9.258  1.00  0.00    -0.345 N 
HETATM    4  C1  UNK     1      16.800   8.223  10.534  1.00  0.00     0.143 C 
HETATM    5  C2  UNK     1      15.383   9.489   8.890  1.00  0.00     0.143 C 
HETATM    6  C3  UNK     1      16.466   7.067   9.595  1.00  0.00     0.146 C 
HETATM    7  C4  UNK     1      14.393   8.343   9.104  1.00  0.00     0.146 C 
HETATM    8  C6  UNK     1      14.408   5.809   9.104  1.00  0.00     0.260 C 
ENDROOT
BRANCH   8   9
HETATM    9  C7  UNK     1      12.968   5.832   8.774  1.00  0.00     0.108 A 
HETATM   10  C10 UNK     1      12.654   6.162   7.516  1.00  0.00     0.037 A 
HETATM   11  C12 UNK     1      11.262   6.212   7.096  1.00  0.00    -0.001 A 
HETATM   12  C15 UNK     1      10.269   5.914   8.023  1.00  0.00     0.089 A 
HETATM   13  C17 UNK     1      10.889   6.550   5.793  1.00  0.00     0.014 A 
HETATM   14  O2  UNK     1      10.605   5.567   9.346  1.00  0.00    -0.274 OA
HETATM   15  C18 UNK     1       8.917   5.944   7.684  1.00  0.00     0.038 A 
HETATM   16  C11 UNK     1      11.928   5.511   9.777  1.00  0.00     0.304 A 
HETATM   17  O3  UNK     1      12.211   5.209  10.931  1.00  0.00    -0.259 OA
HETATM   18  C20 UNK     1       8.554   6.283   6.383  1.00  0.00     0.003 A 
HETATM   19  C19 UNK     1       9.537   6.586   5.439  1.00  0.00     0.001 A 
ENDBRANCH   8   9
BRANCH   2  20
HETATM   20  C5  UNK     1      17.021  10.687  10.332  1.00  0.00     0.031 A 
HETATM   21  C8  UNK     1      18.370  10.956   9.998  1.00  0.00     0.053 A 
HETATM   22  C13 UNK     1      18.994  12.141  10.387  1.00  0.00     0.036 A 
HETATM   23 Cl1  UNK     1      20.636  12.431   9.962  1.00  0.00    -0.084 Cl
HETATM   24  C16 UNK     1      18.286  13.094  11.120  1.00  0.00     0.024 A 
HETATM   25  C14 UNK     1      16.954  12.859  11.465  1.00  0.00     0.004 A 
HETATM   26  C9  UNK     1      16.332  11.672  11.077  1.00  0.00     0.029 A 
ENDBRANCH   2  20
TORSDOF 2
ENDMDL
MODEL 10
REMARK VINA RESULT:      -8.2     28.662     30.406
REMARK  2 active torsions:
REMARK  status: ('A' for Active; 'I' for Inactive)
REMARK    1  A    between atoms: C5_11  and  N1_5 
REMARK       I    between atoms: C6_12  and  N2_6 
REMARK    2  A    between atoms: C6_12  and  C7_13 
ROOT
HETATM    1  O1  UNK     1      15.512   6.593   9.886  1.00  0.00    -0.267 OA
HETATM    2  N1  UNK     1      16.672  11.437   9.040  1.00  0.00    -0.378 N 
HETATM    3  N2  UNK     1      15.477   8.805   9.163  1.00  0.00    -0.345 N 
HETATM    4  C1  UNK     1      17.119  10.442  10.019  1.00  0.00     0.143 C 
HETATM    5  C2  UNK     1      15.696  11.024   8.031  1.00  0.00     0.143 C 
HETATM    6  C3  UNK     1      16.881   9.027   9.497  1.00  0.00     0.146 C 
HETATM    7  C4  UNK     1      14.761   9.948   8.587  1.00  0.00     0.146 C 
HETATM    8  C6  UNK     1      14.912   7.553   9.403  1.00  0.00     0.260 C 
ENDROOT
BRANCH   8   9
HETATM    9  C7  UNK     1      13.485   7.380   9.060  1.00  0.00     0.108 A 
HETATM   10  C10 UNK     1      13.223   6.945   7.823  1.00  0.00     0.037 A 
HETATM   11  C12 UNK     1      11.847   6.744   7.392  1.00  0.00    -0.001 A 
HETATM   12  C15 UNK     1      10.817   7.013   8.286  1.00  0.00     0.089 A 
HETATM   13  C17 UNK     1      11.527   6.290   6.110  1.00  0.00     0.014 A 
HETATM   14  O2  UNK     1      11.099   7.471   9.588  1.00  0.00    -0.274 OA
HETATM   15  C18 UNK     1       9.479   6.842   7.936  1.00  0.00     0.038 A 
HETATM   16  C11 UNK     1      12.404   7.673  10.029  1.00  0.00     0.304 A 
HETATM   17  O3  UNK     1      12.640   8.073  11.163  1.00  0.00    -0.259 OA
HETATM   18  C20 UNK     1       9.168   6.389   6.655  1.00  0.00     0.003 A 
HETATM   19  C19 UNK     1      10.190   6.114   5.744  1.00  0.00     0.001 A 
ENDBRANCH   8   9
BRANCH   2  20
HETATM   20  C5  UNK     1      17.216  12.720   9.037  1.00  0.00     0.031 A 
HETATM   21  C8  UNK     1      18.006  13.183   7.957  1.00  0.00     0.053 A 
HETATM   22  C13 UNK     1      18.551  14.467   7.953  1.00  0.00     0.036 A 
HETATM   23 Cl1  UNK     1      19.507  14.993   6.623  1.00  0.00    -0.084 Cl
HETATM   24  C16 UNK     1      18.320  15.326   9.028  1.00  0.00     0.024 A 
HETATM   25  C14 UNK     1      17.545  14.900  10.107  1.00  0.00     0.004 A 
HETATM   26  C9  UNK     1      17.001  13.615  10.111  1.00  0.00     0.029 A 
ENDBRANCH   2  20
TORSDOF 2
ENDMDL
