MODEL 1
REMARK VINA RESULT:      -9.8      0.000      0.000
REMARK  2 active torsions:
REMARK  status: ('A' for Active; 'I' for Inactive)
REMARK       I    between atoms: C11_17  and  N1_4 
REMARK    1  A    between atoms: C2_8  and  N1_4 
REMARK    2  A    between atoms: C11_17  and  C6_12 
ROOT
HETATM    1  O2  UNK     1      17.624   3.288  32.874  1.00  0.00    -0.267 OA
HETATM    2  N1  UNK     1      18.859   4.764  31.517  1.00  0.00    -0.323 N 
HETATM    3  C11 UNK     1      18.338   3.537  31.905  1.00  0.00     0.262 C 
HETATM    4  H5  UNK     1      19.418   4.805  30.669  1.00  0.00     0.169 HD
ENDROOT
BRANCH   3   5
HETATM    5  C6  UNK     1      18.730   2.456  30.991  1.00  0.00     0.108 A 
HETATM    6  C13 UNK     1      18.669   2.610  29.520  1.00  0.00     0.304 A 
HETATM    7  O1  UNK     1      19.069   1.514  28.761  1.00  0.00    -0.274 OA
HETATM    8  O3  UNK     1      18.288   3.649  28.992  1.00  0.00    -0.259 OA
HETATM    9  C7  UNK     1      19.510   0.318  29.357  1.00  0.00     0.089 A 
HETATM   10  C15 UNK     1      19.890  -0.724  28.514  1.00  0.00     0.038 A 
HETATM   11  C5  UNK     1      19.560   0.194  30.742  1.00  0.00    -0.001 A 
HETATM   12  C17 UNK     1      20.332  -1.921  29.075  1.00  0.00     0.003 A 
HETATM   13  C16 UNK     1      20.387  -2.063  30.463  1.00  0.00     0.001 A 
HETATM   14  C14 UNK     1      20.003  -1.009  31.297  1.00  0.00     0.014 A 
HETATM   15  C9  UNK     1      19.148   1.322  31.564  1.00  0.00     0.037 A 
ENDBRANCH   3   5
BRANCH   2  16
HETATM   16  C2  UNK     1      18.686   6.016  32.157  1.00  0.00     0.037 A 
HETATM   17  C4  UNK     1      17.484   6.690  31.987  1.00  0.00     0.061 A 
HETATM   18  C1  UNK     1      17.367   7.919  32.640  1.00  0.00     0.064 A 
HETATM   19  N2  UNK     1      16.346   8.829  32.692  1.00  0.00    -0.278 N 
HETATM   20  C3  UNK     1      18.381   8.461  33.423  1.00  0.00     0.011 A 
HETATM   21  H6  UNK     1      15.442   8.771  32.239  1.00  0.00     0.189 HD
HETATM   22  N3  UNK     1      16.613   9.913  33.439  1.00  0.00    -0.186 NA
HETATM   23  C12 UNK     1      17.851   9.685  33.882  1.00  0.00     0.152 A 
HETATM   24  C10 UNK     1      19.585   7.754  33.575  1.00  0.00     0.017 A 
HETATM   25  C8  UNK     1      19.723   6.519  32.928  1.00  0.00     0.030 A 
ENDBRANCH   2  16
TORSDOF 2
ENDMDL
MODEL 2
REMARK VINA RESULT:      -9.7      8.452     12.557
REMARK  2 active torsions:
REMARK  status: ('A' for Active; 'I' for Inactive)
REMARK       I    between atoms: C11_17  and  N1_4 
REMARK    1  A    between atoms: C2_8  and  N1_4 
REMARK    2  A    between atoms: C11_17  and  C6_12 
ROOT
HETATM    1  O2  UNK     1      20.916  -4.204  37.668  1.00  0.00    -0.267 OA
HETATM    2  N1  UNK     1      19.454  -5.138  36.075  1.00  0.00    -0.323 N 
HETATM    3  C11 UNK     1      20.073  -4.113  36.778  1.00  0.00     0.262 C 
HETATM    4  H5  UNK     1      18.789  -4.890  35.346  1.00  0.00     0.169 HD
ENDROOT
BRANCH   3   5
HETATM    5  C6  UNK     1      19.613  -2.787  36.344  1.00  0.00     0.108 A 
HETATM    6  C13 UNK     1      19.917  -2.252  34.998  1.00  0.00     0.304 A 
HETATM    7  O1  UNK     1      19.425  -0.984  34.704  1.00  0.00    -0.274 OA
HETATM    8  O3  UNK     1      20.570  -2.890  34.179  1.00  0.00    -0.259 OA
HETATM    9  C7  UNK     1      18.673  -0.244  35.636  1.00  0.00     0.089 A 
HETATM   10  C15 UNK     1      18.222   1.017  35.251  1.00  0.00     0.038 A 
HETATM   11  C5  UNK     1      18.398  -0.765  36.896  1.00  0.00    -0.001 A 
HETATM   12  C17 UNK     1      17.476   1.773  36.152  1.00  0.00     0.003 A 
HETATM   13  C16 UNK     1      17.191   1.265  37.422  1.00  0.00     0.001 A 
HETATM   14  C14 UNK     1      17.649  -0.001  37.795  1.00  0.00     0.014 A 
HETATM   15  C9  UNK     1      18.899  -2.089  37.235  1.00  0.00     0.037 A 
ENDBRANCH   3   5
BRANCH   2  16
HETATM   16  C2  UNK     1      19.654  -6.531  36.226  1.00  0.00     0.037 A 
HETATM   17  C4  UNK     1      18.944  -7.202  37.213  1.00  0.00     0.061 A 
HETATM   18  C1  UNK     1      19.179  -8.575  37.318  1.00  0.00     0.064 A 
HETATM   19  N2  UNK     1      18.664  -9.525  38.158  1.00  0.00    -0.278 N 
HETATM   20  C3  UNK     1      20.069  -9.257  36.496  1.00  0.00     0.011 A 
HETATM   21  H6  UNK     1      17.982  -9.395  38.895  1.00  0.00     0.189 HD
HETATM   22  N3  UNK     1      19.144 -10.762  37.950  1.00  0.00    -0.186 NA
HETATM   23  C12 UNK     1      19.998 -10.595  36.937  1.00  0.00     0.152 A 
HETATM   24  C10 UNK     1      20.772  -8.549  35.507  1.00  0.00     0.017 A 
HETATM   25  C8  UNK     1      20.551  -7.171  35.384  1.00  0.00     0.030 A 
ENDBRANCH   2  16
TORSDOF 2
ENDMDL
MODEL 3
REMARK VINA RESULT:      -9.6      8.189     10.205
REMARK  2 active torsions:
REMARK  status: ('A' for Active; 'I' for Inactive)
REMARK       I    between atoms: C11_17  and  N1_4 
REMARK    1  A    between atoms: C2_8  and  N1_4 
REMARK    2  A    between atoms: C11_17  and  C6_12 
ROOT
HETATM    1  O2  UNK     1      21.270  -3.731  37.166  1.00  0.00    -0.267 OA
HETATM    2  N1  UNK     1      18.970  -3.654  36.663  1.00  0.00    -0.323 N 
HETATM    3  C11 UNK     1      20.190  -4.265  36.921  1.00  0.00     0.262 C 
HETATM    4  H5  UNK     1      18.159  -4.245  36.499  1.00  0.00     0.169 HD
ENDROOT
BRANCH   3   5
HETATM    5  C6  UNK     1      20.094  -5.730  36.880  1.00  0.00     0.108 A 
HETATM    6  C13 UNK     1      20.122  -6.483  35.606  1.00  0.00     0.304 A 
HETATM    7  O1  UNK     1      20.024  -7.869  35.698  1.00  0.00    -0.274 OA
HETATM    8  O3  UNK     1      20.226  -5.921  34.522  1.00  0.00    -0.259 OA
HETATM    9  C7  UNK     1      19.906  -8.526  36.938  1.00  0.00     0.089 A 
HETATM   10  C15 UNK     1      19.814  -9.916  36.929  1.00  0.00     0.038 A 
HETATM   11  C5  UNK     1      19.881  -7.799  38.123  1.00  0.00    -0.001 A 
HETATM   12  C17 UNK     1      19.696 -10.594  38.140  1.00  0.00     0.003 A 
HETATM   13  C16 UNK     1      19.670  -9.880  39.340  1.00  0.00     0.001 A 
HETATM   14  C14 UNK     1      19.763  -8.485  39.334  1.00  0.00     0.014 A 
HETATM   15  C9  UNK     1      19.982  -6.348  38.062  1.00  0.00     0.037 A 
ENDBRANCH   3   5
BRANCH   2  16
HETATM   16  C2  UNK     1      18.692  -2.266  36.623  1.00  0.00     0.037 A 
HETATM   17  C4  UNK     1      19.005  -1.558  35.470  1.00  0.00     0.061 A 
HETATM   18  C1  UNK     1      18.710  -0.193  35.484  1.00  0.00     0.064 A 
HETATM   19  N2  UNK     1      18.880   0.786  34.541  1.00  0.00    -0.278 N 
HETATM   20  C3  UNK     1      18.136   0.447  36.576  1.00  0.00     0.011 A 
HETATM   21  H6  UNK     1      19.273   0.689  33.613  1.00  0.00     0.189 HD
HETATM   22  N3  UNK     1      18.466   2.002  34.931  1.00  0.00    -0.186 NA
HETATM   23  C12 UNK     1      18.013   1.792  36.169  1.00  0.00     0.152 A 
HETATM   24  C10 UNK     1      17.831  -0.298  37.728  1.00  0.00     0.017 A 
HETATM   25  C8  UNK     1      18.119  -1.668  37.734  1.00  0.00     0.030 A 
ENDBRANCH   2  16
TORSDOF 2
ENDMDL
MODEL 4
REMARK VINA RESULT:      -9.5     13.419     16.289
REMARK  2 active torsions:
REMARK  status: ('A' for Active; 'I' for Inactive)
REMARK       I    between atoms: C11_17  and  N1_4 
REMARK    1  A    between atoms: C2_8  and  N1_4 
REMARK    2  A    between atoms: C11_17  and  C6_12 
ROOT
HETATM    1  O2  UNK     1      16.998  -1.837  16.870  1.00  0.00    -0.267 OA
HETATM    2  N1  UNK     1      19.142  -0.878  16.701  1.00  0.00    -0.323 N 
HETATM    3  C11 UNK     1      18.090  -1.701  16.323  1.00  0.00     0.262 C 
HETATM    4  H5  UNK     1      19.978  -0.866  16.122  1.00  0.00     0.169 HD
ENDROOT
BRANCH   3   5
HETATM    5  C6  UNK     1      18.398  -2.470  15.109  1.00  0.00     0.108 A 
HETATM    6  C13 UNK     1      18.951  -1.830  13.894  1.00  0.00     0.304 A 
HETATM    7  O1  UNK     1      19.202  -2.664  12.808  1.00  0.00    -0.274 OA
HETATM    8  O3  UNK     1      19.179  -0.627  13.841  1.00  0.00    -0.259 OA
HETATM    9  C7  UNK     1      18.945  -4.048  12.859  1.00  0.00     0.089 A 
HETATM   10  C15 UNK     1      19.229  -4.801  11.722  1.00  0.00     0.038 A 
HETATM   11  C5  UNK     1      18.425  -4.629  14.011  1.00  0.00    -0.001 A 
HETATM   12  C17 UNK     1      18.985  -6.173  11.742  1.00  0.00     0.003 A 
HETATM   13  C16 UNK     1      18.463  -6.773  12.890  1.00  0.00     0.001 A 
HETATM   14  C14 UNK     1      18.184  -6.005  14.023  1.00  0.00     0.014 A 
HETATM   15  C9  UNK     1      18.152  -3.784  15.164  1.00  0.00     0.037 A 
ENDBRANCH   3   5
BRANCH   2  16
HETATM   16  C2  UNK     1      19.195  -0.002  17.813  1.00  0.00     0.037 A 
HETATM   17  C4  UNK     1      19.493  -0.529  19.062  1.00  0.00     0.061 A 
HETATM   18  C1  UNK     1      19.532   0.379  20.122  1.00  0.00     0.064 A 
HETATM   19  N2  UNK     1      19.789   0.210  21.457  1.00  0.00    -0.278 N 
HETATM   20  C3  UNK     1      19.292   1.739  19.965  1.00  0.00     0.011 A 
HETATM   21  H6  UNK     1      20.007  -0.652  21.940  1.00  0.00     0.189 HD
HETATM   22  N3  UNK     1      19.734   1.344  22.175  1.00  0.00    -0.186 NA
HETATM   23  C12 UNK     1      19.432   2.271  21.264  1.00  0.00     0.152 A 
HETATM   24  C10 UNK     1      18.994   2.242  18.687  1.00  0.00     0.017 A 
HETATM   25  C8  UNK     1      18.949   1.347  17.610  1.00  0.00     0.030 A 
ENDBRANCH   2  16
TORSDOF 2
ENDMDL
MODEL 5
REMARK VINA RESULT:      -9.5      1.451      2.225
REMARK  2 active torsions:
REMARK  status: ('A' for Active; 'I' for Inactive)
REMARK       I    between atoms: C11_17  and  N1_4 
REMARK    1  A    between atoms: C2_8  and  N1_4 
REMARK    2  A    between atoms: C11_17  and  C6_12 
ROOT
HETATM    1  O2  UNK     1      18.549   4.626  30.392  1.00  0.00    -0.267 OA
HETATM    2  N1  UNK     1      17.857   4.514  32.641  1.00  0.00    -0.323 N 
HETATM    3  C11 UNK     1      18.352   4.018  31.442  1.00  0.00     0.262 C 
HETATM    4  H5  UNK     1      17.774   3.878  33.429  1.00  0.00     0.169 HD
ENDROOT
BRANCH   3   5
HETATM    5  C6  UNK     1      18.655   2.583  31.521  1.00  0.00     0.108 A 
HETATM    6  C13 UNK     1      18.362   1.784  32.733  1.00  0.00     0.304 A 
HETATM    7  O1  UNK     1      18.694   0.433  32.685  1.00  0.00    -0.274 OA
HETATM    8  O3  UNK     1      17.852   2.282  33.730  1.00  0.00    -0.259 OA
HETATM    9  C7  UNK     1      19.279  -0.149  31.544  1.00  0.00     0.089 A 
HETATM   10  C15 UNK     1      19.575  -1.510  31.591  1.00  0.00     0.038 A 
HETATM   11  C5  UNK     1      19.546   0.619  30.416  1.00  0.00    -0.001 A 
HETATM   12  C17 UNK     1      20.154  -2.114  30.477  1.00  0.00     0.003 A 
HETATM   13  C16 UNK     1      20.430  -1.357  29.336  1.00  0.00     0.001 A 
HETATM   14  C14 UNK     1      20.126   0.006  29.303  1.00  0.00     0.014 A 
HETATM   15  C9  UNK     1      19.210   2.036  30.434  1.00  0.00     0.037 A 
ENDBRANCH   3   5
BRANCH   2  16
HETATM   16  C2  UNK     1      17.463   5.844  32.927  1.00  0.00     0.037 A 
HETATM   17  C4  UNK     1      16.460   6.421  32.159  1.00  0.00     0.061 A 
HETATM   18  C1  UNK     1      16.112   7.734  32.484  1.00  0.00     0.064 A 
HETATM   19  N2  UNK     1      15.185   8.589  31.949  1.00  0.00    -0.278 N 
HETATM   20  C3  UNK     1      16.718   8.447  33.512  1.00  0.00     0.011 A 
HETATM   21  H6  UNK     1      14.553   8.413  31.179  1.00  0.00     0.189 HD
HETATM   22  N3  UNK     1      15.142   9.793  32.543  1.00  0.00    -0.186 NA
HETATM   23  C12 UNK     1      16.075   9.703  33.493  1.00  0.00     0.152 A 
HETATM   24  C10 UNK     1      17.730   7.835  34.271  1.00  0.00     0.017 A 
HETATM   25  C8  UNK     1      18.095   6.518  33.961  1.00  0.00     0.030 A 
ENDBRANCH   2  16
TORSDOF 2
ENDMDL
MODEL 6
REMARK VINA RESULT:      -9.3      2.679      8.407
REMARK  2 active torsions:
REMARK  status: ('A' for Active; 'I' for Inactive)
REMARK       I    between atoms: C11_17  and  N1_4 
REMARK    1  A    between atoms: C2_8  and  N1_4 
REMARK    2  A    between atoms: C11_17  and  C6_12 
ROOT
HETATM    1  O2  UNK     1      19.769   5.178  30.899  1.00  0.00    -0.267 OA
HETATM    2  N1  UNK     1      18.087   3.591  31.347  1.00  0.00    -0.323 N 
HETATM    3  C11 UNK     1      18.733   4.816  31.453  1.00  0.00     0.262 C 
HETATM    4  H5  UNK     1      17.219   3.457  31.859  1.00  0.00     0.169 HD
ENDROOT
BRANCH   3   5
HETATM    5  C6  UNK     1      18.027   5.737  32.354  1.00  0.00     0.108 A 
HETATM    6  C13 UNK     1      18.568   6.105  33.681  1.00  0.00     0.304 A 
HETATM    7  O1  UNK     1      17.807   6.987  34.443  1.00  0.00    -0.274 OA
HETATM    8  O3  UNK     1      19.632   5.658  34.095  1.00  0.00    -0.259 OA
HETATM    9  C7  UNK     1      16.584   7.507  33.977  1.00  0.00     0.089 A 
HETATM   10  C15 UNK     1      15.894   8.385  34.811  1.00  0.00     0.038 A 
HETATM   11  C5  UNK     1      16.094   7.148  32.726  1.00  0.00    -0.001 A 
HETATM   12  C17 UNK     1      14.681   8.916  34.377  1.00  0.00     0.003 A 
HETATM   13  C16 UNK     1      14.173   8.566  33.124  1.00  0.00     0.001 A 
HETATM   14  C14 UNK     1      14.877   7.685  32.298  1.00  0.00     0.014 A 
HETATM   15  C9  UNK     1      16.866   6.227  31.905  1.00  0.00     0.037 A 
ENDBRANCH   3   5
BRANCH   2  16
HETATM   16  C2  UNK     1      18.481   2.473  30.572  1.00  0.00     0.037 A 
HETATM   17  C4  UNK     1      19.337   1.538  31.138  1.00  0.00     0.061 A 
HETATM   18  C1  UNK     1      19.692   0.456  30.330  1.00  0.00     0.064 A 
HETATM   19  N2  UNK     1      20.498  -0.627  30.560  1.00  0.00    -0.278 N 
HETATM   20  C3  UNK     1      19.229   0.298  29.029  1.00  0.00     0.011 A 
HETATM   21  H6  UNK     1      21.010  -0.848  31.405  1.00  0.00     0.189 HD
HETATM   22  N3  UNK     1      20.596  -1.470  29.519  1.00  0.00    -0.186 NA
HETATM   23  C12 UNK     1      19.822  -0.905  28.590  1.00  0.00     0.152 A 
HETATM   24  C10 UNK     1      18.363   1.261  28.484  1.00  0.00     0.017 A 
HETATM   25  C8  UNK     1      17.995   2.355  29.279  1.00  0.00     0.030 A 
ENDBRANCH   2  16
TORSDOF 2
ENDMDL
MODEL 7
REMARK VINA RESULT:      -9.2     13.594     16.516
REMARK  2 active torsions:
REMARK  status: ('A' for Active; 'I' for Inactive)
REMARK       I    between atoms: C11_17  and  N1_4 
REMARK    1  A    between atoms: C2_8  and  N1_4 
REMARK    2  A    between atoms: C11_17  and  C6_12 
ROOT
HETATM    1  O2  UNK     1      17.066  -1.926  16.899  1.00  0.00    -0.267 OA
HETATM    2  N1  UNK     1      19.146  -0.849  16.655  1.00  0.00    -0.323 N 
HETATM    3  C11 UNK     1      18.126  -1.725  16.310  1.00  0.00     0.262 C 
HETATM    4  H5  UNK     1      19.956  -0.786  16.043  1.00  0.00     0.169 HD
ENDROOT
BRANCH   3   5
HETATM    5  C6  UNK     1      18.426  -2.465  15.077  1.00  0.00     0.108 A 
HETATM    6  C13 UNK     1      17.997  -3.868  14.879  1.00  0.00     0.304 A 
HETATM    7  O1  UNK     1      18.340  -4.461  13.667  1.00  0.00    -0.274 OA
HETATM    8  O3  UNK     1      17.371  -4.482  15.736  1.00  0.00    -0.259 OA
HETATM    9  C7  UNK     1      19.058  -3.765  12.676  1.00  0.00     0.089 A 
HETATM   10  C15 UNK     1      19.354  -4.442  11.495  1.00  0.00     0.038 A 
HETATM   11  C5  UNK     1      19.451  -2.447  12.882  1.00  0.00    -0.001 A 
HETATM   12  C17 UNK     1      20.063  -3.779  10.495  1.00  0.00     0.003 A 
HETATM   13  C16 UNK     1      20.467  -2.456  10.685  1.00  0.00     0.001 A 
HETATM   14  C14 UNK     1      20.161  -1.789  11.875  1.00  0.00     0.014 A 
HETATM   15  C9  UNK     1      19.108  -1.798  14.139  1.00  0.00     0.037 A 
ENDBRANCH   3   5
BRANCH   2  16
HETATM   16  C2  UNK     1      19.197   0.019  17.772  1.00  0.00     0.037 A 
HETATM   17  C4  UNK     1      19.460  -0.522  19.024  1.00  0.00     0.061 A 
HETATM   18  C1  UNK     1      19.499   0.379  20.090  1.00  0.00     0.064 A 
HETATM   19  N2  UNK     1      19.728   0.196  21.428  1.00  0.00    -0.278 N 
HETATM   20  C3  UNK     1      19.290   1.744  19.937  1.00  0.00     0.011 A 
HETATM   21  H6  UNK     1      19.919  -0.673  21.910  1.00  0.00     0.189 HD
HETATM   22  N3  UNK     1      19.683   1.327  22.153  1.00  0.00    -0.186 NA
HETATM   23  C12 UNK     1      19.417   2.266  21.242  1.00  0.00     0.152 A 
HETATM   24  C10 UNK     1      19.026   2.261  18.658  1.00  0.00     0.017 A 
HETATM   25  C8  UNK     1      18.982   1.374  17.574  1.00  0.00     0.030 A 
ENDBRANCH   2  16
TORSDOF 2
ENDMDL
MODEL 8
REMARK VINA RESULT:      -9.0      2.453      8.234
REMARK  2 active torsions:
REMARK  status: ('A' for Active; 'I' for Inactive)
REMARK       I    between atoms: C11_17  and  N1_4 
REMARK    1  A    between atoms: C2_8  and  N1_4 
REMARK    2  A    between atoms: C11_17  and  C6_12 
ROOT
HETATM    1  O2  UNK     1      17.857   3.413  33.072  1.00  0.00    -0.267 OA
HETATM    2  N1  UNK     1      18.512   4.125  30.925  1.00  0.00    -0.323 N 
HETATM    3  C11 UNK     1      18.123   4.285  32.248  1.00  0.00     0.262 C 
HETATM    4  H5  UNK     1      18.718   4.957  30.378  1.00  0.00     0.169 HD
ENDROOT
BRANCH   3   5
HETATM    5  C6  UNK     1      18.046   5.700  32.634  1.00  0.00     0.108 A 
HETATM    6  C13 UNK     1      16.805   6.491  32.476  1.00  0.00     0.304 A 
HETATM    7  O1  UNK     1      16.857   7.823  32.879  1.00  0.00    -0.274 OA
HETATM    8  O3  UNK     1      15.779   6.003  32.015  1.00  0.00    -0.259 OA
HETATM    9  C7  UNK     1      18.029   8.392  33.412  1.00  0.00     0.089 A 
HETATM   10  C15 UNK     1      17.984   9.733  33.788  1.00  0.00     0.038 A 
HETATM   11  C5  UNK     1      19.185   7.632  33.551  1.00  0.00    -0.001 A 
HETATM   12  C17 UNK     1      19.129  10.325  34.318  1.00  0.00     0.003 A 
HETATM   13  C16 UNK     1      20.299   9.577  34.465  1.00  0.00     0.001 A 
HETATM   14  C14 UNK     1      20.329   8.232  34.084  1.00  0.00     0.014 A 
HETATM   15  C9  UNK     1      19.163   6.236  33.139  1.00  0.00     0.037 A 
ENDBRANCH   3   5
BRANCH   2  16
HETATM   16  C2  UNK     1      18.690   2.910  30.219  1.00  0.00     0.037 A 
HETATM   17  C4  UNK     1      19.609   1.987  30.704  1.00  0.00     0.061 A 
HETATM   18  C1  UNK     1      19.744   0.807  29.970  1.00  0.00     0.064 A 
HETATM   19  N2  UNK     1      20.537  -0.294  30.155  1.00  0.00    -0.278 N 
HETATM   20  C3  UNK     1      19.014   0.543  28.817  1.00  0.00     0.011 A 
HETATM   21  H6  UNK     1      21.205  -0.458  30.898  1.00  0.00     0.189 HD
HETATM   22  N3  UNK     1      20.383  -1.246  29.219  1.00  0.00    -0.186 NA
HETATM   23  C12 UNK     1      19.455  -0.733  28.408  1.00  0.00     0.152 A 
HETATM   24  C10 UNK     1      18.093   1.497  28.352  1.00  0.00     0.017 A 
HETATM   25  C8  UNK     1      17.941   2.688  29.074  1.00  0.00     0.030 A 
ENDBRANCH   2  16
TORSDOF 2
ENDMDL
MODEL 9
REMARK VINA RESULT:      -8.8      6.800     10.339
REMARK  2 active torsions:
REMARK  status: ('A' for Active; 'I' for Inactive)
REMARK       I    between atoms: C11_17  and  N1_4 
REMARK    1  A    between atoms: C2_8  and  N1_4 
REMARK    2  A    between atoms: C11_17  and  C6_12 
ROOT
HETATM    1  O2  UNK     1      18.842  -1.738  36.492  1.00  0.00    -0.267 OA
HETATM    2  N1  UNK     1      19.746  -3.564  35.310  1.00  0.00    -0.323 N 
HETATM    3  C11 UNK     1      19.250  -2.276  35.465  1.00  0.00     0.262 C 
HETATM    4  H5  UNK     1      20.066  -3.850  34.388  1.00  0.00     0.169 HD
ENDROOT
BRANCH   3   5
HETATM    5  C6  UNK     1      19.249  -1.528  34.201  1.00  0.00     0.108 A 
HETATM    6  C13 UNK     1      18.617  -0.195  34.078  1.00  0.00     0.304 A 
HETATM    7  O1  UNK     1      18.682   0.414  32.828  1.00  0.00    -0.274 OA
HETATM    8  O3  UNK     1      18.064   0.351  35.026  1.00  0.00    -0.259 OA
HETATM    9  C7  UNK     1      19.317  -0.203  31.733  1.00  0.00     0.089 A 
HETATM   10  C15 UNK     1      19.331   0.485  30.521  1.00  0.00     0.038 A 
HETATM   11  C5  UNK     1      19.904  -1.456  31.869  1.00  0.00    -0.001 A 
HETATM   12  C17 UNK     1      19.951  -0.100  29.419  1.00  0.00     0.003 A 
HETATM   13  C16 UNK     1      20.545  -1.358  29.538  1.00  0.00     0.001 A 
HETATM   14  C14 UNK     1      20.524  -2.036  30.760  1.00  0.00     0.014 A 
HETATM   15  C9  UNK     1      19.853  -2.120  33.164  1.00  0.00     0.037 A 
ENDBRANCH   3   5
BRANCH   2  16
HETATM   16  C2  UNK     1      19.893  -4.557  36.309  1.00  0.00     0.037 A 
HETATM   17  C4  UNK     1      19.013  -5.631  36.314  1.00  0.00     0.061 A 
HETATM   18  C1  UNK     1      19.204  -6.581  37.320  1.00  0.00     0.064 A 
HETATM   19  N2  UNK     1      18.537  -7.740  37.616  1.00  0.00    -0.278 N 
HETATM   20  C3  UNK     1      20.209  -6.483  38.274  1.00  0.00     0.011 A 
HETATM   21  H6  UNK     1      17.742  -8.137  37.132  1.00  0.00     0.189 HD
HETATM   22  N3  UNK     1      19.025  -8.398  38.681  1.00  0.00    -0.186 NA
HETATM   23  C12 UNK     1      20.043  -7.630  39.078  1.00  0.00     0.152 A 
HETATM   24  C10 UNK     1      21.084  -5.384  38.242  1.00  0.00     0.017 A 
HETATM   25  C8  UNK     1      20.910  -4.419  37.241  1.00  0.00     0.030 A 
ENDBRANCH   2  16
TORSDOF 2
ENDMDL
MODEL 10
REMARK VINA RESULT:      -8.7      3.356      9.551
REMARK  2 active torsions:
REMARK  status: ('A' for Active; 'I' for Inactive)
REMARK       I    between atoms: C11_17  and  N1_4 
REMARK    1  A    between atoms: C2_8  and  N1_4 
REMARK    2  A    between atoms: C11_17  and  C6_12 
ROOT
HETATM    1  O2  UNK     1      19.585   7.908  33.917  1.00  0.00    -0.267 OA
HETATM    2  N1  UNK     1      17.716   7.454  32.558  1.00  0.00    -0.323 N 
HETATM    3  C11 UNK     1      18.462   8.165  33.489  1.00  0.00     0.262 C 
HETATM    4  H5  UNK     1      16.804   7.817  32.292  1.00  0.00     0.169 HD
ENDROOT
BRANCH   3   5
HETATM    5  C6  UNK     1      17.754   9.359  33.969  1.00  0.00     0.108 A 
HETATM    6  C13 UNK     1      16.436   9.275  34.638  1.00  0.00     0.304 A 
HETATM    7  O1  UNK     1      15.866  10.476  35.049  1.00  0.00    -0.274 OA
HETATM    8  O3  UNK     1      15.870   8.203  34.823  1.00  0.00    -0.259 OA
HETATM    9  C7  UNK     1      16.508  11.712  34.842  1.00  0.00     0.089 A 
HETATM   10  C15 UNK     1      15.859  12.861  35.290  1.00  0.00     0.038 A 
HETATM   11  C5  UNK     1      17.746  11.770  34.212  1.00  0.00    -0.001 A 
HETATM   12  C17 UNK     1      16.470  14.100  35.099  1.00  0.00     0.003 A 
HETATM   13  C16 UNK     1      17.713  14.176  34.467  1.00  0.00     0.001 A 
HETATM   14  C14 UNK     1      18.352  13.015  34.025  1.00  0.00     0.014 A 
HETATM   15  C9  UNK     1      18.369  10.531  33.770  1.00  0.00     0.037 A 
ENDBRANCH   3   5
BRANCH   2  16
HETATM   16  C2  UNK     1      18.082   6.261  31.889  1.00  0.00     0.037 A 
HETATM   17  C4  UNK     1      17.706   5.044  32.443  1.00  0.00     0.061 A 
HETATM   18  C1  UNK     1      18.093   3.901  31.741  1.00  0.00     0.064 A 
HETATM   19  N2  UNK     1      17.896   2.569  31.991  1.00  0.00    -0.278 N 
HETATM   20  C3  UNK     1      18.814   3.948  30.553  1.00  0.00     0.011 A 
HETATM   21  H6  UNK     1      17.408   2.152  32.774  1.00  0.00     0.189 HD
HETATM   22  N3  UNK     1      18.429   1.752  31.068  1.00  0.00    -0.186 NA
HETATM   23  C12 UNK     1      18.986   2.594  30.195  1.00  0.00     0.152 A 
HETATM   24  C10 UNK     1      19.179   5.195  30.019  1.00  0.00     0.017 A 
HETATM   25  C8  UNK     1      18.801   6.354  30.707  1.00  0.00     0.030 A 
ENDBRANCH   2  16
TORSDOF 2
ENDMDL
