MODEL 1
REMARK VINA RESULT:      -7.1      0.000      0.000
REMARK  1 active torsions:
REMARK  status: ('A' for Active; 'I' for Inactive)
REMARK    1  A    between atoms: C8_11  and  O2_2 
ROOT
HETATM    1  O1  UNK     1      19.498   2.843  17.634  1.00  0.00    -0.275 OA
HETATM    2  O3  UNK     1      19.306   3.169  15.379  1.00  0.00    -0.260 OA
HETATM    3  C1  UNK     1      19.270   0.586  18.539  1.00  0.00     0.007 A 
HETATM    4  C2  UNK     1      19.054   0.088  17.173  1.00  0.00    -0.043 A 
HETATM    5  C3  UNK     1      19.486   1.952  18.725  1.00  0.00     0.090 A 
HETATM    6  C4  UNK     1      19.273  -0.235  19.675  1.00  0.00     0.051 A 
HETATM    7  C5  UNK     1      19.699   2.507  19.989  1.00  0.00     0.041 A 
HETATM    8  C6  UNK     1      19.070   0.959  16.155  1.00  0.00     0.090 A 
HETATM    9  C7  UNK     1      18.818  -1.376  16.939  1.00  0.00     0.049 C 
HETATM   10  C8  UNK     1      19.486   0.308  20.948  1.00  0.00     0.066 A 
HETATM   11  C9  UNK     1      19.698   1.677  21.104  1.00  0.00     0.039 A 
HETATM   12  C10 UNK     1      19.297   2.402  16.336  1.00  0.00     0.288 A 
ENDROOT
BRANCH  10  13
HETATM   13  O2  UNK     1      19.486  -0.506  22.040  1.00  0.00    -0.361 OA
HETATM   14  H8  UNK     1      20.354  -0.451  22.474  1.00  0.00     0.217 HD
ENDBRANCH  10  13
TORSDOF 1
ENDMDL
MODEL 2
REMARK VINA RESULT:      -6.8      1.393      2.700
REMARK  1 active torsions:
REMARK  status: ('A' for Active; 'I' for Inactive)
REMARK    1  A    between atoms: C8_11  and  O2_2 
ROOT
HETATM    1  O1  UNK     1      19.080   0.755  17.161  1.00  0.00    -0.275 OA
HETATM    2  O3  UNK     1      19.135   1.514  15.005  1.00  0.00    -0.260 OA
HETATM    3  C1  UNK     1      19.696   2.268  18.977  1.00  0.00     0.007 A 
HETATM    4  C2  UNK     1      19.937   3.322  17.982  1.00  0.00    -0.043 A 
HETATM    5  C3  UNK     1      19.274   1.014  18.532  1.00  0.00     0.090 A 
HETATM    6  C4  UNK     1      19.864   2.447  20.357  1.00  0.00     0.051 A 
HETATM    7  C5  UNK     1      19.022  -0.042  19.411  1.00  0.00     0.041 A 
HETATM    8  C6  UNK     1      19.746   3.046  16.685  1.00  0.00     0.090 A 
HETATM    9  C7  UNK     1      20.393   4.682  18.428  1.00  0.00     0.049 C 
HETATM   10  C8  UNK     1      19.616   1.397  21.249  1.00  0.00     0.066 A 
HETATM   11  C9  UNK     1      19.196   0.155  20.776  1.00  0.00     0.039 A 
HETATM   12  C10 UNK     1      19.300   1.729  16.201  1.00  0.00     0.288 A 
ENDROOT
BRANCH  10  13
HETATM   13  O2  UNK     1      19.785   1.591  22.587  1.00  0.00    -0.361 OA
HETATM   14  H8  UNK     1      19.320   2.403  22.849  1.00  0.00     0.217 HD
ENDBRANCH  10  13
TORSDOF 1
ENDMDL
MODEL 3
REMARK VINA RESULT:      -6.7     17.569     20.210
REMARK  1 active torsions:
REMARK  status: ('A' for Active; 'I' for Inactive)
REMARK    1  A    between atoms: C8_11  and  O2_2 
ROOT
HETATM    1  O1  UNK     1      21.272  -8.484  34.443  1.00  0.00    -0.275 OA
HETATM    2  O3  UNK     1      21.120  -6.754  32.955  1.00  0.00    -0.260 OA
HETATM    3  C1  UNK     1      19.730  -8.573  36.335  1.00  0.00     0.007 A 
HETATM    4  C2  UNK     1      19.113  -7.327  35.857  1.00  0.00    -0.043 A 
HETATM    5  C3  UNK     1      20.793  -9.112  35.609  1.00  0.00     0.090 A 
HETATM    6  C4  UNK     1      19.311  -9.258  37.484  1.00  0.00     0.051 A 
HETATM    7  C5  UNK     1      21.434 -10.292  35.993  1.00  0.00     0.041 A 
HETATM    8  C6  UNK     1      19.591  -6.751  34.745  1.00  0.00     0.090 A 
HETATM    9  C7  UNK     1      17.968  -6.720  36.616  1.00  0.00     0.049 C 
HETATM   10  C8  UNK     1      19.944 -10.441  37.880  1.00  0.00     0.066 A 
HETATM   11  C9  UNK     1      21.005 -10.957  37.136  1.00  0.00     0.039 A 
HETATM   12  C10 UNK     1      20.710  -7.309  33.969  1.00  0.00     0.288 A 
ENDROOT
BRANCH  10  13
HETATM   13  O2  UNK     1      19.523 -11.092  38.999  1.00  0.00    -0.361 OA
HETATM   14  H8  UNK     1      18.673 -11.526  38.811  1.00  0.00     0.217 HD
ENDBRANCH  10  13
TORSDOF 1
ENDMDL
MODEL 4
REMARK VINA RESULT:      -6.7     19.013     20.782
REMARK  1 active torsions:
REMARK  status: ('A' for Active; 'I' for Inactive)
REMARK    1  A    between atoms: C8_11  and  O2_2 
ROOT
HETATM    1  O1  UNK     1      21.500  -9.235  35.060  1.00  0.00    -0.275 OA
HETATM    2  O3  UNK     1      22.850 -11.081  35.047  1.00  0.00    -0.260 OA
HETATM    3  C1  UNK     1      19.759  -9.041  36.762  1.00  0.00     0.007 A 
HETATM    4  C2  UNK     1      20.184 -10.337  37.309  1.00  0.00    -0.043 A 
HETATM    5  C3  UNK     1      20.433  -8.531  35.652  1.00  0.00     0.090 A 
HETATM    6  C4  UNK     1      18.709  -8.279  37.293  1.00  0.00     0.051 A 
HETATM    7  C5  UNK     1      20.093  -7.307  35.071  1.00  0.00     0.041 A 
HETATM    8  C6  UNK     1      21.202 -10.985  36.725  1.00  0.00     0.090 A 
HETATM    9  C7  UNK     1      19.479 -10.913  38.502  1.00  0.00     0.049 C 
HETATM   10  C8  UNK     1      18.357  -7.051  36.722  1.00  0.00     0.066 A 
HETATM   11  C9  UNK     1      19.048  -6.566  35.612  1.00  0.00     0.039 A 
HETATM   12  C10 UNK     1      21.923 -10.459  35.554  1.00  0.00     0.288 A 
ENDROOT
BRANCH  10  13
HETATM   13  O2  UNK     1      17.334  -6.325  37.252  1.00  0.00    -0.361 OA
HETATM   14  H8  UNK     1      17.286  -6.501  38.207  1.00  0.00     0.217 HD
ENDBRANCH  10  13
TORSDOF 1
ENDMDL
MODEL 5
REMARK VINA RESULT:      -6.6     13.280     15.417
REMARK  1 active torsions:
REMARK  status: ('A' for Active; 'I' for Inactive)
REMARK    1  A    between atoms: C8_11  and  O2_2 
ROOT
HETATM    1  O1  UNK     1      17.071   6.791  31.521  1.00  0.00    -0.275 OA
HETATM    2  O3  UNK     1      15.215   7.559  32.614  1.00  0.00    -0.260 OA
HETATM    3  C1  UNK     1      19.227   6.811  32.668  1.00  0.00     0.007 A 
HETATM    4  C2  UNK     1      18.565   7.384  33.849  1.00  0.00    -0.043 A 
HETATM    5  C3  UNK     1      18.456   6.533  31.539  1.00  0.00     0.090 A 
HETATM    6  C4  UNK     1      20.598   6.525  32.607  1.00  0.00     0.051 A 
HETATM    7  C5  UNK     1      19.006   5.988  30.377  1.00  0.00     0.041 A 
HETATM    8  C6  UNK     1      17.247   7.619  33.802  1.00  0.00     0.090 A 
HETATM    9  C7  UNK     1      19.367   7.695  35.079  1.00  0.00     0.049 C 
HETATM   10  C8  UNK     1      21.163   5.979  31.449  1.00  0.00     0.066 A 
HETATM   11  C9  UNK     1      20.368   5.712  30.335  1.00  0.00     0.039 A 
HETATM   12  C10 UNK     1      16.420   7.330  32.619  1.00  0.00     0.288 A 
ENDROOT
BRANCH  10  13
HETATM   13  O2  UNK     1      22.497   5.707  31.410  1.00  0.00    -0.361 OA
HETATM   14  H8  UNK     1      22.623   4.743  31.418  1.00  0.00     0.217 HD
ENDBRANCH  10  13
TORSDOF 1
ENDMDL
MODEL 6
REMARK VINA RESULT:      -6.4     18.644     21.041
REMARK  1 active torsions:
REMARK  status: ('A' for Active; 'I' for Inactive)
REMARK    1  A    between atoms: C8_11  and  O2_2 
ROOT
HETATM    1  O1  UNK     1      18.929  -9.537  38.154  1.00  0.00    -0.275 OA
HETATM    2  O3  UNK     1      19.256 -11.728  38.724  1.00  0.00    -0.260 OA
HETATM    3  C1  UNK     1      20.203  -8.581  36.303  1.00  0.00     0.007 A 
HETATM    4  C2  UNK     1      20.860  -9.883  36.117  1.00  0.00    -0.043 A 
HETATM    5  C3  UNK     1      19.255  -8.451  37.319  1.00  0.00     0.090 A 
HETATM    6  C4  UNK     1      20.471  -7.454  35.514  1.00  0.00     0.051 A 
HETATM    7  C5  UNK     1      18.585  -7.251  37.563  1.00  0.00     0.041 A 
HETATM    8  C6  UNK     1      20.530 -10.898  36.927  1.00  0.00     0.090 A 
HETATM    9  C7  UNK     1      21.884 -10.055  35.032  1.00  0.00     0.049 C 
HETATM   10  C8  UNK     1      19.807  -6.245  35.747  1.00  0.00     0.066 A 
HETATM   11  C9  UNK     1      18.865  -6.143  36.770  1.00  0.00     0.039 A 
HETATM   12  C10 UNK     1      19.532 -10.776  38.002  1.00  0.00     0.288 A 
ENDROOT
BRANCH  10  13
HETATM   13  O2  UNK     1      20.081  -5.161  34.969  1.00  0.00    -0.361 OA
HETATM   14  H8  UNK     1      19.364  -4.511  35.069  1.00  0.00     0.217 HD
ENDBRANCH  10  13
TORSDOF 1
ENDMDL
MODEL 7
REMARK VINA RESULT:      -6.4     11.500     13.447
REMARK  1 active torsions:
REMARK  status: ('A' for Active; 'I' for Inactive)
REMARK    1  A    between atoms: C8_11  and  O2_2 
ROOT
HETATM    1  O1  UNK     1      18.876   1.981  30.909  1.00  0.00    -0.275 OA
HETATM    2  O3  UNK     1      17.875   3.526  32.267  1.00  0.00    -0.260 OA
HETATM    3  C1  UNK     1      19.288  -0.270  31.760  1.00  0.00     0.007 A 
HETATM    4  C2  UNK     1      18.686   0.131  33.040  1.00  0.00    -0.043 A 
HETATM    5  C3  UNK     1      19.364   0.672  30.733  1.00  0.00     0.090 A 
HETATM    6  C4  UNK     1      19.795  -1.552  31.507  1.00  0.00     0.051 A 
HETATM    7  C5  UNK     1      19.920   0.373  29.488  1.00  0.00     0.041 A 
HETATM    8  C6  UNK     1      18.231   1.384  33.178  1.00  0.00     0.090 A 
HETATM    9  C7  UNK     1      18.591  -0.859  34.164  1.00  0.00     0.049 C 
HETATM   10  C8  UNK     1      20.356  -1.866  30.263  1.00  0.00     0.066 A 
HETATM   11  C9  UNK     1      20.418  -0.904  29.256  1.00  0.00     0.039 A 
HETATM   12  C10 UNK     1      18.303   2.388  32.103  1.00  0.00     0.288 A 
ENDROOT
BRANCH  10  13
HETATM   13  O2  UNK     1      20.843  -3.117  30.036  1.00  0.00    -0.361 OA
HETATM   14  H8  UNK     1      21.405  -3.378  30.786  1.00  0.00     0.217 HD
ENDBRANCH  10  13
TORSDOF 1
ENDMDL
MODEL 8
REMARK VINA RESULT:      -6.4     12.449     14.701
REMARK  1 active torsions:
REMARK  status: ('A' for Active; 'I' for Inactive)
REMARK    1  A    between atoms: C8_11  and  O2_2 
ROOT
HETATM    1  O1  UNK     1       9.354   5.510   9.578  1.00  0.00    -0.275 OA
HETATM    2  O3  UNK     1       7.096   5.769   9.323  1.00  0.00    -0.260 OA
HETATM    3  C1  UNK     1      10.820   5.843   7.653  1.00  0.00     0.007 A 
HETATM    4  C2  UNK     1       9.636   6.144   6.835  1.00  0.00    -0.043 A 
HETATM    5  C3  UNK     1      10.639   5.535   9.002  1.00  0.00     0.090 A 
HETATM    6  C4  UNK     1      12.130   5.849   7.156  1.00  0.00     0.051 A 
HETATM    7  C5  UNK     1      11.710   5.238   9.848  1.00  0.00     0.041 A 
HETATM    8  C6  UNK     1       8.425   6.111   7.410  1.00  0.00     0.090 A 
HETATM    9  C7  UNK     1       9.796   6.478   5.381  1.00  0.00     0.049 C 
HETATM   10  C8  UNK     1      13.213   5.553   7.992  1.00  0.00     0.066 A 
HETATM   11  C9  UNK     1      13.002   5.248   9.336  1.00  0.00     0.039 A 
HETATM   12  C10 UNK     1       8.219   5.789   8.832  1.00  0.00     0.288 A 
ENDROOT
BRANCH  10  13
HETATM   13  O2  UNK     1      14.479   5.564   7.490  1.00  0.00    -0.361 OA
HETATM   14  H8  UNK     1      14.579   6.332   6.903  1.00  0.00     0.217 HD
ENDBRANCH  10  13
TORSDOF 1
ENDMDL
MODEL 9
REMARK VINA RESULT:      -6.3     12.885     15.097
REMARK  1 active torsions:
REMARK  status: ('A' for Active; 'I' for Inactive)
REMARK    1  A    between atoms: C8_11  and  O2_2 
ROOT
HETATM    1  O1  UNK     1      17.388   4.422  32.434  1.00  0.00    -0.275 OA
HETATM    2  O3  UNK     1      17.327   2.739  30.887  1.00  0.00    -0.260 OA
HETATM    3  C1  UNK     1      19.196   6.061  32.347  1.00  0.00     0.007 A 
HETATM    4  C2  UNK     1      19.744   5.357  31.178  1.00  0.00    -0.043 A 
HETATM    5  C3  UNK     1      18.032   5.569  32.938  1.00  0.00     0.090 A 
HETATM    6  C4  UNK     1      19.777   7.207  32.907  1.00  0.00     0.051 A 
HETATM    7  C5  UNK     1      17.447   6.178  34.050  1.00  0.00     0.041 A 
HETATM    8  C6  UNK     1      19.109   4.269  30.721  1.00  0.00     0.090 A 
HETATM    9  C7  UNK     1      20.995   5.861  30.519  1.00  0.00     0.049 C 
HETATM   10  C8  UNK     1      19.202   7.828  34.021  1.00  0.00     0.066 A 
HETATM   11  C9  UNK     1      18.038   7.314  34.592  1.00  0.00     0.039 A 
HETATM   12  C10 UNK     1      17.880   3.738  31.334  1.00  0.00     0.288 A 
ENDROOT
BRANCH  10  13
HETATM   13  O2  UNK     1      19.781   8.941  34.551  1.00  0.00    -0.361 OA
HETATM   14  H8  UNK     1      19.943   8.792  35.498  1.00  0.00     0.217 HD
ENDBRANCH  10  13
TORSDOF 1
ENDMDL
MODEL 10
REMARK VINA RESULT:      -6.3     10.614     12.293
REMARK  1 active torsions:
REMARK  status: ('A' for Active; 'I' for Inactive)
REMARK    1  A    between atoms: C8_11  and  O2_2 
ROOT
HETATM    1  O1  UNK     1      19.058   0.798  28.610  1.00  0.00    -0.275 OA
HETATM    2  O3  UNK     1      17.966   2.751  28.136  1.00  0.00    -0.260 OA
HETATM    3  C1  UNK     1      19.386   0.148  30.941  1.00  0.00     0.007 A 
HETATM    4  C2  UNK     1      18.689   1.374  31.355  1.00  0.00    -0.043 A 
HETATM    5  C3  UNK     1      19.549  -0.100  29.578  1.00  0.00     0.090 A 
HETATM    6  C4  UNK     1      19.902  -0.795  31.841  1.00  0.00     0.051 A 
HETATM    7  C5  UNK     1      20.198  -1.241  29.101  1.00  0.00     0.041 A 
HETATM    8  C6  UNK     1      18.234   2.211  30.412  1.00  0.00     0.090 A 
HETATM    9  C7  UNK     1      18.499   1.671  32.814  1.00  0.00     0.049 C 
HETATM   10  C8  UNK     1      20.555  -1.942  31.377  1.00  0.00     0.066 A 
HETATM   11  C9  UNK     1      20.703  -2.164  30.009  1.00  0.00     0.039 A 
HETATM   12  C10 UNK     1      18.397   1.961  28.970  1.00  0.00     0.288 A 
ENDROOT
BRANCH  10  13
HETATM   13  O2  UNK     1      21.049  -2.847  32.268  1.00  0.00    -0.361 OA
HETATM   14  H8  UNK     1      20.944  -3.741  31.900  1.00  0.00     0.217 HD
ENDBRANCH  10  13
TORSDOF 1
ENDMDL
