MODEL 1
REMARK VINA RESULT:      -7.7      0.000      0.000
REMARK  5 active torsions:
REMARK  status: ('A' for Active; 'I' for Inactive)
REMARK    1  A    between atoms: C12_20  and  O3_5 
REMARK    2  A    between atoms: C20_28  and  O3_5 
REMARK    3  A    between atoms: C7_15  and  N1_8 
REMARK    4  A    between atoms: C1_9  and  C5_13 
REMARK    5  A    between atoms: C12_20  and  C3_11 
ROOT
HETATM    1  O1  UNK     1      30.274  -5.784  33.642  1.00  0.00    -0.292 OA
HETATM    2  O2  UNK     1      28.591  -9.476  32.617  1.00  0.00    -0.274 OA
HETATM    3  O4  UNK     1      29.601 -10.441  34.420  1.00  0.00    -0.259 OA
HETATM    4  C1  UNK     1      30.767  -7.999  35.403  1.00  0.00     0.109 C 
HETATM    5  C2  UNK     1      29.937  -8.105  34.137  1.00  0.00     0.066 A 
HETATM    6  C3  UNK     1      31.489  -6.664  35.492  1.00  0.00     0.081 C 
HETATM    7  C4  UNK     1      29.735  -7.028  33.362  1.00  0.00     0.104 A 
HETATM    8  C6  UNK     1      28.912  -7.109  32.158  1.00  0.00     0.033 A 
HETATM    9  C7  UNK     1      31.226  -5.639  34.654  1.00  0.00     0.155 C 
HETATM   10  C8  UNK     1      29.381  -9.430  33.760  1.00  0.00     0.298 A 
HETATM   11  C9  UNK     1      28.355  -8.339  31.822  1.00  0.00     0.092 A 
HETATM   12  C13 UNK     1      28.647  -6.014  31.325  1.00  0.00     0.017 A 
HETATM   13  C14 UNK     1      27.551  -8.506  30.695  1.00  0.00     0.038 A 
HETATM   14  C17 UNK     1      27.844  -6.166  30.190  1.00  0.00     0.001 A 
HETATM   15  C19 UNK     1      27.296  -7.411  29.876  1.00  0.00     0.003 A 
ENDROOT
BRANCH   4  16
HETATM   16  C5  UNK     1      29.903  -8.203  36.613  1.00  0.00     0.016 A 
HETATM   17  C10 UNK     1      30.159  -9.227  37.519  1.00  0.00     0.044 A 
HETATM   18  C15 UNK     1      29.335  -9.389  38.633  1.00  0.00     0.024 A 
HETATM   19 Cl1  UNK     1      31.481 -10.316  37.302  1.00  0.00    -0.084 Cl
HETATM   20  C18 UNK     1      28.258  -8.525  38.836  1.00  0.00     0.005 A 
HETATM   21  C16 UNK     1      28.007  -7.499  37.924  1.00  0.00     0.043 A 
HETATM   22  C11 UNK     1      28.831  -7.337  36.811  1.00  0.00     0.125 A 
HETATM   23  F1  UNK     1      28.579  -6.350  35.941  1.00  0.00    -0.205 F 
ENDBRANCH   4  16
BRANCH   6  24
HETATM   24  C12 UNK     1      32.525  -6.549  36.534  1.00  0.00     0.294 C 
HETATM   25  O5  UNK     1      33.411  -7.368  36.688  1.00  0.00    -0.259 OA
BRANCH  24  26
HETATM   26  O3  UNK     1      32.299  -5.413  37.236  1.00  0.00    -0.318 OA
BRANCH  26  27
HETATM   27  C20 UNK     1      31.655  -5.601  38.501  1.00  0.00     0.174 C 
HETATM   28  C21 UNK     1      30.477  -4.656  38.599  1.00  0.00     0.034 C 
ENDBRANCH  26  27
ENDBRANCH  24  26
ENDBRANCH   6  24
BRANCH   9  29
HETATM   29  N1  UNK     1      31.812  -4.406  34.671  1.00  0.00    -0.379 N 
HETATM   30  H6  UNK     1      32.806  -4.337  34.848  1.00  0.00     0.158 HD
HETATM   31  H7  UNK     1      31.262  -3.573  34.507  1.00  0.00     0.158 HD
ENDBRANCH   9  29
TORSDOF 5
ENDMDL
MODEL 2
REMARK VINA RESULT:      -7.4      2.278      3.012
REMARK  5 active torsions:
REMARK  status: ('A' for Active; 'I' for Inactive)
REMARK    1  A    between atoms: C12_20  and  O3_5 
REMARK    2  A    between atoms: C20_28  and  O3_5 
REMARK    3  A    between atoms: C7_15  and  N1_8 
REMARK    4  A    between atoms: C1_9  and  C5_13 
REMARK    5  A    between atoms: C12_20  and  C3_11 
ROOT
HETATM    1  O1  UNK     1      31.622  -7.611  33.695  1.00  0.00    -0.292 OA
HETATM    2  O2  UNK     1      27.543  -6.681  33.585  1.00  0.00    -0.274 OA
HETATM    3  O4  UNK     1      27.421  -6.932  35.849  1.00  0.00    -0.259 OA
HETATM    4  C1  UNK     1      30.227  -7.473  36.202  1.00  0.00     0.109 C 
HETATM    5  C2  UNK     1      29.563  -7.228  34.860  1.00  0.00     0.066 A 
HETATM    6  C3  UNK     1      31.634  -8.025  36.041  1.00  0.00     0.081 C 
HETATM    7  C4  UNK     1      30.274  -7.297  33.724  1.00  0.00     0.104 A 
HETATM    8  C6  UNK     1      29.654  -7.033  32.428  1.00  0.00     0.033 A 
HETATM    9  C7  UNK     1      32.265  -8.067  34.848  1.00  0.00     0.155 C 
HETATM   10  C8  UNK     1      28.105  -6.942  34.830  1.00  0.00     0.298 A 
HETATM   11  C9  UNK     1      28.297  -6.724  32.398  1.00  0.00     0.092 A 
HETATM   12  C13 UNK     1      30.351  -7.066  31.213  1.00  0.00     0.017 A 
HETATM   13  C14 UNK     1      27.626  -6.450  31.206  1.00  0.00     0.038 A 
HETATM   14  C17 UNK     1      29.691  -6.796  30.010  1.00  0.00     0.001 A 
HETATM   15  C19 UNK     1      28.330  -6.487  30.007  1.00  0.00     0.003 A 
ENDROOT
BRANCH   4  16
HETATM   16  C5  UNK     1      30.256  -6.208  37.009  1.00  0.00     0.016 A 
HETATM   17  C10 UNK     1      29.624  -6.125  38.246  1.00  0.00     0.044 A 
HETATM   18  C15 UNK     1      29.671  -4.933  38.969  1.00  0.00     0.024 A 
HETATM   19 Cl1  UNK     1      28.775  -7.469  38.918  1.00  0.00    -0.084 Cl
HETATM   20  C18 UNK     1      30.349  -3.829  38.452  1.00  0.00     0.005 A 
HETATM   21  C16 UNK     1      30.982  -3.918  37.212  1.00  0.00     0.043 A 
HETATM   22  C11 UNK     1      30.936  -5.110  36.489  1.00  0.00     0.125 A 
HETATM   23  F1  UNK     1      31.545  -5.183  35.298  1.00  0.00    -0.205 F 
ENDBRANCH   4  16
BRANCH   6  24
HETATM   24  C12 UNK     1      32.276  -8.548  37.260  1.00  0.00     0.294 C 
HETATM   25  O5  UNK     1      31.708  -9.273  38.055  1.00  0.00    -0.259 OA
BRANCH  24  26
HETATM   26  O3  UNK     1      33.547  -8.084  37.305  1.00  0.00    -0.318 OA
BRANCH  26  27
HETATM   27  C20 UNK     1      33.709  -6.829  37.974  1.00  0.00     0.174 C 
HETATM   28  C21 UNK     1      34.579  -5.927  37.125  1.00  0.00     0.034 C 
ENDBRANCH  26  27
ENDBRANCH  24  26
ENDBRANCH   6  24
BRANCH   9  29
HETATM   29  N1  UNK     1      33.528  -8.530  34.614  1.00  0.00    -0.379 N 
HETATM   30  H6  UNK     1      34.306  -7.884  34.668  1.00  0.00     0.158 HD
HETATM   31  H7  UNK     1      33.686  -9.505  34.394  1.00  0.00     0.158 HD
ENDBRANCH   9  29
TORSDOF 5
ENDMDL
MODEL 3
REMARK VINA RESULT:      -7.3      3.016      5.472
REMARK  5 active torsions:
REMARK  status: ('A' for Active; 'I' for Inactive)
REMARK    1  A    between atoms: C12_20  and  O3_5 
REMARK    2  A    between atoms: C20_28  and  O3_5 
REMARK    3  A    between atoms: C7_15  and  N1_8 
REMARK    4  A    between atoms: C1_9  and  C5_13 
REMARK    5  A    between atoms: C12_20  and  C3_11 
ROOT
HETATM    1  O1  UNK     1      30.679  -6.721  38.156  1.00  0.00    -0.292 OA
HETATM    2  O2  UNK     1      27.227  -7.563  35.946  1.00  0.00    -0.274 OA
HETATM    3  O4  UNK     1      28.106  -6.466  34.149  1.00  0.00    -0.259 OA
HETATM    4  C1  UNK     1      30.624  -5.872  35.412  1.00  0.00     0.109 C 
HETATM    5  C2  UNK     1      29.476  -6.600  36.087  1.00  0.00     0.066 A 
HETATM    6  C3  UNK     1      31.684  -5.444  36.414  1.00  0.00     0.081 C 
HETATM    7  C4  UNK     1      29.569  -6.980  37.371  1.00  0.00     0.104 A 
HETATM    8  C6  UNK     1      28.485  -7.709  38.023  1.00  0.00     0.033 A 
HETATM    9  C7  UNK     1      31.687  -5.869  37.695  1.00  0.00     0.155 C 
HETATM   10  C8  UNK     1      28.239  -6.855  35.305  1.00  0.00     0.298 A 
HETATM   11  C9  UNK     1      27.339  -7.986  37.282  1.00  0.00     0.092 A 
HETATM   12  C13 UNK     1      28.536  -8.151  39.351  1.00  0.00     0.017 A 
HETATM   13  C14 UNK     1      26.258  -8.683  37.822  1.00  0.00     0.038 A 
HETATM   14  C17 UNK     1      27.460  -8.850  39.907  1.00  0.00     0.001 A 
HETATM   15  C19 UNK     1      26.322  -9.117  39.143  1.00  0.00     0.003 A 
ENDROOT
BRANCH   4  16
HETATM   16  C5  UNK     1      31.236  -6.735  34.348  1.00  0.00     0.016 A 
HETATM   17  C10 UNK     1      31.244  -6.339  33.013  1.00  0.00     0.044 A 
HETATM   18  C15 UNK     1      31.820  -7.166  32.049  1.00  0.00     0.024 A 
HETATM   19 Cl1  UNK     1      30.552  -4.839  32.512  1.00  0.00    -0.084 Cl
HETATM   20  C18 UNK     1      32.387  -8.385  32.423  1.00  0.00     0.005 A 
HETATM   21  C16 UNK     1      32.378  -8.776  33.762  1.00  0.00     0.043 A 
HETATM   22  C11 UNK     1      31.801  -7.949  34.727  1.00  0.00     0.125 A 
HETATM   23  F1  UNK     1      31.796  -8.336  36.009  1.00  0.00    -0.205 F 
ENDBRANCH   4  16
BRANCH   6  24
HETATM   24  C12 UNK     1      32.708  -4.505  35.922  1.00  0.00     0.294 C 
HETATM   25  O5  UNK     1      32.468  -3.350  35.627  1.00  0.00    -0.259 OA
BRANCH  24  26
HETATM   26  O3  UNK     1      33.894  -5.156  35.872  1.00  0.00    -0.318 OA
BRANCH  26  27
HETATM   27  C20 UNK     1      34.738  -4.794  34.774  1.00  0.00     0.174 C 
HETATM   28  C21 UNK     1      34.930  -6.003  33.881  1.00  0.00     0.034 C 
ENDBRANCH  26  27
ENDBRANCH  24  26
ENDBRANCH   6  24
BRANCH   9  29
HETATM   29  N1  UNK     1      32.603  -5.549  38.655  1.00  0.00    -0.379 N 
HETATM   30  H6  UNK     1      33.488  -5.145  38.374  1.00  0.00     0.158 HD
HETATM   31  H7  UNK     1      32.401  -5.710  39.633  1.00  0.00     0.158 HD
ENDBRANCH   9  29
TORSDOF 5
ENDMDL
MODEL 4
REMARK VINA RESULT:      -7.3      2.253      5.755
REMARK  5 active torsions:
REMARK  status: ('A' for Active; 'I' for Inactive)
REMARK    1  A    between atoms: C12_20  and  O3_5 
REMARK    2  A    between atoms: C20_28  and  O3_5 
REMARK    3  A    between atoms: C7_15  and  N1_8 
REMARK    4  A    between atoms: C1_9  and  C5_13 
REMARK    5  A    between atoms: C12_20  and  C3_11 
ROOT
HETATM    1  O1  UNK     1      27.973  -6.958  35.345  1.00  0.00    -0.292 OA
HETATM    2  O2  UNK     1      30.352  -9.438  37.732  1.00  0.00    -0.274 OA
HETATM    3  O4  UNK     1      32.091  -9.172  36.281  1.00  0.00    -0.259 OA
HETATM    4  C1  UNK     1      30.705  -7.340  34.545  1.00  0.00     0.109 C 
HETATM    5  C2  UNK     1      30.094  -7.987  35.775  1.00  0.00     0.066 A 
HETATM    6  C3  UNK     1      29.650  -6.676  33.677  1.00  0.00     0.081 C 
HETATM    7  C4  UNK     1      28.812  -7.758  36.100  1.00  0.00     0.104 A 
HETATM    8  C6  UNK     1      28.220  -8.349  37.298  1.00  0.00     0.033 A 
HETATM    9  C7  UNK     1      28.375  -6.502  34.087  1.00  0.00     0.155 C 
HETATM   10  C8  UNK     1      30.935  -8.900  36.590  1.00  0.00     0.298 A 
HETATM   11  C9  UNK     1      29.017  -9.173  38.088  1.00  0.00     0.092 A 
HETATM   12  C13 UNK     1      26.897  -8.127  37.700  1.00  0.00     0.017 A 
HETATM   13  C14 UNK     1      28.536  -9.773  39.252  1.00  0.00     0.038 A 
HETATM   14  C17 UNK     1      26.401  -8.722  38.864  1.00  0.00     0.001 A 
HETATM   15  C19 UNK     1      27.220  -9.544  39.640  1.00  0.00     0.003 A 
ENDROOT
BRANCH   4  16
HETATM   16  C5  UNK     1      31.751  -6.342  34.946  1.00  0.00     0.016 A 
HETATM   17  C10 UNK     1      33.049  -6.416  34.448  1.00  0.00     0.044 A 
HETATM   18  C15 UNK     1      33.997  -5.472  34.842  1.00  0.00     0.024 A 
HETATM   19 Cl1  UNK     1      33.524  -7.657  33.346  1.00  0.00    -0.084 Cl
HETATM   20  C18 UNK     1      33.643  -4.457  35.732  1.00  0.00     0.005 A 
HETATM   21  C16 UNK     1      32.340  -4.386  36.227  1.00  0.00     0.043 A 
HETATM   22  C11 UNK     1      31.392  -5.331  35.833  1.00  0.00     0.125 A 
HETATM   23  F1  UNK     1      30.145  -5.255  36.316  1.00  0.00    -0.205 F 
ENDBRANCH   4  16
BRANCH   6  24
HETATM   24  C12 UNK     1      30.082  -6.248  32.334  1.00  0.00     0.294 C 
HETATM   25  O5  UNK     1      30.221  -5.082  32.017  1.00  0.00    -0.259 OA
BRANCH  24  26
HETATM   26  O3  UNK     1      30.280  -7.354  31.578  1.00  0.00    -0.318 OA
BRANCH  26  27
HETATM   27  C20 UNK     1      29.427  -7.465  30.434  1.00  0.00     0.174 C 
HETATM   28  C21 UNK     1      28.317  -8.448  30.741  1.00  0.00     0.034 C 
ENDBRANCH  26  27
ENDBRANCH  24  26
ENDBRANCH   6  24
BRANCH   9  29
HETATM   29  N1  UNK     1      27.370  -5.905  33.382  1.00  0.00    -0.379 N 
HETATM   30  H6  UNK     1      27.606  -5.220  32.675  1.00  0.00     0.158 HD
HETATM   31  H7  UNK     1      26.403  -6.145  33.561  1.00  0.00     0.158 HD
ENDBRANCH   9  29
TORSDOF 5
ENDMDL
MODEL 5
REMARK VINA RESULT:      -7.3      2.474      6.506
REMARK  5 active torsions:
REMARK  status: ('A' for Active; 'I' for Inactive)
REMARK    1  A    between atoms: C12_20  and  O3_5 
REMARK    2  A    between atoms: C20_28  and  O3_5 
REMARK    3  A    between atoms: C7_15  and  N1_8 
REMARK    4  A    between atoms: C1_9  and  C5_13 
REMARK    5  A    between atoms: C12_20  and  C3_11 
ROOT
HETATM    1  O1  UNK     1      28.922  -7.879  35.821  1.00  0.00    -0.292 OA
HETATM    2  O2  UNK     1      31.543  -4.639  36.204  1.00  0.00    -0.274 OA
HETATM    3  O4  UNK     1      32.587  -5.251  34.271  1.00  0.00    -0.259 OA
HETATM    4  C1  UNK     1      30.833  -7.466  33.717  1.00  0.00     0.109 C 
HETATM    5  C2  UNK     1      30.732  -6.577  34.942  1.00  0.00     0.066 A 
HETATM    6  C3  UNK     1      29.978  -8.715  33.856  1.00  0.00     0.081 C 
HETATM    7  C4  UNK     1      29.808  -6.818  35.886  1.00  0.00     0.104 A 
HETATM    8  C6  UNK     1      29.680  -5.952  37.055  1.00  0.00     0.033 A 
HETATM    9  C7  UNK     1      29.081  -8.874  34.852  1.00  0.00     0.155 C 
HETATM   10  C8  UNK     1      31.696  -5.456  35.089  1.00  0.00     0.298 A 
HETATM   11  C9  UNK     1      30.554  -4.876  37.177  1.00  0.00     0.092 A 
HETATM   12  C13 UNK     1      28.720  -6.140  38.058  1.00  0.00     0.017 A 
HETATM   13  C14 UNK     1      30.499  -3.994  38.256  1.00  0.00     0.038 A 
HETATM   14  C17 UNK     1      28.653  -5.265  39.147  1.00  0.00     0.001 A 
HETATM   15  C19 UNK     1      29.541  -4.193  39.245  1.00  0.00     0.003 A 
ENDROOT
BRANCH   4  16
HETATM   16  C5  UNK     1      30.440  -6.704  32.485  1.00  0.00     0.016 A 
HETATM   17  C10 UNK     1      31.244  -6.703  31.349  1.00  0.00     0.044 A 
HETATM   18  C15 UNK     1      30.848  -5.983  30.221  1.00  0.00     0.024 A 
HETATM   19 Cl1  UNK     1      32.731  -7.577  31.294  1.00  0.00    -0.084 Cl
HETATM   20  C18 UNK     1      29.651  -5.267  30.235  1.00  0.00     0.005 A 
HETATM   21  C16 UNK     1      28.849  -5.272  31.376  1.00  0.00     0.043 A 
HETATM   22  C11 UNK     1      29.244  -5.992  32.504  1.00  0.00     0.125 A 
HETATM   23  F1  UNK     1      28.467  -5.988  33.595  1.00  0.00    -0.205 F 
ENDBRANCH   4  16
BRANCH   6  24
HETATM   24  C12 UNK     1      30.197  -9.773  32.854  1.00  0.00     0.294 C 
HETATM   25  O5  UNK     1      31.252 -10.366  32.730  1.00  0.00    -0.259 OA
BRANCH  24  26
HETATM   26  O3  UNK     1      29.053  -9.937  32.149  1.00  0.00    -0.318 OA
BRANCH  26  27
HETATM   27  C20 UNK     1      29.131  -9.559  30.771  1.00  0.00     0.174 C 
HETATM   28  C21 UNK     1      27.908  -8.741  30.414  1.00  0.00     0.034 C 
ENDBRANCH  26  27
ENDBRANCH  24  26
ENDBRANCH   6  24
BRANCH   9  29
HETATM   29  N1  UNK     1      28.265  -9.950  35.045  1.00  0.00    -0.379 N 
HETATM   30  H6  UNK     1      28.448 -10.804  34.533  1.00  0.00     0.158 HD
HETATM   31  H7  UNK     1      27.488  -9.898  35.692  1.00  0.00     0.158 HD
ENDBRANCH   9  29
TORSDOF 5
ENDMDL
MODEL 6
REMARK VINA RESULT:      -7.2      2.548      3.862
REMARK  5 active torsions:
REMARK  status: ('A' for Active; 'I' for Inactive)
REMARK    1  A    between atoms: C12_20  and  O3_5 
REMARK    2  A    between atoms: C20_28  and  O3_5 
REMARK    3  A    between atoms: C7_15  and  N1_8 
REMARK    4  A    between atoms: C1_9  and  C5_13 
REMARK    5  A    between atoms: C12_20  and  C3_11 
ROOT
HETATM    1  O1  UNK     1      30.739 -10.149  33.564  1.00  0.00    -0.292 OA
HETATM    2  O2  UNK     1      27.977  -7.457  31.939  1.00  0.00    -0.274 OA
HETATM    3  O4  UNK     1      27.789  -6.422  33.963  1.00  0.00    -0.259 OA
HETATM    4  C1  UNK     1      29.754  -8.065  35.278  1.00  0.00     0.109 C 
HETATM    5  C2  UNK     1      29.325  -8.232  33.833  1.00  0.00     0.066 A 
HETATM    6  C3  UNK     1      30.566  -9.254  35.765  1.00  0.00     0.081 C 
HETATM    7  C4  UNK     1      29.832  -9.222  33.080  1.00  0.00     0.104 A 
HETATM    8  C6  UNK     1      29.451  -9.375  31.679  1.00  0.00     0.033 A 
HETATM    9  C7  UNK     1      31.022 -10.212  34.930  1.00  0.00     0.155 C 
HETATM   10  C8  UNK     1      28.311  -7.298  33.279  1.00  0.00     0.298 A 
HETATM   11  C9  UNK     1      28.532  -8.476  31.144  1.00  0.00     0.092 A 
HETATM   12  C13 UNK     1      29.964 -10.372  30.840  1.00  0.00     0.017 A 
HETATM   13  C14 UNK     1      28.118  -8.544  29.813  1.00  0.00     0.038 A 
HETATM   14  C17 UNK     1      29.558 -10.454  29.504  1.00  0.00     0.001 A 
HETATM   15  C19 UNK     1      28.636  -9.540  28.991  1.00  0.00     0.003 A 
ENDROOT
BRANCH   4  16
HETATM   16  C5  UNK     1      30.540  -6.798  35.446  1.00  0.00     0.016 A 
HETATM   17  C10 UNK     1      30.200  -5.861  36.418  1.00  0.00     0.044 A 
HETATM   18  C15 UNK     1      30.952  -4.693  36.547  1.00  0.00     0.024 A 
HETATM   19 Cl1  UNK     1      28.861  -6.105  37.479  1.00  0.00    -0.084 Cl
HETATM   20  C18 UNK     1      32.040  -4.467  35.703  1.00  0.00     0.005 A 
HETATM   21  C16 UNK     1      32.377  -5.410  34.732  1.00  0.00     0.043 A 
HETATM   22  C11 UNK     1      31.625  -6.578  34.603  1.00  0.00     0.125 A 
HETATM   23  F1  UNK     1      31.956  -7.476  33.665  1.00  0.00    -0.205 F 
ENDBRANCH   4  16
BRANCH   6  24
HETATM   24  C12 UNK     1      30.811  -9.330  37.216  1.00  0.00     0.294 C 
HETATM   25  O5  UNK     1      29.933  -9.545  38.031  1.00  0.00    -0.259 OA
BRANCH  24  26
HETATM   26  O3  UNK     1      32.131  -9.125  37.437  1.00  0.00    -0.318 OA
BRANCH  26  27
HETATM   27  C20 UNK     1      32.436  -8.028  38.305  1.00  0.00     0.174 C 
HETATM   28  C21 UNK     1      33.588  -7.241  37.717  1.00  0.00     0.034 C 
ENDBRANCH  26  27
ENDBRANCH  24  26
ENDBRANCH   6  24
BRANCH   9  29
HETATM   29  N1  UNK     1      31.768 -11.302  35.276  1.00  0.00    -0.379 N 
HETATM   30  H6  UNK     1      31.607 -12.180  34.798  1.00  0.00     0.158 HD
HETATM   31  H7  UNK     1      32.474 -11.235  35.999  1.00  0.00     0.158 HD
ENDBRANCH   9  29
TORSDOF 5
ENDMDL
MODEL 7
REMARK VINA RESULT:      -7.1      3.402      7.180
REMARK  5 active torsions:
REMARK  status: ('A' for Active; 'I' for Inactive)
REMARK    1  A    between atoms: C12_20  and  O3_5 
REMARK    2  A    between atoms: C20_28  and  O3_5 
REMARK    3  A    between atoms: C7_15  and  N1_8 
REMARK    4  A    between atoms: C1_9  and  C5_13 
REMARK    5  A    between atoms: C12_20  and  C3_11 
ROOT
HETATM    1  O1  UNK     1      31.407 -10.721  33.430  1.00  0.00    -0.292 OA
HETATM    2  O2  UNK     1      31.420  -6.887  35.106  1.00  0.00    -0.274 OA
HETATM    3  O4  UNK     1      31.440  -5.970  33.018  1.00  0.00    -0.259 OA
HETATM    4  C1  UNK     1      31.304  -8.487  31.627  1.00  0.00     0.109 C 
HETATM    5  C2  UNK     1      31.363  -8.343  33.136  1.00  0.00     0.066 A 
HETATM    6  C3  UNK     1      31.546  -9.923  31.190  1.00  0.00     0.081 C 
HETATM    7  C4  UNK     1      31.398  -9.428  33.925  1.00  0.00     0.104 A 
HETATM    8  C6  UNK     1      31.422  -9.304  35.380  1.00  0.00     0.033 A 
HETATM    9  C7  UNK     1      31.579 -10.952  32.063  1.00  0.00     0.155 C 
HETATM   10  C8  UNK     1      31.411  -6.977  33.718  1.00  0.00     0.298 A 
HETATM   11  C9  UNK     1      31.426  -8.026  35.932  1.00  0.00     0.092 A 
HETATM   12  C13 UNK     1      31.435 -10.400  36.252  1.00  0.00     0.017 A 
HETATM   13  C14 UNK     1      31.442  -7.814  37.310  1.00  0.00     0.038 A 
HETATM   14  C17 UNK     1      31.452 -10.203  37.637  1.00  0.00     0.001 A 
HETATM   15  C19 UNK     1      31.454  -8.911  38.165  1.00  0.00     0.003 A 
ENDROOT
BRANCH   4  16
HETATM   16  C5  UNK     1      29.983  -8.003  31.107  1.00  0.00     0.016 A 
HETATM   17  C10 UNK     1      29.908  -6.984  30.161  1.00  0.00     0.044 A 
HETATM   18  C15 UNK     1      28.663  -6.558  29.699  1.00  0.00     0.024 A 
HETATM   19 Cl1  UNK     1      31.327  -6.225  29.537  1.00  0.00    -0.084 Cl
HETATM   20  C18 UNK     1      27.497  -7.152  30.185  1.00  0.00     0.005 A 
HETATM   21  C16 UNK     1      27.578  -8.173  31.132  1.00  0.00     0.043 A 
HETATM   22  C11 UNK     1      28.823  -8.600  31.594  1.00  0.00     0.125 A 
HETATM   23  F1  UNK     1      28.889  -9.580  32.505  1.00  0.00    -0.205 F 
ENDBRANCH   4  16
BRANCH   6  24
HETATM   24  C12 UNK     1      31.776 -10.138  29.750  1.00  0.00     0.294 C 
HETATM   25  O5  UNK     1      32.783  -9.775  29.173  1.00  0.00    -0.259 OA
BRANCH  24  26
HETATM   26  O3  UNK     1      30.702 -10.786  29.239  1.00  0.00    -0.318 OA
BRANCH  26  27
HETATM   27  C20 UNK     1      30.099 -10.156  28.105  1.00  0.00     0.174 C 
HETATM   28  C21 UNK     1      28.593 -10.195  28.262  1.00  0.00     0.034 C 
ENDBRANCH  26  27
ENDBRANCH  24  26
ENDBRANCH   6  24
BRANCH   9  29
HETATM   29  N1  UNK     1      31.774 -12.268  31.758  1.00  0.00    -0.379 N 
HETATM   30  H6  UNK     1      31.034 -12.781  31.297  1.00  0.00     0.158 HD
HETATM   31  H7  UNK     1      32.648 -12.725  31.987  1.00  0.00     0.158 HD
ENDBRANCH   9  29
TORSDOF 5
ENDMDL
MODEL 8
REMARK VINA RESULT:      -7.1      2.623      4.104
REMARK  5 active torsions:
REMARK  status: ('A' for Active; 'I' for Inactive)
REMARK    1  A    between atoms: C12_20  and  O3_5 
REMARK    2  A    between atoms: C20_28  and  O3_5 
REMARK    3  A    between atoms: C7_15  and  N1_8 
REMARK    4  A    between atoms: C1_9  and  C5_13 
REMARK    5  A    between atoms: C12_20  and  C3_11 
ROOT
HETATM    1  O1  UNK     1      28.408  -8.303  34.294  1.00  0.00    -0.292 OA
HETATM    2  O2  UNK     1      30.654  -5.896  31.711  1.00  0.00    -0.274 OA
HETATM    3  O4  UNK     1      31.337  -4.629  33.480  1.00  0.00    -0.259 OA
HETATM    4  C1  UNK     1      29.981  -6.207  35.470  1.00  0.00     0.109 C 
HETATM    5  C2  UNK     1      29.927  -6.477  33.978  1.00  0.00     0.066 A 
HETATM    6  C3  UNK     1      28.934  -7.011  36.224  1.00  0.00     0.081 C 
HETATM    7  C4  UNK     1      29.180  -7.481  33.492  1.00  0.00     0.104 A 
HETATM    8  C6  UNK     1      29.145  -7.771  32.061  1.00  0.00     0.033 A 
HETATM    9  C7  UNK     1      28.218  -7.997  35.644  1.00  0.00     0.155 C 
HETATM   10  C8  UNK     1      30.694  -5.589  33.067  1.00  0.00     0.298 A 
HETATM   11  C9  UNK     1      29.894  -6.967  31.207  1.00  0.00     0.092 A 
HETATM   12  C13 UNK     1      28.404  -8.819  31.500  1.00  0.00     0.017 A 
HETATM   13  C14 UNK     1      29.924  -7.177  29.828  1.00  0.00     0.038 A 
HETATM   14  C17 UNK     1      28.423  -9.041  30.120  1.00  0.00     0.001 A 
HETATM   15  C19 UNK     1      29.183  -8.221  29.285  1.00  0.00     0.003 A 
ENDROOT
BRANCH   4  16
HETATM   16  C5  UNK     1      31.350  -6.507  36.006  1.00  0.00     0.016 A 
HETATM   17  C10 UNK     1      32.092  -5.537  36.674  1.00  0.00     0.044 A 
HETATM   18  C15 UNK     1      33.362  -5.850  37.160  1.00  0.00     0.024 A 
HETATM   19 Cl1  UNK     1      31.480  -3.942  36.922  1.00  0.00    -0.084 Cl
HETATM   20  C18 UNK     1      33.885  -7.130  36.975  1.00  0.00     0.005 A 
HETATM   21  C16 UNK     1      33.136  -8.099  36.305  1.00  0.00     0.043 A 
HETATM   22  C11 UNK     1      31.866  -7.786  35.820  1.00  0.00     0.125 A 
HETATM   23  F1  UNK     1      31.156  -8.723  35.177  1.00  0.00    -0.205 F 
ENDBRANCH   4  16
BRANCH   6  24
HETATM   24  C12 UNK     1      28.713  -6.638  37.633  1.00  0.00     0.294 C 
HETATM   25  O5  UNK     1      28.463  -5.503  37.992  1.00  0.00    -0.259 OA
BRANCH  24  26
HETATM   26  O3  UNK     1      28.836  -7.752  38.393  1.00  0.00    -0.318 OA
BRANCH  26  27
HETATM   27  C20 UNK     1      27.950  -7.820  39.515  1.00  0.00     0.174 C 
HETATM   28  C21 UNK     1      27.655  -9.272  39.823  1.00  0.00     0.034 C 
ENDBRANCH  26  27
ENDBRANCH  24  26
ENDBRANCH   6  24
BRANCH   9  29
HETATM   29  N1  UNK     1      27.273  -8.776  36.246  1.00  0.00    -0.379 N 
HETATM   30  H6  UNK     1      26.778  -8.414  37.051  1.00  0.00     0.158 HD
HETATM   31  H7  UNK     1      27.068  -9.702  35.893  1.00  0.00     0.158 HD
ENDBRANCH   9  29
TORSDOF 5
ENDMDL
MODEL 9
REMARK VINA RESULT:      -7.0      3.957      6.553
REMARK  5 active torsions:
REMARK  status: ('A' for Active; 'I' for Inactive)
REMARK    1  A    between atoms: C12_20  and  O3_5 
REMARK    2  A    between atoms: C20_28  and  O3_5 
REMARK    3  A    between atoms: C7_15  and  N1_8 
REMARK    4  A    between atoms: C1_9  and  C5_13 
REMARK    5  A    between atoms: C12_20  and  C3_11 
ROOT
HETATM    1  O1  UNK     1      34.508  -6.592  35.793  1.00  0.00    -0.292 OA
HETATM    2  O2  UNK     1      30.513  -5.789  34.842  1.00  0.00    -0.274 OA
HETATM    3  O4  UNK     1      30.912  -6.357  32.669  1.00  0.00    -0.259 OA
HETATM    4  C1  UNK     1      33.663  -7.094  33.094  1.00  0.00     0.109 C 
HETATM    5  C2  UNK     1      32.741  -6.559  34.175  1.00  0.00     0.066 A 
HETATM    6  C3  UNK     1      35.114  -7.102  33.547  1.00  0.00     0.081 C 
HETATM    7  C4  UNK     1      33.196  -6.356  35.421  1.00  0.00     0.104 A 
HETATM    8  C6  UNK     1      32.312  -5.871  36.477  1.00  0.00     0.033 A 
HETATM    9  C7  UNK     1      35.477  -6.871  34.826  1.00  0.00     0.155 C 
HETATM   10  C8  UNK     1      31.336  -6.236  33.815  1.00  0.00     0.298 A 
HETATM   11  C9  UNK     1      30.984  -5.605  36.155  1.00  0.00     0.092 A 
HETATM   12  C13 UNK     1      32.724  -5.663  37.800  1.00  0.00     0.017 A 
HETATM   13  C14 UNK     1      30.069  -5.146  37.102  1.00  0.00     0.038 A 
HETATM   14  C17 UNK     1      31.819  -5.202  38.761  1.00  0.00     0.001 A 
HETATM   15  C19 UNK     1      30.492  -4.945  38.412  1.00  0.00     0.003 A 
ENDROOT
BRANCH   4  16
HETATM   16  C5  UNK     1      33.241  -8.475  32.685  1.00  0.00     0.016 A 
HETATM   17  C10 UNK     1      32.917  -8.770  31.364  1.00  0.00     0.044 A 
HETATM   18  C15 UNK     1      32.528 -10.064  31.018  1.00  0.00     0.024 A 
HETATM   19 Cl1  UNK     1      32.985  -7.567  30.128  1.00  0.00    -0.084 Cl
HETATM   20  C18 UNK     1      32.463 -11.058  31.995  1.00  0.00     0.005 A 
HETATM   21  C16 UNK     1      32.790 -10.757  33.318  1.00  0.00     0.043 A 
HETATM   22  C11 UNK     1      33.179  -9.463  33.664  1.00  0.00     0.125 A 
HETATM   23  F1  UNK     1      33.488  -9.185  34.937  1.00  0.00    -0.205 F 
ENDBRANCH   4  16
BRANCH   6  24
HETATM   24  C12 UNK     1      36.124  -7.348  32.502  1.00  0.00     0.294 C 
HETATM   25  O5  UNK     1      36.196  -6.696  31.477  1.00  0.00    -0.259 OA
BRANCH  24  26
HETATM   26  O3  UNK     1      36.903  -8.382  32.897  1.00  0.00    -0.318 OA
BRANCH  26  27
HETATM   27  C20 UNK     1      36.702  -9.602  32.176  1.00  0.00     0.174 C 
HETATM   28  C21 UNK     1      36.583 -10.743  33.163  1.00  0.00     0.034 C 
ENDBRANCH  26  27
ENDBRANCH  24  26
ENDBRANCH   6  24
BRANCH   9  29
HETATM   29  N1  UNK     1      36.749  -6.873  35.321  1.00  0.00    -0.379 N 
HETATM   30  H6  UNK     1      36.915  -7.244  36.248  1.00  0.00     0.158 HD
HETATM   31  H7  UNK     1      37.517  -6.510  34.770  1.00  0.00     0.158 HD
ENDBRANCH   9  29
TORSDOF 5
ENDMDL
MODEL 10
REMARK VINA RESULT:      -7.0      2.618      5.537
REMARK  5 active torsions:
REMARK  status: ('A' for Active; 'I' for Inactive)
REMARK    1  A    between atoms: C12_20  and  O3_5 
REMARK    2  A    between atoms: C20_28  and  O3_5 
REMARK    3  A    between atoms: C7_15  and  N1_8 
REMARK    4  A    between atoms: C1_9  and  C5_13 
REMARK    5  A    between atoms: C12_20  and  C3_11 
ROOT
HETATM    1  O1  UNK     1      31.120  -8.732  36.862  1.00  0.00    -0.292 OA
HETATM    2  O2  UNK     1      27.071  -7.692  36.666  1.00  0.00    -0.274 OA
HETATM    3  O4  UNK     1      27.476  -6.456  34.792  1.00  0.00    -0.259 OA
HETATM    4  C1  UNK     1      30.272  -7.127  34.636  1.00  0.00     0.109 C 
HETATM    5  C2  UNK     1      29.334  -7.607  35.727  1.00  0.00     0.066 A 
HETATM    6  C3  UNK     1      31.726  -7.391  34.988  1.00  0.00     0.081 C 
HETATM    7  C4  UNK     1      29.792  -8.365  36.736  1.00  0.00     0.104 A 
HETATM    8  C6  UNK     1      28.894  -8.860  37.776  1.00  0.00     0.033 A 
HETATM    9  C7  UNK     1      32.092  -8.159  36.037  1.00  0.00     0.155 C 
HETATM   10  C8  UNK     1      27.907  -7.196  35.671  1.00  0.00     0.298 A 
HETATM   11  C9  UNK     1      27.548  -8.511  37.706  1.00  0.00     0.092 A 
HETATM   12  C13 UNK     1      29.310  -9.673  38.839  1.00  0.00     0.017 A 
HETATM   13  C14 UNK     1      26.619  -8.945  38.652  1.00  0.00     0.038 A 
HETATM   14  C17 UNK     1      28.391 -10.115  39.795  1.00  0.00     0.001 A 
HETATM   15  C19 UNK     1      27.047  -9.751  39.701  1.00  0.00     0.003 A 
ENDROOT
BRANCH   4  16
HETATM   16  C5  UNK     1      29.929  -7.779  33.328  1.00  0.00     0.016 A 
HETATM   17  C10 UNK     1      29.633  -7.021  32.199  1.00  0.00     0.044 A 
HETATM   18  C15 UNK     1      29.318  -7.660  30.999  1.00  0.00     0.024 A 
HETATM   19 Cl1  UNK     1      29.645  -5.296  32.240  1.00  0.00    -0.084 Cl
HETATM   20  C18 UNK     1      29.299  -9.054  30.934  1.00  0.00     0.005 A 
HETATM   21  C16 UNK     1      29.598  -9.808  32.070  1.00  0.00     0.043 A 
HETATM   22  C11 UNK     1      29.913  -9.170  33.269  1.00  0.00     0.125 A 
HETATM   23  F1  UNK     1      30.195  -9.904  34.353  1.00  0.00    -0.205 F 
ENDBRANCH   4  16
BRANCH   6  24
HETATM   24  C12 UNK     1      32.735  -6.737  34.136  1.00  0.00     0.294 C 
HETATM   25  O5  UNK     1      33.584  -7.349  33.516  1.00  0.00    -0.259 OA
BRANCH  24  26
HETATM   26  O3  UNK     1      32.531  -5.399  34.185  1.00  0.00    -0.318 OA
BRANCH  26  27
HETATM   27  C20 UNK     1      33.316  -4.702  35.159  1.00  0.00     0.174 C 
HETATM   28  C21 UNK     1      32.399  -3.850  36.010  1.00  0.00     0.034 C 
ENDBRANCH  26  27
ENDBRANCH  24  26
ENDBRANCH   6  24
BRANCH   9  29
HETATM   29  N1  UNK     1      33.368  -8.460  36.416  1.00  0.00    -0.379 N 
HETATM   30  H6  UNK     1      33.555  -9.360  36.841  1.00  0.00     0.158 HD
HETATM   31  H7  UNK     1      34.118  -7.796  36.273  1.00  0.00     0.158 HD
ENDBRANCH   9  29
TORSDOF 5
ENDMDL
