MODEL 1
REMARK VINA RESULT:      -8.6      0.000      0.000
REMARK  6 active torsions:
REMARK  status: ('A' for Active; 'I' for Inactive)
REMARK    1  A    between atoms: C19_26  and  O3_3 
REMARK    2  A    between atoms: C21_28  and  O3_3 
REMARK    3  A    between atoms: C5_12  and  N1_5 
REMARK    4  A    between atoms: C10_17  and  N2_6 
REMARK       I    between atoms: C11_18  and  N3_7 
REMARK    5  A    between atoms: C11_18  and  C5_12 
REMARK    6  A    between atoms: C10_17  and  C12_19 
ROOT
HETATM    1  C10 UNK     1      18.169   2.395  30.458  1.00  0.00     0.312 C 
ENDROOT
BRANCH   1   2
HETATM    2  N2  UNK     1      18.825   3.466  31.204  1.00  0.00     0.096 N 
HETATM    3  C3  UNK     1      19.097   4.618  30.335  1.00  0.00     0.303 C 
HETATM    4  C1  UNK     1      19.781   5.744  31.117  1.00  0.00     0.303 C 
HETATM    5  N1  UNK     1      18.965   6.152  32.268  1.00  0.00     0.100 N 
HETATM    6  C2  UNK     1      18.696   5.000  33.138  1.00  0.00     0.303 C 
HETATM    7  C4  UNK     1      18.011   3.875  32.356  1.00  0.00     0.303 C 
BRANCH   5   8
HETATM    8  C5  UNK     1      19.619   7.224  33.014  1.00  0.00     0.374 C 
BRANCH   8   9
HETATM    9  C11 UNK     1      18.753   7.751  34.130  1.00  0.00     0.248 C 
HETATM   10  O1  UNK     1      19.150   7.720  35.295  1.00  0.00    -0.271 OA
HETATM   11  N3  UNK     1      17.519   8.246  33.745  1.00  0.00    -0.351 N 
HETATM   12  C6  UNK     1      16.566   8.785  34.702  1.00  0.00     0.126 C 
HETATM   13  C7  UNK     1      16.993   8.314  32.385  1.00  0.00     0.126 C 
HETATM   14  C8  UNK     1      15.527   9.494  33.847  1.00  0.00     0.021 C 
HETATM   15  C9  UNK     1      15.524   8.670  32.565  1.00  0.00     0.021 C 
ENDBRANCH   8   9
ENDBRANCH   5   8
ENDBRANCH   1   2
BRANCH   1  16
HETATM   16  C12 UNK     1      18.986   1.149  30.430  1.00  0.00    -0.011 A 
HETATM   17  C13 UNK     1      19.030   0.275  31.611  1.00  0.00     0.009 A 
HETATM   18  C15 UNK     1      19.804  -0.885  31.555  1.00  0.00     0.090 A 
HETATM   19  C16 UNK     1      18.337   0.538  32.801  1.00  0.00     0.051 A 
HETATM   20  C18 UNK     1      19.901  -1.769  32.631  1.00  0.00     0.041 A 
HETATM   21  O2  UNK     1      20.529  -1.222  30.395  1.00  0.00    -0.275 OA
HETATM   22  C20 UNK     1      19.206  -1.490  33.803  1.00  0.00     0.039 A 
HETATM   23  C19 UNK     1      18.425  -0.340  33.888  1.00  0.00     0.069 A 
HETATM   24  C17 UNK     1      20.506  -0.418  29.265  1.00  0.00     0.288 A 
HETATM   25  C14 UNK     1      19.686   0.803  29.340  1.00  0.00     0.092 A 
HETATM   26  O4  UNK     1      21.132  -0.701  28.252  1.00  0.00    -0.260 OA
BRANCH  23  27
HETATM   27  O3  UNK     1      17.744  -0.065  35.035  1.00  0.00    -0.351 OA
BRANCH  27  28
HETATM   28  C21 UNK     1      17.643   1.305  35.418  1.00  0.00     0.171 C 
HETATM   29  C22 UNK     1      18.948   1.737  36.052  1.00  0.00     0.034 C 
ENDBRANCH  27  28
ENDBRANCH  23  27
ENDBRANCH   1  16
TORSDOF 6
ENDMDL
MODEL 2
REMARK VINA RESULT:      -8.4     23.050     25.226
REMARK  6 active torsions:
REMARK  status: ('A' for Active; 'I' for Inactive)
REMARK    1  A    between atoms: C19_26  and  O3_3 
REMARK    2  A    between atoms: C21_28  and  O3_3 
REMARK    3  A    between atoms: C5_12  and  N1_5 
REMARK    4  A    between atoms: C10_17  and  N2_6 
REMARK       I    between atoms: C11_18  and  N3_7 
REMARK    5  A    between atoms: C11_18  and  C5_12 
REMARK    6  A    between atoms: C10_17  and  C12_19 
ROOT
HETATM    1  C10 UNK     1      13.089   6.898   7.234  1.00  0.00     0.312 C 
ENDROOT
BRANCH   1   2
HETATM    2  N2  UNK     1      11.822   6.215   7.487  1.00  0.00     0.096 N 
HETATM    3  C3  UNK     1      11.496   6.232   8.918  1.00  0.00     0.303 C 
HETATM    4  C1  UNK     1      10.165   5.520   9.184  1.00  0.00     0.303 C 
HETATM    5  N1  UNK     1       9.081   6.129   8.404  1.00  0.00     0.100 N 
HETATM    6  C2  UNK     1       9.407   6.111   6.972  1.00  0.00     0.303 C 
HETATM    7  C4  UNK     1      10.736   6.824   6.706  1.00  0.00     0.303 C 
BRANCH   5   8
HETATM    8  C5  UNK     1       7.813   5.448   8.656  1.00  0.00     0.374 C 
BRANCH   8   9
HETATM    9  C11 UNK     1       7.327   5.656  10.068  1.00  0.00     0.248 C 
HETATM   10  O1  UNK     1       7.554   6.713  10.657  1.00  0.00    -0.271 OA
HETATM   11  N3  UNK     1       6.637   4.594  10.624  1.00  0.00    -0.351 N 
HETATM   12  C6  UNK     1       6.108   4.635  11.979  1.00  0.00     0.126 C 
HETATM   13  C7  UNK     1       6.332   3.319   9.981  1.00  0.00     0.126 C 
HETATM   14  C8  UNK     1       5.171   3.439  12.058  1.00  0.00     0.021 C 
HETATM   15  C9  UNK     1       5.819   2.437  11.110  1.00  0.00     0.021 C 
ENDBRANCH   8   9
ENDBRANCH   5   8
ENDBRANCH   1   2
BRANCH   1  16
HETATM   16  C12 UNK     1      14.093   6.633   8.302  1.00  0.00    -0.011 A 
HETATM   17  C13 UNK     1      14.636   7.749   9.090  1.00  0.00     0.009 A 
HETATM   18  C15 UNK     1      15.575   7.471  10.083  1.00  0.00     0.090 A 
HETATM   19  C16 UNK     1      14.265   9.088   8.903  1.00  0.00     0.051 A 
HETATM   20  C18 UNK     1      16.141   8.471  10.876  1.00  0.00     0.041 A 
HETATM   21  O2  UNK     1      16.000   6.151  10.335  1.00  0.00    -0.275 OA
HETATM   22  C20 UNK     1      15.760   9.793  10.675  1.00  0.00     0.039 A 
HETATM   23  C19 UNK     1      14.823  10.101   9.691  1.00  0.00     0.069 A 
HETATM   24  C17 UNK     1      15.505   5.078   9.609  1.00  0.00     0.288 A 
HETATM   25  C14 UNK     1      14.515   5.388   8.564  1.00  0.00     0.092 A 
HETATM   26  O4  UNK     1      15.866   3.927   9.820  1.00  0.00    -0.260 OA
BRANCH  23  27
HETATM   27  O3  UNK     1      14.449  11.396   9.492  1.00  0.00    -0.351 OA
BRANCH  27  28
HETATM   28  C21 UNK     1      15.448  12.294   9.013  1.00  0.00     0.171 C 
HETATM   29  C22 UNK     1      15.661  12.051   7.534  1.00  0.00     0.034 C 
ENDBRANCH  27  28
ENDBRANCH  23  27
ENDBRANCH   1  16
TORSDOF 6
ENDMDL
MODEL 3
REMARK VINA RESULT:      -8.4     10.604     15.044
REMARK  6 active torsions:
REMARK  status: ('A' for Active; 'I' for Inactive)
REMARK    1  A    between atoms: C19_26  and  O3_3 
REMARK    2  A    between atoms: C21_28  and  O3_3 
REMARK    3  A    between atoms: C5_12  and  N1_5 
REMARK    4  A    between atoms: C10_17  and  N2_6 
REMARK       I    between atoms: C11_18  and  N3_7 
REMARK    5  A    between atoms: C11_18  and  C5_12 
REMARK    6  A    between atoms: C10_17  and  C12_19 
ROOT
HETATM    1  C10 UNK     1      22.700  -9.334  36.189  1.00  0.00     0.312 C 
ENDROOT
BRANCH   1   2
HETATM    2  N2  UNK     1      23.764  -9.341  37.191  1.00  0.00     0.096 N 
HETATM    3  C3  UNK     1      25.073  -9.555  36.563  1.00  0.00     0.303 C 
HETATM    4  C1  UNK     1      26.190  -9.559  37.612  1.00  0.00     0.303 C 
HETATM    5  N1  UNK     1      26.188  -8.308  38.381  1.00  0.00     0.100 N 
HETATM    6  C2  UNK     1      24.879  -8.096  39.011  1.00  0.00     0.303 C 
HETATM    7  C4  UNK     1      23.763  -8.091  37.961  1.00  0.00     0.303 C 
BRANCH   5   8
HETATM    8  C5  UNK     1      27.252  -8.313  39.383  1.00  0.00     0.374 C 
BRANCH   8   9
HETATM    9  C11 UNK     1      28.220  -7.174  39.191  1.00  0.00     0.248 C 
HETATM   10  O1  UNK     1      27.911  -6.030  39.525  1.00  0.00    -0.271 OA
HETATM   11  N3  UNK     1      29.435  -7.513  38.621  1.00  0.00    -0.351 N 
HETATM   12  C6  UNK     1      30.474  -6.527  38.365  1.00  0.00     0.126 C 
HETATM   13  C7  UNK     1      29.862  -8.845  38.207  1.00  0.00     0.126 C 
HETATM   14  C8  UNK     1      31.713  -7.353  38.056  1.00  0.00     0.021 C 
HETATM   15  C9  UNK     1      31.134  -8.604  37.407  1.00  0.00     0.021 C 
ENDBRANCH   8   9
ENDBRANCH   5   8
ENDBRANCH   1   2
BRANCH   1  16
HETATM   16  C12 UNK     1      21.347  -9.415  36.805  1.00  0.00    -0.011 A 
HETATM   17  C13 UNK     1      20.443  -8.257  36.742  1.00  0.00     0.009 A 
HETATM   18  C15 UNK     1      19.181  -8.362  37.328  1.00  0.00     0.090 A 
HETATM   19  C16 UNK     1      20.774  -7.044  36.123  1.00  0.00     0.051 A 
HETATM   20  C18 UNK     1      18.262  -7.311  37.314  1.00  0.00     0.041 A 
HETATM   21  O2  UNK     1      18.772  -9.548  37.969  1.00  0.00    -0.275 OA
HETATM   22  C20 UNK     1      18.610  -6.115  36.695  1.00  0.00     0.039 A 
HETATM   23  C19 UNK     1      19.862  -5.982  36.100  1.00  0.00     0.069 A 
HETATM   24  C17 UNK     1      19.602 -10.657  38.043  1.00  0.00     0.288 A 
HETATM   25  C14 UNK     1      20.930 -10.530  37.420  1.00  0.00     0.092 A 
HETATM   26  O4  UNK     1      19.255 -11.693  38.597  1.00  0.00    -0.260 OA
BRANCH  23  27
HETATM   27  O3  UNK     1      20.204  -4.811  35.494  1.00  0.00    -0.351 OA
BRANCH  27  28
HETATM   28  C21 UNK     1      19.952  -3.607  36.217  1.00  0.00     0.171 C 
HETATM   29  C22 UNK     1      20.220  -2.423  35.312  1.00  0.00     0.034 C 
ENDBRANCH  27  28
ENDBRANCH  23  27
ENDBRANCH   1  16
TORSDOF 6
ENDMDL
MODEL 4
REMARK VINA RESULT:      -8.3     12.474     15.504
REMARK  6 active torsions:
REMARK  status: ('A' for Active; 'I' for Inactive)
REMARK    1  A    between atoms: C19_26  and  O3_3 
REMARK    2  A    between atoms: C21_28  and  O3_3 
REMARK    3  A    between atoms: C5_12  and  N1_5 
REMARK    4  A    between atoms: C10_17  and  N2_6 
REMARK       I    between atoms: C11_18  and  N3_7 
REMARK    5  A    between atoms: C11_18  and  C5_12 
REMARK    6  A    between atoms: C10_17  and  C12_19 
ROOT
HETATM    1  C10 UNK     1      24.507  -8.290  39.029  1.00  0.00     0.312 C 
ENDROOT
BRANCH   1   2
HETATM    2  N2  UNK     1      25.744  -8.132  38.267  1.00  0.00     0.096 N 
HETATM    3  C3  UNK     1      26.322  -6.800  38.481  1.00  0.00     0.303 C 
HETATM    4  C1  UNK     1      27.622  -6.633  37.686  1.00  0.00     0.303 C 
HETATM    5  N1  UNK     1      28.591  -7.677  38.044  1.00  0.00     0.100 N 
HETATM    6  C2  UNK     1      28.012  -9.009  37.829  1.00  0.00     0.303 C 
HETATM    7  C4  UNK     1      26.714  -9.175  38.625  1.00  0.00     0.303 C 
BRANCH   5   8
HETATM    8  C5  UNK     1      29.828  -7.519  37.284  1.00  0.00     0.374 C 
BRANCH   8   9
HETATM    9  C11 UNK     1      30.561  -6.252  37.647  1.00  0.00     0.248 C 
HETATM   10  O1  UNK     1      30.531  -5.823  38.800  1.00  0.00    -0.271 OA
HETATM   11  N3  UNK     1      31.238  -5.637  36.609  1.00  0.00    -0.351 N 
HETATM   12  C6  UNK     1      31.988  -4.404  36.794  1.00  0.00     0.126 C 
HETATM   13  C7  UNK     1      31.316  -6.095  35.225  1.00  0.00     0.126 C 
HETATM   14  C8  UNK     1      32.815  -4.267  35.524  1.00  0.00     0.021 C 
HETATM   15  C9  UNK     1      31.930  -4.924  34.471  1.00  0.00     0.021 C 
ENDBRANCH   8   9
ENDBRANCH   5   8
ENDBRANCH   1   2
BRANCH   1  16
HETATM   16  C12 UNK     1      23.312  -7.846  38.259  1.00  0.00    -0.011 A 
HETATM   17  C13 UNK     1      22.806  -8.671  37.152  1.00  0.00     0.009 A 
HETATM   18  C15 UNK     1      21.684  -8.230  36.449  1.00  0.00     0.090 A 
HETATM   19  C16 UNK     1      23.385  -9.884  36.757  1.00  0.00     0.051 A 
HETATM   20  C18 UNK     1      21.140  -8.951  35.385  1.00  0.00     0.041 A 
HETATM   21  O2  UNK     1      21.043  -7.021  36.785  1.00  0.00    -0.275 OA
HETATM   22  C20 UNK     1      21.730 -10.153  35.008  1.00  0.00     0.039 A 
HETATM   23  C19 UNK     1      22.850 -10.619  35.693  1.00  0.00     0.069 A 
HETATM   24  C17 UNK     1      21.496  -6.223  37.824  1.00  0.00     0.288 A 
HETATM   25  C14 UNK     1      22.680  -6.702  38.556  1.00  0.00     0.092 A 
HETATM   26  O4  UNK     1      20.946  -5.171  38.125  1.00  0.00    -0.260 OA
BRANCH  23  27
HETATM   27  O3  UNK     1      23.429 -11.796  35.325  1.00  0.00    -0.351 OA
BRANCH  27  28
HETATM   28  C21 UNK     1      24.678 -12.122  35.931  1.00  0.00     0.171 C 
HETATM   29  C22 UNK     1      24.711 -13.607  36.226  1.00  0.00     0.034 C 
ENDBRANCH  27  28
ENDBRANCH  23  27
ENDBRANCH   1  16
TORSDOF 6
ENDMDL
MODEL 5
REMARK VINA RESULT:      -8.3     22.430     25.133
REMARK  6 active torsions:
REMARK  status: ('A' for Active; 'I' for Inactive)
REMARK    1  A    between atoms: C19_26  and  O3_3 
REMARK    2  A    between atoms: C21_28  and  O3_3 
REMARK    3  A    between atoms: C5_12  and  N1_5 
REMARK    4  A    between atoms: C10_17  and  N2_6 
REMARK       I    between atoms: C11_18  and  N3_7 
REMARK    5  A    between atoms: C11_18  and  C5_12 
REMARK    6  A    between atoms: C10_17  and  C12_19 
ROOT
HETATM    1  C10 UNK     1      17.301  10.841   9.975  1.00  0.00     0.312 C 
ENDROOT
BRANCH   1   2
HETATM    2  N2  UNK     1      16.666   9.654   9.407  1.00  0.00     0.096 N 
HETATM    3  C3  UNK     1      16.893   8.482  10.260  1.00  0.00     0.303 C 
HETATM    4  C1  UNK     1      16.224   7.236   9.668  1.00  0.00     0.303 C 
HETATM    5  N1  UNK     1      14.785   7.459   9.473  1.00  0.00     0.100 N 
HETATM    6  C2  UNK     1      14.560   8.631   8.618  1.00  0.00     0.303 C 
HETATM    7  C4  UNK     1      15.227   9.875   9.211  1.00  0.00     0.303 C 
BRANCH   5   8
HETATM    8  C5  UNK     1      14.149   6.272   8.906  1.00  0.00     0.374 C 
BRANCH   8   9
HETATM    9  C11 UNK     1      12.695   6.167   9.292  1.00  0.00     0.248 C 
HETATM   10  O1  UNK     1      12.371   6.037  10.473  1.00  0.00    -0.271 OA
HETATM   11  N3  UNK     1      11.794   6.220   8.243  1.00  0.00    -0.351 N 
HETATM   12  C6  UNK     1      10.357   6.126   8.449  1.00  0.00     0.126 C 
HETATM   13  C7  UNK     1      12.112   6.375   6.827  1.00  0.00     0.126 C 
HETATM   14  C8  UNK     1       9.753   6.549   7.119  1.00  0.00     0.021 C 
HETATM   15  C9  UNK     1      10.800   6.090   6.111  1.00  0.00     0.021 C 
ENDBRANCH   8   9
ENDBRANCH   5   8
ENDBRANCH   1   2
BRANCH   1  16
HETATM   16  C12 UNK     1      18.330  11.418   9.066  1.00  0.00    -0.011 A 
HETATM   17  C13 UNK     1      19.655  11.775   9.592  1.00  0.00     0.009 A 
HETATM   18  C15 UNK     1      20.599  12.314   8.716  1.00  0.00     0.090 A 
HETATM   19  C16 UNK     1      20.033  11.606  10.930  1.00  0.00     0.051 A 
HETATM   20  C18 UNK     1      21.879  12.681   9.133  1.00  0.00     0.041 A 
HETATM   21  O2  UNK     1      20.297  12.515   7.354  1.00  0.00    -0.275 OA
HETATM   22  C20 UNK     1      22.235  12.505  10.466  1.00  0.00     0.039 A 
HETATM   23  C19 UNK     1      21.314  11.968  11.363  1.00  0.00     0.069 A 
HETATM   24  C17 UNK     1      19.057  12.187   6.829  1.00  0.00     0.288 A 
HETATM   25  C14 UNK     1      18.072  11.620   7.766  1.00  0.00     0.092 A 
HETATM   26  O4  UNK     1      18.785  12.356   5.647  1.00  0.00    -0.260 OA
BRANCH  23  27
HETATM   27  O3  UNK     1      21.661  11.796  12.669  1.00  0.00    -0.351 OA
BRANCH  27  28
HETATM   28  C21 UNK     1      20.930  12.544  13.639  1.00  0.00     0.171 C 
HETATM   29  C22 UNK     1      21.307  12.058  15.023  1.00  0.00     0.034 C 
ENDBRANCH  27  28
ENDBRANCH  23  27
ENDBRANCH   1  16
TORSDOF 6
ENDMDL
MODEL 6
REMARK VINA RESULT:      -8.2     23.217     25.465
REMARK  6 active torsions:
REMARK  status: ('A' for Active; 'I' for Inactive)
REMARK    1  A    between atoms: C19_26  and  O3_3 
REMARK    2  A    between atoms: C21_28  and  O3_3 
REMARK    3  A    between atoms: C5_12  and  N1_5 
REMARK    4  A    between atoms: C10_17  and  N2_6 
REMARK       I    between atoms: C11_18  and  N3_7 
REMARK    5  A    between atoms: C11_18  and  C5_12 
REMARK    6  A    between atoms: C10_17  and  C12_19 
ROOT
HETATM    1  C10 UNK     1       7.986   5.531   8.411  1.00  0.00     0.312 C 
ENDROOT
BRANCH   1   2
HETATM    2  N2  UNK     1       9.292   6.176   8.286  1.00  0.00     0.096 N 
HETATM    3  C3  UNK     1      10.294   5.490   9.110  1.00  0.00     0.303 C 
HETATM    4  C1  UNK     1      11.665   6.163   8.977  1.00  0.00     0.303 C 
HETATM    5  N1  UNK     1      12.094   6.202   7.573  1.00  0.00     0.100 N 
HETATM    6  C2  UNK     1      11.091   6.890   6.750  1.00  0.00     0.303 C 
HETATM    7  C4  UNK     1       9.722   6.216   6.882  1.00  0.00     0.303 C 
BRANCH   5   8
HETATM    8  C5  UNK     1      13.399   6.845   7.447  1.00  0.00     0.374 C 
BRANCH   8   9
HETATM    9  C11 UNK     1      14.409   6.279   8.414  1.00  0.00     0.248 C 
HETATM   10  O1  UNK     1      14.747   5.097   8.341  1.00  0.00    -0.271 OA
HETATM   11  N3  UNK     1      14.896   7.167   9.356  1.00  0.00    -0.351 N 
HETATM   12  C6  UNK     1      15.870   6.774  10.362  1.00  0.00     0.126 C 
HETATM   13  C7  UNK     1      14.539   8.576   9.493  1.00  0.00     0.126 C 
HETATM   14  C8  UNK     1      16.359   8.088  10.953  1.00  0.00     0.021 C 
HETATM   15  C9  UNK     1      15.135   8.989  10.831  1.00  0.00     0.021 C 
ENDBRANCH   8   9
ENDBRANCH   5   8
ENDBRANCH   1   2
BRANCH   1  16
HETATM   16  C12 UNK     1       7.265   5.956   9.643  1.00  0.00    -0.011 A 
HETATM   17  C13 UNK     1       6.473   4.978  10.402  1.00  0.00     0.009 A 
HETATM   18  C15 UNK     1       5.808   5.405  11.552  1.00  0.00     0.090 A 
HETATM   19  C16 UNK     1       6.344   3.631  10.040  1.00  0.00     0.051 A 
HETATM   20  C18 UNK     1       5.035   4.542  12.331  1.00  0.00     0.041 A 
HETATM   21  O2  UNK     1       5.888   6.744  11.985  1.00  0.00    -0.275 OA
HETATM   22  C20 UNK     1       4.919   3.209  11.954  1.00  0.00     0.039 A 
HETATM   23  C19 UNK     1       5.573   2.753  10.811  1.00  0.00     0.069 A 
HETATM   24  C17 UNK     1       6.627   7.689  11.290  1.00  0.00     0.288 A 
HETATM   25  C14 UNK     1       7.323   7.223  10.079  1.00  0.00     0.092 A 
HETATM   26  O4  UNK     1       6.704   8.855  11.658  1.00  0.00    -0.260 OA
BRANCH  23  27
HETATM   27  O3  UNK     1       5.461   1.447  10.440  1.00  0.00    -0.351 OA
BRANCH  27  28
HETATM   28  C21 UNK     1       5.261   1.181   9.054  1.00  0.00     0.171 C 
HETATM   29  C22 UNK     1       4.699  -0.216   8.896  1.00  0.00     0.034 C 
ENDBRANCH  27  28
ENDBRANCH  23  27
ENDBRANCH   1  16
TORSDOF 6
ENDMDL
MODEL 7
REMARK VINA RESULT:      -8.2     13.040     16.811
REMARK  6 active torsions:
REMARK  status: ('A' for Active; 'I' for Inactive)
REMARK    1  A    between atoms: C19_26  and  O3_3 
REMARK    2  A    between atoms: C21_28  and  O3_3 
REMARK    3  A    between atoms: C5_12  and  N1_5 
REMARK    4  A    between atoms: C10_17  and  N2_6 
REMARK       I    between atoms: C11_18  and  N3_7 
REMARK    5  A    between atoms: C11_18  and  C5_12 
REMARK    6  A    between atoms: C10_17  and  C12_19 
ROOT
HETATM    1  C10 UNK     1      25.568  -9.012  37.510  1.00  0.00     0.312 C 
ENDROOT
BRANCH   1   2
HETATM    2  N2  UNK     1      26.953  -9.476  37.484  1.00  0.00     0.096 N 
HETATM    3  C3  UNK     1      27.733  -8.737  36.484  1.00  0.00     0.303 C 
HETATM    4  C1  UNK     1      29.187  -9.220  36.459  1.00  0.00     0.303 C 
HETATM    5  N1  UNK     1      29.803  -9.094  37.786  1.00  0.00     0.100 N 
HETATM    6  C2  UNK     1      29.023  -9.836  38.785  1.00  0.00     0.303 C 
HETATM    7  C4  UNK     1      27.570  -9.351  38.811  1.00  0.00     0.303 C 
BRANCH   5   8
HETATM    8  C5  UNK     1      31.189  -9.557  37.761  1.00  0.00     0.374 C 
BRANCH   8   9
HETATM    9  C11 UNK     1      32.167  -8.418  37.625  1.00  0.00     0.248 C 
HETATM   10  O1  UNK     1      32.334  -7.625  38.552  1.00  0.00    -0.271 OA
HETATM   11  N3  UNK     1      32.829  -8.341  36.412  1.00  0.00    -0.351 N 
HETATM   12  C6  UNK     1      33.799  -7.297  36.122  1.00  0.00     0.126 C 
HETATM   13  C7  UNK     1      32.679  -9.248  35.278  1.00  0.00     0.126 C 
HETATM   14  C8  UNK     1      34.499  -7.769  34.857  1.00  0.00     0.021 C 
HETATM   15  C9  UNK     1      33.407  -8.552  34.137  1.00  0.00     0.021 C 
ENDBRANCH   8   9
ENDBRANCH   5   8
ENDBRANCH   1   2
BRANCH   1  16
HETATM   16  C12 UNK     1      24.652  -9.935  36.785  1.00  0.00    -0.011 A 
HETATM   17  C13 UNK     1      23.254  -9.545  36.549  1.00  0.00     0.009 A 
HETATM   18  C15 UNK     1      22.419 -10.431  35.867  1.00  0.00     0.090 A 
HETATM   19  C16 UNK     1      22.703  -8.328  36.972  1.00  0.00     0.051 A 
HETATM   20  C18 UNK     1      21.079 -10.140  35.603  1.00  0.00     0.041 A 
HETATM   21  O2  UNK     1      22.896 -11.675  35.408  1.00  0.00    -0.275 OA
HETATM   22  C20 UNK     1      20.552  -8.926  36.031  1.00  0.00     0.039 A 
HETATM   23  C19 UNK     1      21.362  -8.022  36.713  1.00  0.00     0.069 A 
HETATM   24  C17 UNK     1      24.209 -12.070  35.614  1.00  0.00     0.288 A 
HETATM   25  C14 UNK     1      25.077 -11.124  36.336  1.00  0.00     0.092 A 
HETATM   26  O4  UNK     1      24.634 -13.148  35.219  1.00  0.00    -0.260 OA
BRANCH  23  27
HETATM   27  O3  UNK     1      20.847  -6.833  37.133  1.00  0.00    -0.351 OA
BRANCH  27  28
HETATM   28  C21 UNK     1      21.081  -6.468  38.492  1.00  0.00     0.171 C 
HETATM   29  C22 UNK     1      20.077  -7.181  39.374  1.00  0.00     0.034 C 
ENDBRANCH  27  28
ENDBRANCH  23  27
ENDBRANCH   1  16
TORSDOF 6
ENDMDL
MODEL 8
REMARK VINA RESULT:      -8.2     15.594     17.574
REMARK  6 active torsions:
REMARK  status: ('A' for Active; 'I' for Inactive)
REMARK    1  A    between atoms: C19_26  and  O3_3 
REMARK    2  A    between atoms: C21_28  and  O3_3 
REMARK    3  A    between atoms: C5_12  and  N1_5 
REMARK    4  A    between atoms: C10_17  and  N2_6 
REMARK       I    between atoms: C11_18  and  N3_7 
REMARK    5  A    between atoms: C11_18  and  C5_12 
REMARK    6  A    between atoms: C10_17  and  C12_19 
ROOT
HETATM    1  C10 UNK     1      32.414  -6.829  35.423  1.00  0.00     0.312 C 
ENDROOT
BRANCH   1   2
HETATM    2  N2  UNK     1      32.378  -6.618  33.977  1.00  0.00     0.096 N 
HETATM    3  C3  UNK     1      33.261  -7.567  33.289  1.00  0.00     0.303 C 
HETATM    4  C1  UNK     1      33.221  -7.350  31.772  1.00  0.00     0.303 C 
HETATM    5  N1  UNK     1      31.848  -7.466  31.264  1.00  0.00     0.100 N 
HETATM    6  C2  UNK     1      30.965  -6.516  31.952  1.00  0.00     0.303 C 
HETATM    7  C4  UNK     1      31.005  -6.734  33.468  1.00  0.00     0.303 C 
BRANCH   5   8
HETATM    8  C5  UNK     1      31.810  -7.257  29.818  1.00  0.00     0.374 C 
BRANCH   8   9
HETATM    9  C11 UNK     1      31.771  -8.557  29.056  1.00  0.00     0.248 C 
HETATM   10  O1  UNK     1      32.806  -9.044  28.601  1.00  0.00    -0.271 OA
HETATM   11  N3  UNK     1      30.519  -9.128  28.913  1.00  0.00    -0.351 N 
HETATM   12  C6  UNK     1      30.312 -10.379  28.199  1.00  0.00     0.126 C 
HETATM   13  C7  UNK     1      29.258  -8.605  29.430  1.00  0.00     0.126 C 
HETATM   14  C8  UNK     1      28.894 -10.793  28.560  1.00  0.00     0.021 C 
HETATM   15  C9  UNK     1      28.190  -9.456  28.758  1.00  0.00     0.021 C 
ENDBRANCH   8   9
ENDBRANCH   5   8
ENDBRANCH   1   2
BRANCH   1  16
HETATM   16  C12 UNK     1      31.801  -5.696  36.171  1.00  0.00    -0.011 A 
HETATM   17  C13 UNK     1      30.733  -5.956  37.147  1.00  0.00     0.009 A 
HETATM   18  C15 UNK     1      30.177  -4.875  37.833  1.00  0.00     0.090 A 
HETATM   19  C16 UNK     1      30.233  -7.234  37.433  1.00  0.00     0.051 A 
HETATM   20  C18 UNK     1      29.160  -5.033  38.775  1.00  0.00     0.041 A 
HETATM   21  O2  UNK     1      30.625  -3.559  37.604  1.00  0.00    -0.275 OA
HETATM   22  C20 UNK     1      28.677  -6.310  39.045  1.00  0.00     0.039 A 
HETATM   23  C19 UNK     1      29.214  -7.408  38.376  1.00  0.00     0.069 A 
HETATM   24  C17 UNK     1      31.632  -3.283  36.691  1.00  0.00     0.288 A 
HETATM   25  C14 UNK     1      32.207  -4.434  35.975  1.00  0.00     0.092 A 
HETATM   26  O4  UNK     1      32.029  -2.143  36.484  1.00  0.00    -0.260 OA
BRANCH  23  27
HETATM   27  O3  UNK     1      28.742  -8.658  38.639  1.00  0.00    -0.351 OA
BRANCH  27  28
HETATM   28  C21 UNK     1      27.600  -8.757  39.487  1.00  0.00     0.171 C 
HETATM   29  C22 UNK     1      27.669 -10.057  40.259  1.00  0.00     0.034 C 
ENDBRANCH  27  28
ENDBRANCH  23  27
ENDBRANCH   1  16
TORSDOF 6
ENDMDL
MODEL 9
REMARK VINA RESULT:      -8.2      2.030      4.236
REMARK  6 active torsions:
REMARK  status: ('A' for Active; 'I' for Inactive)
REMARK    1  A    between atoms: C19_26  and  O3_3 
REMARK    2  A    between atoms: C21_28  and  O3_3 
REMARK    3  A    between atoms: C5_12  and  N1_5 
REMARK    4  A    between atoms: C10_17  and  N2_6 
REMARK       I    between atoms: C11_18  and  N3_7 
REMARK    5  A    between atoms: C11_18  and  C5_12 
REMARK    6  A    between atoms: C10_17  and  C12_19 
ROOT
HETATM    1  C10 UNK     1      17.722   0.183  34.151  1.00  0.00     0.312 C 
ENDROOT
BRANCH   1   2
HETATM    2  N2  UNK     1      18.343   1.470  33.845  1.00  0.00     0.096 N 
HETATM    3  C3  UNK     1      17.866   1.987  32.557  1.00  0.00     0.303 C 
HETATM    4  C1  UNK     1      18.514   3.338  32.236  1.00  0.00     0.303 C 
HETATM    5  N1  UNK     1      18.254   4.309  33.306  1.00  0.00     0.100 N 
HETATM    6  C2  UNK     1      18.733   3.792  34.594  1.00  0.00     0.303 C 
HETATM    7  C4  UNK     1      18.085   2.442  34.915  1.00  0.00     0.303 C 
BRANCH   5   8
HETATM    8  C5  UNK     1      18.873   5.597  33.001  1.00  0.00     0.374 C 
BRANCH   8   9
HETATM    9  C11 UNK     1      18.051   6.408  32.032  1.00  0.00     0.248 C 
HETATM   10  O1  UNK     1      18.376   6.482  30.847  1.00  0.00    -0.271 OA
HETATM   11  N3  UNK     1      16.947   7.043  32.573  1.00  0.00    -0.351 N 
HETATM   12  C6  UNK     1      16.056   7.869  31.772  1.00  0.00     0.126 C 
HETATM   13  C7  UNK     1      16.506   6.993  33.964  1.00  0.00     0.126 C 
HETATM   14  C8  UNK     1      14.840   8.087  32.659  1.00  0.00     0.021 C 
HETATM   15  C9  UNK     1      15.436   8.071  34.061  1.00  0.00     0.021 C 
ENDBRANCH   8   9
ENDBRANCH   5   8
ENDBRANCH   1   2
BRANCH   1  16
HETATM   16  C12 UNK     1      18.731  -0.889  34.377  1.00  0.00    -0.011 A 
HETATM   17  C13 UNK     1      19.448  -1.473  33.234  1.00  0.00     0.009 A 
HETATM   18  C15 UNK     1      20.388  -2.475  33.475  1.00  0.00     0.090 A 
HETATM   19  C16 UNK     1      19.244  -1.080  31.904  1.00  0.00     0.051 A 
HETATM   20  C18 UNK     1      21.111  -3.083  32.448  1.00  0.00     0.041 A 
HETATM   21  O2  UNK     1      20.652  -2.925  34.785  1.00  0.00    -0.275 OA
HETATM   22  C20 UNK     1      20.894  -2.679  31.135  1.00  0.00     0.039 A 
HETATM   23  C19 UNK     1      19.963  -1.680  30.863  1.00  0.00     0.069 A 
HETATM   24  C17 UNK     1      19.993  -2.393  35.882  1.00  0.00     0.288 A 
HETATM   25  C14 UNK     1      19.004  -1.337  35.610  1.00  0.00     0.092 A 
HETATM   26  O4  UNK     1      20.216  -2.777  37.024  1.00  0.00    -0.260 OA
BRANCH  23  27
HETATM   27  O3  UNK     1      19.748  -1.283  29.578  1.00  0.00    -0.351 OA
BRANCH  27  28
HETATM   28  C21 UNK     1      20.162   0.036  29.228  1.00  0.00     0.171 C 
HETATM   29  C22 UNK     1      18.946   0.843  28.824  1.00  0.00     0.034 C 
ENDBRANCH  27  28
ENDBRANCH  23  27
ENDBRANCH   1  16
TORSDOF 6
ENDMDL
MODEL 10
REMARK VINA RESULT:      -8.1      5.966      8.493
REMARK  6 active torsions:
REMARK  status: ('A' for Active; 'I' for Inactive)
REMARK    1  A    between atoms: C19_26  and  O3_3 
REMARK    2  A    between atoms: C21_28  and  O3_3 
REMARK    3  A    between atoms: C5_12  and  N1_5 
REMARK    4  A    between atoms: C10_17  and  N2_6 
REMARK       I    between atoms: C11_18  and  N3_7 
REMARK    5  A    between atoms: C11_18  and  C5_12 
REMARK    6  A    between atoms: C10_17  and  C12_19 
ROOT
HETATM    1  C10 UNK     1      20.037  -4.021  37.103  1.00  0.00     0.312 C 
ENDROOT
BRANCH   1   2
HETATM    2  N2  UNK     1      19.302  -3.113  36.225  1.00  0.00     0.096 N 
HETATM    3  C3  UNK     1      18.568  -2.111  37.006  1.00  0.00     0.303 C 
HETATM    4  C1  UNK     1      17.801  -1.155  36.086  1.00  0.00     0.303 C 
HETATM    5  N1  UNK     1      18.710  -0.500  35.137  1.00  0.00     0.100 N 
HETATM    6  C2  UNK     1      19.443  -1.504  34.355  1.00  0.00     0.303 C 
HETATM    7  C4  UNK     1      20.211  -2.458  35.275  1.00  0.00     0.303 C 
BRANCH   5   8
HETATM    8  C5  UNK     1      17.978   0.409  34.259  1.00  0.00     0.374 C 
BRANCH   8   9
HETATM    9  C11 UNK     1      18.108   1.847  34.693  1.00  0.00     0.248 C 
HETATM   10  O1  UNK     1      18.117   2.139  35.890  1.00  0.00    -0.271 OA
HETATM   11  N3  UNK     1      18.203   2.773  33.670  1.00  0.00    -0.351 N 
HETATM   12  C6  UNK     1      18.328   4.200  33.923  1.00  0.00     0.126 C 
HETATM   13  C7  UNK     1      18.202   2.493  32.237  1.00  0.00     0.126 C 
HETATM   14  C8  UNK     1      18.726   4.792  32.579  1.00  0.00     0.021 C 
HETATM   15  C9  UNK     1      18.047   3.859  31.584  1.00  0.00     0.021 C 
ENDBRANCH   8   9
ENDBRANCH   5   8
ENDBRANCH   1   2
BRANCH   1  16
HETATM   16  C12 UNK     1      19.732  -5.451  36.815  1.00  0.00    -0.011 A 
HETATM   17  C13 UNK     1      20.676  -6.499  37.230  1.00  0.00     0.009 A 
HETATM   18  C15 UNK     1      20.365  -7.829  36.946  1.00  0.00     0.090 A 
HETATM   19  C16 UNK     1      21.881  -6.242  37.899  1.00  0.00     0.051 A 
HETATM   20  C18 UNK     1      21.205  -8.884  37.303  1.00  0.00     0.041 A 
HETATM   21  O2  UNK     1      19.172  -8.171  36.277  1.00  0.00    -0.275 OA
HETATM   22  C20 UNK     1      22.396  -8.609  37.967  1.00  0.00     0.039 A 
HETATM   23  C19 UNK     1      22.733  -7.290  38.264  1.00  0.00     0.069 A 
HETATM   24  C17 UNK     1      18.263  -7.205  35.875  1.00  0.00     0.288 A 
HETATM   25  C14 UNK     1      18.606  -5.806  36.181  1.00  0.00     0.092 A 
HETATM   26  O4  UNK     1      17.223  -7.491  35.293  1.00  0.00    -0.260 OA
BRANCH  23  27
HETATM   27  O3  UNK     1      23.899  -7.018  38.914  1.00  0.00    -0.351 OA
BRANCH  27  28
HETATM   28  C21 UNK     1      24.899  -8.035  38.906  1.00  0.00     0.171 C 
HETATM   29  C22 UNK     1      26.234  -7.411  38.555  1.00  0.00     0.034 C 
ENDBRANCH  27  28
ENDBRANCH  23  27
ENDBRANCH   1  16
TORSDOF 6
ENDMDL
