MODEL 1
REMARK VINA RESULT:      -8.9      0.000      0.000
REMARK  4 active torsions:
REMARK  status: ('A' for Active; 'I' for Inactive)
REMARK    1  A    between atoms: C11_17  and  N1_5 
REMARK    2  A    between atoms: C4_10  and  N1_5 
REMARK    3  A    between atoms: C11_17  and  N2_6 
REMARK    4  A    between atoms: C12_18  and  N2_6 
ROOT
HETATM    1  N1  UNK     1      19.450  -4.882  35.507  1.00  0.00    -0.333 N 
HETATM    2  H8  UNK     1      18.620  -4.809  34.927  1.00  0.00     0.168 HD
ENDROOT
BRANCH   1   3
HETATM    3  C11 UNK     1      19.867  -3.652  36.021  1.00  0.00     0.176 C 
HETATM    4  S1  UNK     1      20.692  -3.411  37.471  1.00  0.00    -0.041 SA
BRANCH   3   5
HETATM    5  N2  UNK     1      19.467  -2.513  35.338  1.00  0.00    -0.333 N 
HETATM    6  H9  UNK     1      18.783  -1.950  35.840  1.00  0.00     0.168 HD
BRANCH   5   7
HETATM    7  C12 UNK     1      19.675  -2.107  33.996  1.00  0.00     0.034 A 
HETATM    8  C13 UNK     1      18.809  -1.191  33.426  1.00  0.00     0.031 A 
HETATM    9  C15 UNK     1      19.013  -0.791  32.105  1.00  0.00     0.020 A 
HETATM   10  C17 UNK     1      20.080  -1.315  31.375  1.00  0.00     0.006 A 
HETATM   11  C16 UNK     1      20.942  -2.239  31.966  1.00  0.00     0.020 A 
HETATM   12  I1  UNK     1      20.383  -0.721  29.408  1.00  0.00    -0.045 I 
HETATM   13  C14 UNK     1      20.738  -2.638  33.286  1.00  0.00     0.031 A 
ENDBRANCH   5   7
ENDBRANCH   3   5
ENDBRANCH   1   3
BRANCH   1  14
HETATM   14  C4  UNK     1      19.615  -6.187  35.972  1.00  0.00     0.036 A 
HETATM   15  C5  UNK     1      20.520  -7.040  35.349  1.00  0.00     0.067 A 
HETATM   16  C2  UNK     1      20.671  -8.342  35.831  1.00  0.00     0.092 A 
HETATM   17  C1  UNK     1      19.943  -8.824  36.919  1.00  0.00     0.004 A 
HETATM   18  O1  UNK     1      21.603  -9.158  35.159  1.00  0.00    -0.275 OA
HETATM   19  C3  UNK     1      20.165 -10.208  37.358  1.00  0.00    -0.043 A 
HETATM   20  C6  UNK     1      19.035  -7.949  37.533  1.00  0.00     0.017 A 
HETATM   21  C8  UNK     1      21.058 -10.962  36.701  1.00  0.00     0.090 A 
HETATM   22  C9  UNK     1      19.398 -10.755  38.526  1.00  0.00     0.049 C 
HETATM   23  C10 UNK     1      21.834 -10.469  35.551  1.00  0.00     0.288 A 
HETATM   24  O2  UNK     1      22.642 -11.188  34.974  1.00  0.00    -0.260 OA
HETATM   25  C7  UNK     1      18.874  -6.641  37.062  1.00  0.00     0.030 A 
ENDBRANCH   1  14
TORSDOF 4
ENDMDL
MODEL 2
REMARK VINA RESULT:      -8.7      1.419      2.334
REMARK  4 active torsions:
REMARK  status: ('A' for Active; 'I' for Inactive)
REMARK    1  A    between atoms: C11_17  and  N1_5 
REMARK    2  A    between atoms: C4_10  and  N1_5 
REMARK    3  A    between atoms: C11_17  and  N2_6 
REMARK    4  A    between atoms: C12_18  and  N2_6 
ROOT
HETATM    1  N1  UNK     1      18.976  -4.844  36.089  1.00  0.00    -0.333 N 
HETATM    2  H8  UNK     1      18.004  -4.809  36.380  1.00  0.00     0.168 HD
ENDROOT
BRANCH   1   3
HETATM    3  C11 UNK     1      19.635  -3.621  36.241  1.00  0.00     0.176 C 
HETATM    4  S1  UNK     1      20.862  -3.288  37.348  1.00  0.00    -0.041 SA
BRANCH   3   5
HETATM    5  N2  UNK     1      19.162  -2.551  35.498  1.00  0.00    -0.333 N 
HETATM    6  H9  UNK     1      18.363  -2.080  35.915  1.00  0.00     0.168 HD
BRANCH   5   7
HETATM    7  C12 UNK     1      19.454  -2.132  34.175  1.00  0.00     0.034 A 
HETATM    8  C13 UNK     1      20.520  -2.705  33.506  1.00  0.00     0.031 A 
HETATM    9  C15 UNK     1      20.808  -2.294  32.203  1.00  0.00     0.020 A 
HETATM   10  C17 UNK     1      20.025  -1.314  31.593  1.00  0.00     0.006 A 
HETATM   11  C16 UNK     1      18.954  -0.747  32.284  1.00  0.00     0.020 A 
HETATM   12  I1  UNK     1      20.453  -0.700  29.656  1.00  0.00    -0.045 I 
HETATM   13  C14 UNK     1      18.666  -1.158  33.585  1.00  0.00     0.031 A 
ENDBRANCH   5   7
ENDBRANCH   3   5
ENDBRANCH   1   3
BRANCH   1  14
HETATM   14  C4  UNK     1      19.444  -6.158  36.085  1.00  0.00     0.036 A 
HETATM   15  C5  UNK     1      19.038  -7.047  37.075  1.00  0.00     0.067 A 
HETATM   16  C2  UNK     1      19.518  -8.358  37.050  1.00  0.00     0.092 A 
HETATM   17  C1  UNK     1      20.396  -8.813  36.066  1.00  0.00     0.004 A 
HETATM   18  O1  UNK     1      19.071  -9.211  38.078  1.00  0.00    -0.275 OA
HETATM   19  C3  UNK     1      20.851 -10.208  36.119  1.00  0.00    -0.043 A 
HETATM   20  C6  UNK     1      20.794  -7.901  35.078  1.00  0.00     0.017 A 
HETATM   21  C8  UNK     1      20.409 -10.999  37.108  1.00  0.00     0.090 A 
HETATM   22  C9  UNK     1      21.795 -10.728  35.074  1.00  0.00     0.049 C 
HETATM   23  C10 UNK     1      19.482 -10.534  38.154  1.00  0.00     0.288 A 
HETATM   24  O2  UNK     1      19.100 -11.285  39.044  1.00  0.00    -0.260 OA
HETATM   25  C7  UNK     1      20.321  -6.584  35.088  1.00  0.00     0.030 A 
ENDBRANCH   1  14
TORSDOF 4
ENDMDL
MODEL 3
REMARK VINA RESULT:      -8.6      1.710      1.914
REMARK  4 active torsions:
REMARK  status: ('A' for Active; 'I' for Inactive)
REMARK    1  A    between atoms: C11_17  and  N1_5 
REMARK    2  A    between atoms: C4_10  and  N1_5 
REMARK    3  A    between atoms: C11_17  and  N2_6 
REMARK    4  A    between atoms: C12_18  and  N2_6 
ROOT
HETATM    1  N1  UNK     1      18.626  -4.070  36.458  1.00  0.00    -0.333 N 
HETATM    2  H8  UNK     1      17.686  -4.392  36.665  1.00  0.00     0.168 HD
ENDROOT
BRANCH   1   3
HETATM    3  C11 UNK     1      18.744  -2.678  36.486  1.00  0.00     0.176 C 
HETATM    4  S1  UNK     1      17.699  -1.610  37.268  1.00  0.00    -0.041 SA
BRANCH   3   5
HETATM    5  N2  UNK     1      19.742  -2.112  35.708  1.00  0.00    -0.333 N 
HETATM    6  H9  UNK     1      20.440  -1.598  36.241  1.00  0.00     0.168 HD
BRANCH   5   7
HETATM    7  C12 UNK     1      19.848  -1.942  34.304  1.00  0.00     0.034 A 
HETATM    8  C13 UNK     1      18.953  -1.108  33.657  1.00  0.00     0.031 A 
HETATM    9  C15 UNK     1      19.056  -0.940  32.275  1.00  0.00     0.020 A 
HETATM   10  C17 UNK     1      20.052  -1.610  31.564  1.00  0.00     0.006 A 
HETATM   11  C16 UNK     1      20.945  -2.447  32.234  1.00  0.00     0.020 A 
HETATM   12  I1  UNK     1      20.205  -1.361  29.508  1.00  0.00    -0.045 I 
HETATM   13  C14 UNK     1      20.841  -2.614  33.614  1.00  0.00     0.031 A 
ENDBRANCH   5   7
ENDBRANCH   3   5
ENDBRANCH   1   3
BRANCH   1  14
HETATM   14  C4  UNK     1      19.557  -5.086  36.675  1.00  0.00     0.036 A 
HETATM   15  C5  UNK     1      19.675  -6.130  35.763  1.00  0.00     0.067 A 
HETATM   16  C2  UNK     1      20.614  -7.137  36.000  1.00  0.00     0.092 A 
HETATM   17  C1  UNK     1      21.442  -7.136  37.123  1.00  0.00     0.004 A 
HETATM   18  O1  UNK     1      20.687  -8.167  35.041  1.00  0.00    -0.275 OA
HETATM   19  C3  UNK     1      22.401  -8.236  37.291  1.00  0.00    -0.043 A 
HETATM   20  C6  UNK     1      21.307  -6.075  38.030  1.00  0.00     0.017 A 
HETATM   21  C8  UNK     1      22.450  -9.203  36.364  1.00  0.00     0.090 A 
HETATM   22  C9  UNK     1      23.306  -8.263  38.488  1.00  0.00     0.049 C 
HETATM   23  C10 UNK     1      21.583  -9.218  35.173  1.00  0.00     0.288 A 
HETATM   24  O2  UNK     1      21.655 -10.120  34.346  1.00  0.00    -0.260 OA
HETATM   25  C7  UNK     1      20.371  -5.059  37.806  1.00  0.00     0.030 A 
ENDBRANCH   1  14
TORSDOF 4
ENDMDL
MODEL 4
REMARK VINA RESULT:      -8.6      7.764     10.938
REMARK  4 active torsions:
REMARK  status: ('A' for Active; 'I' for Inactive)
REMARK    1  A    between atoms: C11_17  and  N1_5 
REMARK    2  A    between atoms: C4_10  and  N1_5 
REMARK    3  A    between atoms: C11_17  and  N2_6 
REMARK    4  A    between atoms: C12_18  and  N2_6 
ROOT
HETATM    1  N1  UNK     1      17.606   4.108  31.917  1.00  0.00    -0.333 N 
HETATM    2  H8  UNK     1      16.679   3.921  32.287  1.00  0.00     0.168 HD
ENDROOT
BRANCH   1   3
HETATM    3  C11 UNK     1      18.148   5.308  32.383  1.00  0.00     0.176 C 
HETATM    4  S1  UNK     1      19.628   5.972  31.922  1.00  0.00    -0.041 SA
BRANCH   3   5
HETATM    5  N2  UNK     1      17.467   5.957  33.402  1.00  0.00    -0.333 N 
HETATM    6  H9  UNK     1      17.409   5.422  34.265  1.00  0.00     0.168 HD
BRANCH   5   7
HETATM    7  C12 UNK     1      16.664   7.126  33.392  1.00  0.00     0.034 A 
HETATM    8  C13 UNK     1      16.445   7.803  34.578  1.00  0.00     0.031 A 
HETATM    9  C15 UNK     1      15.656   8.954  34.569  1.00  0.00     0.020 A 
HETATM   10  C17 UNK     1      15.096   9.406  33.374  1.00  0.00     0.006 A 
HETATM   11  C16 UNK     1      15.328   8.709  32.188  1.00  0.00     0.020 A 
HETATM   12  I1  UNK     1      13.920  11.118  33.361  1.00  0.00    -0.045 I 
HETATM   13  C14 UNK     1      16.117   7.560  32.197  1.00  0.00     0.031 A 
ENDBRANCH   5   7
ENDBRANCH   3   5
ENDBRANCH   1   3
BRANCH   1  14
HETATM   14  C4  UNK     1      18.204   2.932  31.465  1.00  0.00     0.036 A 
HETATM   15  C5  UNK     1      18.441   1.885  32.350  1.00  0.00     0.067 A 
HETATM   16  C2  UNK     1      19.040   0.716  31.875  1.00  0.00     0.092 A 
HETATM   17  C1  UNK     1      19.414   0.557  30.540  1.00  0.00     0.004 A 
HETATM   18  O1  UNK     1      19.254  -0.309  32.818  1.00  0.00    -0.275 OA
HETATM   19  C3  UNK     1      20.039  -0.706  30.130  1.00  0.00    -0.043 A 
HETATM   20  C6  UNK     1      19.167   1.624  29.665  1.00  0.00     0.017 A 
HETATM   21  C8  UNK     1      20.230  -1.665  31.047  1.00  0.00     0.090 A 
HETATM   22  C9  UNK     1      20.451  -0.908  28.700  1.00  0.00     0.049 C 
HETATM   23  C10 UNK     1      19.842  -1.513  32.460  1.00  0.00     0.288 A 
HETATM   24  O2  UNK     1      20.033  -2.412  33.272  1.00  0.00    -0.260 OA
HETATM   25  C7  UNK     1      18.566   2.802  30.125  1.00  0.00     0.030 A 
ENDBRANCH   1  14
TORSDOF 4
ENDMDL
MODEL 5
REMARK VINA RESULT:      -8.5      4.584      8.867
REMARK  4 active torsions:
REMARK  status: ('A' for Active; 'I' for Inactive)
REMARK    1  A    between atoms: C11_17  and  N1_5 
REMARK    2  A    between atoms: C4_10  and  N1_5 
REMARK    3  A    between atoms: C11_17  and  N2_6 
REMARK    4  A    between atoms: C12_18  and  N2_6 
ROOT
HETATM    1  N1  UNK     1      19.986  -2.819  35.063  1.00  0.00    -0.333 N 
HETATM    2  H8  UNK     1      20.938  -2.951  35.389  1.00  0.00     0.168 HD
ENDROOT
BRANCH   1   3
HETATM    3  C11 UNK     1      19.043  -2.886  36.092  1.00  0.00     0.176 C 
HETATM    4  S1  UNK     1      18.294  -1.572  36.836  1.00  0.00    -0.041 SA
BRANCH   3   5
HETATM    5  N2  UNK     1      18.783  -4.136  36.631  1.00  0.00    -0.333 N 
HETATM    6  H9  UNK     1      18.014  -4.146  37.297  1.00  0.00     0.168 HD
BRANCH   5   7
HETATM    7  C12 UNK     1      19.521  -5.346  36.584  1.00  0.00     0.034 A 
HETATM    8  C13 UNK     1      19.155  -6.324  35.676  1.00  0.00     0.031 A 
HETATM    9  C15 UNK     1      19.881  -7.515  35.628  1.00  0.00     0.020 A 
HETATM   10  C17 UNK     1      20.960  -7.708  36.491  1.00  0.00     0.006 A 
HETATM   11  C16 UNK     1      21.314  -6.711  37.400  1.00  0.00     0.020 A 
HETATM   12  I1  UNK     1      22.040  -9.481  36.421  1.00  0.00    -0.045 I 
HETATM   13  C14 UNK     1      20.589  -5.521  37.447  1.00  0.00     0.031 A 
ENDBRANCH   5   7
ENDBRANCH   3   5
ENDBRANCH   1   3
BRANCH   1  14
HETATM   14  C4  UNK     1      19.971  -2.169  33.829  1.00  0.00     0.036 A 
HETATM   15  C5  UNK     1      19.206  -1.020  33.655  1.00  0.00     0.067 A 
HETATM   16  C2  UNK     1      19.206  -0.385  32.412  1.00  0.00     0.092 A 
HETATM   17  C1  UNK     1      19.948  -0.860  31.330  1.00  0.00     0.004 A 
HETATM   18  O1  UNK     1      18.412   0.774  32.297  1.00  0.00    -0.275 OA
HETATM   19  C3  UNK     1      19.888  -0.128  30.059  1.00  0.00    -0.043 A 
HETATM   20  C6  UNK     1      20.712  -2.019  31.526  1.00  0.00     0.017 A 
HETATM   21  C8  UNK     1      19.125   0.972  29.977  1.00  0.00     0.090 A 
HETATM   22  C9  UNK     1      20.675  -0.614  28.877  1.00  0.00     0.049 C 
HETATM   23  C10 UNK     1      18.336   1.486  31.110  1.00  0.00     0.288 A 
HETATM   24  O2  UNK     1      17.648   2.495  30.999  1.00  0.00    -0.260 OA
HETATM   25  C7  UNK     1      20.723  -2.667  32.766  1.00  0.00     0.030 A 
ENDBRANCH   1  14
TORSDOF 4
ENDMDL
MODEL 6
REMARK VINA RESULT:      -8.4      8.763     12.937
REMARK  4 active torsions:
REMARK  status: ('A' for Active; 'I' for Inactive)
REMARK    1  A    between atoms: C11_17  and  N1_5 
REMARK    2  A    between atoms: C4_10  and  N1_5 
REMARK    3  A    between atoms: C11_17  and  N2_6 
REMARK    4  A    between atoms: C12_18  and  N2_6 
ROOT
HETATM    1  N1  UNK     1      18.856   3.963  29.733  1.00  0.00    -0.333 N 
HETATM    2  H8  UNK     1      19.330   4.327  28.913  1.00  0.00     0.168 HD
ENDROOT
BRANCH   1   3
HETATM    3  C11 UNK     1      18.777   2.568  29.743  1.00  0.00     0.176 C 
HETATM    4  S1  UNK     1      17.833   1.621  28.716  1.00  0.00    -0.041 SA
BRANCH   3   5
HETATM    5  N2  UNK     1      19.443   1.904  30.762  1.00  0.00    -0.333 N 
HETATM    6  H9  UNK     1      20.424   1.723  30.564  1.00  0.00     0.168 HD
BRANCH   5   7
HETATM    7  C12 UNK     1      18.959   1.254  31.925  1.00  0.00     0.034 A 
HETATM    8  C13 UNK     1      19.054  -0.124  32.016  1.00  0.00     0.031 A 
HETATM    9  C15 UNK     1      18.578  -0.765  33.161  1.00  0.00     0.020 A 
HETATM   10  C17 UNK     1      18.013  -0.018  34.194  1.00  0.00     0.006 A 
HETATM   11  C16 UNK     1      17.925   1.370  34.084  1.00  0.00     0.020 A 
HETATM   12  I1  UNK     1      17.304  -0.972  35.897  1.00  0.00    -0.045 I 
HETATM   13  C14 UNK     1      18.401   2.011  32.941  1.00  0.00     0.031 A 
ENDBRANCH   5   7
ENDBRANCH   3   5
ENDBRANCH   1   3
BRANCH   1  14
HETATM   14  C4  UNK     1      18.860   4.901  30.765  1.00  0.00     0.036 A 
HETATM   15  C5  UNK     1      17.680   5.211  31.432  1.00  0.00     0.067 A 
HETATM   16  C2  UNK     1      17.707   6.152  32.463  1.00  0.00     0.092 A 
HETATM   17  C1  UNK     1      18.881   6.799  32.851  1.00  0.00     0.004 A 
HETATM   18  O1  UNK     1      16.481   6.423  33.101  1.00  0.00    -0.275 OA
HETATM   19  C3  UNK     1      18.817   7.776  33.946  1.00  0.00    -0.043 A 
HETATM   20  C6  UNK     1      20.060   6.474  32.166  1.00  0.00     0.017 A 
HETATM   21  C8  UNK     1      17.637   8.015  34.536  1.00  0.00     0.090 A 
HETATM   22  C9  UNK     1      20.062   8.489  34.387  1.00  0.00     0.049 C 
HETATM   23  C10 UNK     1      16.390   7.340  34.138  1.00  0.00     0.288 A 
HETATM   24  O2  UNK     1      15.328   7.584  34.700  1.00  0.00    -0.260 OA
HETATM   25  C7  UNK     1      20.049   5.532  31.131  1.00  0.00     0.030 A 
ENDBRANCH   1  14
TORSDOF 4
ENDMDL
MODEL 7
REMARK VINA RESULT:      -8.4      6.695      8.901
REMARK  4 active torsions:
REMARK  status: ('A' for Active; 'I' for Inactive)
REMARK    1  A    between atoms: C11_17  and  N1_5 
REMARK    2  A    between atoms: C4_10  and  N1_5 
REMARK    3  A    between atoms: C11_17  and  N2_6 
REMARK    4  A    between atoms: C12_18  and  N2_6 
ROOT
HETATM    1  N1  UNK     1      19.074   0.293  30.623  1.00  0.00    -0.333 N 
HETATM    2  H8  UNK     1      19.006  -0.504  29.998  1.00  0.00     0.168 HD
ENDROOT
BRANCH   1   3
HETATM    3  C11 UNK     1      18.782   1.506  29.994  1.00  0.00     0.176 C 
HETATM    4  S1  UNK     1      17.837   1.704  28.612  1.00  0.00    -0.041 SA
BRANCH   3   5
HETATM    5  N2  UNK     1      19.419   2.639  30.478  1.00  0.00    -0.333 N 
HETATM    6  H9  UNK     1      20.412   2.508  30.659  1.00  0.00     0.168 HD
BRANCH   5   7
HETATM    7  C12 UNK     1      18.900   3.867  30.962  1.00  0.00     0.034 A 
HETATM    8  C13 UNK     1      18.188   3.877  32.148  1.00  0.00     0.031 A 
HETATM    9  C15 UNK     1      17.677   5.085  32.625  1.00  0.00     0.020 A 
HETATM   10  C17 UNK     1      17.887   6.263  31.906  1.00  0.00     0.006 A 
HETATM   11  C16 UNK     1      18.607   6.232  30.712  1.00  0.00     0.020 A 
HETATM   12  I1  UNK     1      17.126   8.060  32.615  1.00  0.00    -0.045 I 
HETATM   13  C14 UNK     1      19.118   5.025  30.236  1.00  0.00     0.031 A 
ENDBRANCH   5   7
ENDBRANCH   3   5
ENDBRANCH   1   3
BRANCH   1  14
HETATM   14  C4  UNK     1      18.972  -0.112  31.954  1.00  0.00     0.036 A 
HETATM   15  C5  UNK     1      18.371   0.720  32.892  1.00  0.00     0.067 A 
HETATM   16  C2  UNK     1      18.279   0.294  34.219  1.00  0.00     0.092 A 
HETATM   17  C1  UNK     1      18.771  -0.941  34.642  1.00  0.00     0.004 A 
HETATM   18  O1  UNK     1      17.659   1.180  35.123  1.00  0.00    -0.275 OA
HETATM   19  C3  UNK     1      18.632  -1.306  36.058  1.00  0.00    -0.043 A 
HETATM   20  C6  UNK     1      19.374  -1.765  33.681  1.00  0.00     0.017 A 
HETATM   21  C8  UNK     1      18.037  -0.445  36.896  1.00  0.00     0.090 A 
HETATM   22  C9  UNK     1      19.151  -2.629  36.544  1.00  0.00     0.049 C 
HETATM   23  C10 UNK     1      17.513   0.862  36.465  1.00  0.00     0.288 A 
HETATM   24  O2  UNK     1      16.975   1.625  37.260  1.00  0.00    -0.260 OA
HETATM   25  C7  UNK     1      19.473  -1.352  32.348  1.00  0.00     0.030 A 
ENDBRANCH   1  14
TORSDOF 4
ENDMDL
MODEL 8
REMARK VINA RESULT:      -8.3      5.653      8.036
REMARK  4 active torsions:
REMARK  status: ('A' for Active; 'I' for Inactive)
REMARK    1  A    between atoms: C11_17  and  N1_5 
REMARK    2  A    between atoms: C4_10  and  N1_5 
REMARK    3  A    between atoms: C11_17  and  N2_6 
REMARK    4  A    between atoms: C12_18  and  N2_6 
ROOT
HETATM    1  N1  UNK     1      19.140   0.289  30.707  1.00  0.00    -0.333 N 
HETATM    2  H8  UNK     1      19.131  -0.529  30.107  1.00  0.00     0.168 HD
ENDROOT
BRANCH   1   3
HETATM    3  C11 UNK     1      18.813   1.466  30.028  1.00  0.00     0.176 C 
HETATM    4  S1  UNK     1      17.839   1.582  28.657  1.00  0.00    -0.041 SA
BRANCH   3   5
HETATM    5  N2  UNK     1      19.438   2.632  30.446  1.00  0.00    -0.333 N 
HETATM    6  H9  UNK     1      20.444   2.539  30.568  1.00  0.00     0.168 HD
BRANCH   5   7
HETATM    7  C12 UNK     1      18.907   3.854  30.931  1.00  0.00     0.034 A 
HETATM    8  C13 UNK     1      18.171   3.850  32.102  1.00  0.00     0.031 A 
HETATM    9  C15 UNK     1      17.648   5.053  32.581  1.00  0.00     0.020 A 
HETATM   10  C17 UNK     1      17.869   6.238  31.878  1.00  0.00     0.006 A 
HETATM   11  C16 UNK     1      18.613   6.221  30.698  1.00  0.00     0.020 A 
HETATM   12  I1  UNK     1      17.089   8.026  32.590  1.00  0.00    -0.045 I 
HETATM   13  C14 UNK     1      19.135   5.019  30.221  1.00  0.00     0.031 A 
ENDBRANCH   5   7
ENDBRANCH   3   5
ENDBRANCH   1   3
BRANCH   1  14
HETATM   14  C4  UNK     1      19.011  -0.077  32.047  1.00  0.00     0.036 A 
HETATM   15  C5  UNK     1      19.590  -1.255  32.507  1.00  0.00     0.067 A 
HETATM   16  C2  UNK     1      19.449  -1.602  33.852  1.00  0.00     0.092 A 
HETATM   17  C1  UNK     1      18.744  -0.807  34.758  1.00  0.00     0.004 A 
HETATM   18  O1  UNK     1      20.058  -2.806  34.259  1.00  0.00    -0.275 OA
HETATM   19  C3  UNK     1      18.647  -1.251  36.154  1.00  0.00    -0.043 A 
HETATM   20  C6  UNK     1      18.168   0.375  34.274  1.00  0.00     0.017 A 
HETATM   21  C8  UNK     1      19.236  -2.400  36.515  1.00  0.00     0.090 A 
HETATM   22  C9  UNK     1      17.896  -0.418  37.153  1.00  0.00     0.049 C 
HETATM   23  C10 UNK     1      19.983  -3.249  35.571  1.00  0.00     0.288 A 
HETATM   24  O2  UNK     1      20.508  -4.295  35.935  1.00  0.00    -0.260 OA
HETATM   25  C7  UNK     1      18.301   0.737  32.929  1.00  0.00     0.030 A 
ENDBRANCH   1  14
TORSDOF 4
ENDMDL
MODEL 9
REMARK VINA RESULT:      -8.3      7.981     11.061
REMARK  4 active torsions:
REMARK  status: ('A' for Active; 'I' for Inactive)
REMARK    1  A    between atoms: C11_17  and  N1_5 
REMARK    2  A    between atoms: C4_10  and  N1_5 
REMARK    3  A    between atoms: C11_17  and  N2_6 
REMARK    4  A    between atoms: C12_18  and  N2_6 
ROOT
HETATM    1  N1  UNK     1      17.589   4.341  32.187  1.00  0.00    -0.333 N 
HETATM    2  H8  UNK     1      16.606   4.317  32.439  1.00  0.00     0.168 HD
ENDROOT
BRANCH   1   3
HETATM    3  C11 UNK     1      18.204   5.555  32.501  1.00  0.00     0.176 C 
HETATM    4  S1  UNK     1      19.650   6.131  31.853  1.00  0.00    -0.041 SA
BRANCH   3   5
HETATM    5  N2  UNK     1      17.640   6.305  33.523  1.00  0.00    -0.333 N 
HETATM    6  H9  UNK     1      17.763   5.900  34.448  1.00  0.00     0.168 HD
BRANCH   5   7
HETATM    7  C12 UNK     1      16.751   7.409  33.489  1.00  0.00     0.034 A 
HETATM    8  C13 UNK     1      16.474   8.086  34.664  1.00  0.00     0.031 A 
HETATM    9  C15 UNK     1      15.599   9.173  34.632  1.00  0.00     0.020 A 
HETATM   10  C17 UNK     1      15.016   9.564  33.426  1.00  0.00     0.006 A 
HETATM   11  C16 UNK     1      15.308   8.869  32.253  1.00  0.00     0.020 A 
HETATM   12  I1  UNK     1      13.714  11.181  33.379  1.00  0.00    -0.045 I 
HETATM   13  C14 UNK     1      16.182   7.783  32.284  1.00  0.00     0.031 A 
ENDBRANCH   5   7
ENDBRANCH   3   5
ENDBRANCH   1   3
BRANCH   1  14
HETATM   14  C4  UNK     1      18.097   3.049  32.055  1.00  0.00     0.036 A 
HETATM   15  C5  UNK     1      18.586   2.613  30.827  1.00  0.00     0.067 A 
HETATM   16  C2  UNK     1      19.091   1.316  30.718  1.00  0.00     0.092 A 
HETATM   17  C1  UNK     1      19.123   0.434  31.799  1.00  0.00     0.004 A 
HETATM   18  O1  UNK     1      19.572   0.932  29.450  1.00  0.00    -0.275 OA
HETATM   19  C3  UNK     1      19.672  -0.913  31.592  1.00  0.00    -0.043 A 
HETATM   20  C6  UNK     1      18.626   0.892  33.027  1.00  0.00     0.017 A 
HETATM   21  C8  UNK     1      20.123  -1.251  30.376  1.00  0.00     0.090 A 
HETATM   22  C9  UNK     1      19.721  -1.885  32.735  1.00  0.00     0.049 C 
HETATM   23  C10 UNK     1      20.096  -0.332  29.225  1.00  0.00     0.288 A 
HETATM   24  O2  UNK     1      20.516  -0.676  28.126  1.00  0.00    -0.260 OA
HETATM   25  C7  UNK     1      18.117   2.189  33.153  1.00  0.00     0.030 A 
ENDBRANCH   1  14
TORSDOF 4
ENDMDL
MODEL 10
REMARK VINA RESULT:      -8.3      2.060      2.364
REMARK  4 active torsions:
REMARK  status: ('A' for Active; 'I' for Inactive)
REMARK    1  A    between atoms: C11_17  and  N1_5 
REMARK    2  A    between atoms: C4_10  and  N1_5 
REMARK    3  A    between atoms: C11_17  and  N2_6 
REMARK    4  A    between atoms: C12_18  and  N2_6 
ROOT
HETATM    1  N1  UNK     1      18.572  -4.331  36.503  1.00  0.00    -0.333 N 
HETATM    2  H8  UNK     1      17.745  -4.538  37.055  1.00  0.00     0.168 HD
ENDROOT
BRANCH   1   3
HETATM    3  C11 UNK     1      18.842  -2.962  36.418  1.00  0.00     0.176 C 
HETATM    4  S1  UNK     1      17.911  -1.725  37.084  1.00  0.00    -0.041 SA
BRANCH   3   5
HETATM    5  N2  UNK     1      19.905  -2.576  35.616  1.00  0.00    -0.333 N 
HETATM    6  H9  UNK     1      20.753  -2.357  36.133  1.00  0.00     0.168 HD
BRANCH   5   7
HETATM    7  C12 UNK     1      19.961  -2.232  34.241  1.00  0.00     0.034 A 
HETATM    8  C13 UNK     1      19.031  -1.345  33.730  1.00  0.00     0.031 A 
HETATM    9  C15 UNK     1      19.086  -1.005  32.378  1.00  0.00     0.020 A 
HETATM   10  C17 UNK     1      20.069  -1.561  31.558  1.00  0.00     0.006 A 
HETATM   11  C16 UNK     1      20.998  -2.454  32.092  1.00  0.00     0.020 A 
HETATM   12  I1  UNK     1      20.150  -1.056  29.545  1.00  0.00    -0.045 I 
HETATM   13  C14 UNK     1      20.943  -2.793  33.443  1.00  0.00     0.031 A 
ENDBRANCH   5   7
ENDBRANCH   3   5
ENDBRANCH   1   3
BRANCH   1  14
HETATM   14  C4  UNK     1      19.401  -5.449  36.415  1.00  0.00     0.036 A 
HETATM   15  C5  UNK     1      20.456  -5.607  37.307  1.00  0.00     0.067 A 
HETATM   16  C2  UNK     1      21.274  -6.734  37.200  1.00  0.00     0.092 A 
HETATM   17  C1  UNK     1      21.071  -7.714  36.227  1.00  0.00     0.004 A 
HETATM   18  O1  UNK     1      22.326  -6.839  38.132  1.00  0.00    -0.275 OA
HETATM   19  C3  UNK     1      21.981  -8.866  36.189  1.00  0.00    -0.043 A 
HETATM   20  C6  UNK     1      20.002  -7.536  35.338  1.00  0.00     0.017 A 
HETATM   21  C8  UNK     1      22.973  -8.941  37.088  1.00  0.00     0.090 A 
HETATM   22  C9  UNK     1      21.789  -9.937  35.155  1.00  0.00     0.049 C 
HETATM   23  C10 UNK     1      23.200  -7.916  38.121  1.00  0.00     0.288 A 
HETATM   24  O2  UNK     1      24.119  -8.017  38.926  1.00  0.00    -0.260 OA
HETATM   25  C7  UNK     1      19.174  -6.411  35.432  1.00  0.00     0.030 A 
ENDBRANCH   1  14
TORSDOF 4
ENDMDL
