MODEL 1
REMARK VINA RESULT:     -10.4      0.000      0.000
REMARK  5 active torsions:
REMARK  status: ('A' for Active; 'I' for Inactive)
REMARK    1  A    between atoms: C5_11  and  N1_4 
REMARK    2  A    between atoms: C6_12  and  N2_5 
REMARK    3  A    between atoms: C17_23  and  N3_6 
REMARK       I    between atoms: C9_15  and  N3_6 
REMARK    4  A    between atoms: C5_11  and  C7_13 
REMARK    5  A    between atoms: C6_12  and  C9_15 
ROOT
HETATM    1  N1  UNK     1      19.271  -3.153  36.187  1.00  0.00     0.096 N 
HETATM    2  N2  UNK     1      18.296  -0.546  35.404  1.00  0.00     0.100 N 
HETATM    3  C1  UNK     1      20.027  -2.303  35.259  1.00  0.00     0.303 C 
HETATM    4  C2  UNK     1      18.477  -2.329  37.106  1.00  0.00     0.303 C 
HETATM    5  C3  UNK     1      19.088  -1.371  34.484  1.00  0.00     0.303 C 
HETATM    6  C4  UNK     1      17.539  -1.396  36.331  1.00  0.00     0.303 C 
ENDROOT
BRANCH   1   7
HETATM    7  C5  UNK     1      20.168  -4.039  36.928  1.00  0.00     0.312 C 
BRANCH   7   8
HETATM    8  C7  UNK     1      20.174  -5.421  36.376  1.00  0.00    -0.011 A 
HETATM    9  C10 UNK     1      20.271  -5.640  35.057  1.00  0.00     0.092 A 
HETATM   10  C13 UNK     1      20.281  -6.989  34.464  1.00  0.00     0.288 A 
HETATM   11  O1  UNK     1      20.183  -8.055  35.343  1.00  0.00    -0.275 OA
HETATM   12  O3  UNK     1      20.370  -7.149  33.251  1.00  0.00    -0.260 OA
HETATM   13  C11 UNK     1      20.080  -7.857  36.734  1.00  0.00     0.090 A 
HETATM   14  C8  UNK     1      20.073  -6.573  37.281  1.00  0.00     0.006 A 
HETATM   15  C14 UNK     1      19.988  -9.005  37.524  1.00  0.00     0.045 A 
HETATM   16  C12 UNK     1      19.966  -6.461  38.675  1.00  0.00     0.015 A 
HETATM   17  C16 UNK     1      19.873  -7.602  39.479  1.00  0.00     0.007 A 
HETATM   18  C15 UNK     1      19.884  -8.872  38.904  1.00  0.00    -0.059 A 
HETATM   19  C18 UNK     1      19.783 -10.084  39.768  1.00  0.00     0.048 C 
ENDBRANCH   7   8
ENDBRANCH   1   7
BRANCH   2  20
HETATM   20  C6  UNK     1      17.401   0.342  34.664  1.00  0.00     0.375 C 
BRANCH  20  21
HETATM   21  C9  UNK     1      18.155   1.595  34.258  1.00  0.00     0.250 C 
HETATM   22  O2  UNK     1      19.041   2.087  34.949  1.00  0.00    -0.271 OA
HETATM   23  N3  UNK     1      17.692   2.057  33.027  1.00  0.00    -0.326 N 
HETATM   24  H15 UNK     1      16.943   1.537  32.577  1.00  0.00     0.169 HD
BRANCH  23  25
HETATM   25  C17 UNK     1      18.135   3.193  32.309  1.00  0.00     0.035 A 
HETATM   26  C19 UNK     1      18.202   4.436  32.940  1.00  0.00     0.036 A 
HETATM   27  C21 UNK     1      18.639   5.555  32.232  1.00  0.00    -0.060 A 
HETATM   28  C23 UNK     1      19.009   5.432  30.893  1.00  0.00     0.007 A 
HETATM   29  C24 UNK     1      18.711   6.883  32.907  1.00  0.00     0.048 C 
HETATM   30  C22 UNK     1      18.944   4.190  30.262  1.00  0.00     0.003 A 
HETATM   31  C20 UNK     1      18.506   3.071  30.970  1.00  0.00     0.029 A 
ENDBRANCH  23  25
ENDBRANCH  20  21
ENDBRANCH   2  20
TORSDOF 5
ENDMDL
MODEL 2
REMARK VINA RESULT:     -10.1      5.673     12.936
REMARK  5 active torsions:
REMARK  status: ('A' for Active; 'I' for Inactive)
REMARK    1  A    between atoms: C5_11  and  N1_4 
REMARK    2  A    between atoms: C6_12  and  N2_5 
REMARK    3  A    between atoms: C17_23  and  N3_6 
REMARK       I    between atoms: C9_15  and  N3_6 
REMARK    4  A    between atoms: C5_11  and  C7_13 
REMARK    5  A    between atoms: C6_12  and  C9_15 
ROOT
HETATM    1  N1  UNK     1      18.251   6.089  32.200  1.00  0.00     0.096 N 
HETATM    2  N2  UNK     1      18.990   4.089  30.247  1.00  0.00     0.100 N 
HETATM    3  C1  UNK     1      18.141   4.655  32.497  1.00  0.00     0.303 C 
HETATM    4  C2  UNK     1      19.327   6.331  31.231  1.00  0.00     0.303 C 
HETATM    5  C3  UNK     1      17.912   3.848  31.215  1.00  0.00     0.303 C 
HETATM    6  C4  UNK     1      19.098   5.522  29.949  1.00  0.00     0.303 C 
ENDROOT
BRANCH   1   7
HETATM    7  C5  UNK     1      18.473   6.858  33.425  1.00  0.00     0.312 C 
BRANCH   7   8
HETATM    8  C7  UNK     1      17.350   7.792  33.712  1.00  0.00    -0.011 A 
HETATM    9  C10 UNK     1      16.084   7.357  33.769  1.00  0.00     0.092 A 
HETATM   10  C13 UNK     1      14.941   8.243  34.050  1.00  0.00     0.288 A 
HETATM   11  O1  UNK     1      15.229   9.582  34.258  1.00  0.00    -0.275 OA
HETATM   12  O3  UNK     1      13.795   7.808  34.094  1.00  0.00    -0.260 OA
HETATM   13  C11 UNK     1      16.551  10.069  34.204  1.00  0.00     0.090 A 
HETATM   14  C8  UNK     1      17.623   9.218  33.938  1.00  0.00     0.006 A 
HETATM   15  C14 UNK     1      16.722  11.437  34.430  1.00  0.00     0.045 A 
HETATM   16  C12 UNK     1      18.906   9.781  33.900  1.00  0.00     0.015 A 
HETATM   17  C16 UNK     1      19.094  11.149  34.125  1.00  0.00     0.007 A 
HETATM   18  C15 UNK     1      18.004  11.976  34.389  1.00  0.00    -0.059 A 
HETATM   19  C18 UNK     1      18.211  13.433  34.627  1.00  0.00     0.048 C 
ENDBRANCH   7   8
ENDBRANCH   1   7
BRANCH   2  20
HETATM   20  C6  UNK     1      18.769   3.319  29.024  1.00  0.00     0.375 C 
BRANCH  20  21
HETATM   21  C9  UNK     1      18.592   1.853  29.375  1.00  0.00     0.250 C 
HETATM   22  O2  UNK     1      17.510   1.280  29.297  1.00  0.00    -0.271 OA
HETATM   23  N3  UNK     1      19.809   1.303  29.773  1.00  0.00    -0.326 N 
HETATM   24  H15 UNK     1      20.622   1.913  29.788  1.00  0.00     0.169 HD
BRANCH  23  25
HETATM   25  C17 UNK     1      20.062  -0.029  30.178  1.00  0.00     0.035 A 
HETATM   26  C19 UNK     1      19.901  -0.396  31.515  1.00  0.00     0.036 A 
HETATM   27  C21 UNK     1      20.152  -1.708  31.913  1.00  0.00    -0.060 A 
HETATM   28  C23 UNK     1      20.563  -2.655  30.975  1.00  0.00     0.007 A 
HETATM   29  C24 UNK     1      19.980  -2.100  33.342  1.00  0.00     0.048 C 
HETATM   30  C22 UNK     1      20.724  -2.290  29.639  1.00  0.00     0.003 A 
HETATM   31  C20 UNK     1      20.474  -0.977  29.240  1.00  0.00     0.029 A 
ENDBRANCH  23  25
ENDBRANCH  20  21
ENDBRANCH   2  20
TORSDOF 5
ENDMDL
MODEL 3
REMARK VINA RESULT:     -10.0      5.755     12.604
REMARK  5 active torsions:
REMARK  status: ('A' for Active; 'I' for Inactive)
REMARK    1  A    between atoms: C5_11  and  N1_4 
REMARK    2  A    between atoms: C6_12  and  N2_5 
REMARK    3  A    between atoms: C17_23  and  N3_6 
REMARK       I    between atoms: C9_15  and  N3_6 
REMARK    4  A    between atoms: C5_11  and  C7_13 
REMARK    5  A    between atoms: C6_12  and  C9_15 
ROOT
HETATM    1  N1  UNK     1      18.095   5.663  32.887  1.00  0.00     0.096 N 
HETATM    2  N2  UNK     1      18.883   4.124  30.570  1.00  0.00     0.100 N 
HETATM    3  C1  UNK     1      18.146   4.197  32.927  1.00  0.00     0.303 C 
HETATM    4  C2  UNK     1      19.070   6.184  31.922  1.00  0.00     0.303 C 
HETATM    5  C3  UNK     1      17.905   3.604  31.534  1.00  0.00     0.303 C 
HETATM    6  C4  UNK     1      18.831   5.591  30.529  1.00  0.00     0.303 C 
ENDROOT
BRANCH   1   7
HETATM    7  C5  UNK     1      18.328   6.227  34.216  1.00  0.00     0.312 C 
BRANCH   7   8
HETATM    8  C7  UNK     1      18.327   7.716  34.202  1.00  0.00    -0.011 A 
HETATM    9  C10 UNK     1      19.460   8.411  34.374  1.00  0.00     0.092 A 
HETATM   10  C13 UNK     1      19.508   9.884  34.368  1.00  0.00     0.288 A 
HETATM   11  O1  UNK     1      18.306  10.545  34.173  1.00  0.00    -0.275 OA
HETATM   12  O3  UNK     1      20.564  10.486  34.529  1.00  0.00    -0.260 OA
HETATM   13  C11 UNK     1      17.099   9.841  33.989  1.00  0.00     0.090 A 
HETATM   14  C8  UNK     1      17.069   8.446  33.997  1.00  0.00     0.006 A 
HETATM   15  C14 UNK     1      15.949  10.612  33.802  1.00  0.00     0.045 A 
HETATM   16  C12 UNK     1      15.828   7.822  33.809  1.00  0.00     0.015 A 
HETATM   17  C16 UNK     1      14.667   8.580  33.619  1.00  0.00     0.007 A 
HETATM   18  C15 UNK     1      14.728   9.973  33.616  1.00  0.00    -0.059 A 
HETATM   19  C18 UNK     1      13.487  10.774  33.413  1.00  0.00     0.048 C 
ENDBRANCH   7   8
ENDBRANCH   1   7
BRANCH   2  20
HETATM   20  C6  UNK     1      18.652   3.559  29.242  1.00  0.00     0.375 C 
BRANCH  20  21
HETATM   21  C9  UNK     1      18.529   2.049  29.349  1.00  0.00     0.250 C 
HETATM   22  O2  UNK     1      17.524   1.440  28.999  1.00  0.00    -0.271 OA
HETATM   23  N3  UNK     1      19.699   1.509  29.880  1.00  0.00    -0.326 N 
HETATM   24  H15 UNK     1      20.449   2.151  30.125  1.00  0.00     0.169 HD
BRANCH  23  25
HETATM   25  C17 UNK     1      19.981   0.146  30.136  1.00  0.00     0.035 A 
HETATM   26  C19 UNK     1      19.929  -0.345  31.441  1.00  0.00     0.036 A 
HETATM   27  C21 UNK     1      20.208  -1.688  31.693  1.00  0.00    -0.060 A 
HETATM   28  C23 UNK     1      20.537  -2.541  30.640  1.00  0.00     0.007 A 
HETATM   29  C24 UNK     1      20.152  -2.212  33.088  1.00  0.00     0.048 C 
HETATM   30  C22 UNK     1      20.589  -2.051  29.335  1.00  0.00     0.003 A 
HETATM   31  C20 UNK     1      20.311  -0.708  29.083  1.00  0.00     0.029 A 
ENDBRANCH  23  25
ENDBRANCH  20  21
ENDBRANCH   2  20
TORSDOF 5
ENDMDL
MODEL 4
REMARK VINA RESULT:      -9.9      1.821      2.618
REMARK  5 active torsions:
REMARK  status: ('A' for Active; 'I' for Inactive)
REMARK    1  A    between atoms: C5_11  and  N1_4 
REMARK    2  A    between atoms: C6_12  and  N2_5 
REMARK    3  A    between atoms: C17_23  and  N3_6 
REMARK       I    between atoms: C9_15  and  N3_6 
REMARK    4  A    between atoms: C5_11  and  C7_13 
REMARK    5  A    between atoms: C6_12  and  C9_15 
ROOT
HETATM    1  N1  UNK     1      19.520  -3.422  36.451  1.00  0.00     0.096 N 
HETATM    2  N2  UNK     1      18.703  -0.679  36.043  1.00  0.00     0.100 N 
HETATM    3  C1  UNK     1      20.444  -2.426  35.895  1.00  0.00     0.303 C 
HETATM    4  C2  UNK     1      18.544  -2.777  37.338  1.00  0.00     0.303 C 
HETATM    5  C3  UNK     1      19.678  -1.324  35.155  1.00  0.00     0.303 C 
HETATM    6  C4  UNK     1      17.779  -1.675  36.598  1.00  0.00     0.303 C 
ENDROOT
BRANCH   1   7
HETATM    7  C5  UNK     1      20.252  -4.471  37.161  1.00  0.00     0.312 C 
BRANCH   7   8
HETATM    8  C7  UNK     1      20.208  -5.772  36.439  1.00  0.00    -0.011 A 
HETATM    9  C10 UNK     1      20.363  -5.832  35.109  1.00  0.00     0.092 A 
HETATM   10  C13 UNK     1      20.327  -7.095  34.351  1.00  0.00     0.288 A 
HETATM   11  O1  UNK     1      20.122  -8.254  35.083  1.00  0.00    -0.275 OA
HETATM   12  O3  UNK     1      20.472  -7.111  33.134  1.00  0.00    -0.260 OA
HETATM   13  C11 UNK     1      19.957  -8.222  36.483  1.00  0.00     0.090 A 
HETATM   14  C8  UNK     1      19.993  -7.018  37.186  1.00  0.00     0.006 A 
HETATM   15  C14 UNK     1      19.757  -9.452  37.116  1.00  0.00     0.045 A 
HETATM   16  C12 UNK     1      19.819  -7.073  38.576  1.00  0.00     0.015 A 
HETATM   17  C16 UNK     1      19.618  -8.296  39.225  1.00  0.00     0.007 A 
HETATM   18  C15 UNK     1      19.587  -9.483  38.496  1.00  0.00    -0.059 A 
HETATM   19  C18 UNK     1      19.372 -10.783  39.194  1.00  0.00     0.048 C 
ENDBRANCH   7   8
ENDBRANCH   1   7
BRANCH   2  20
HETATM   20  C6  UNK     1      17.973   0.371  35.335  1.00  0.00     0.375 C 
BRANCH  20  21
HETATM   21  C9  UNK     1      17.931   0.045  33.853  1.00  0.00     0.250 C 
HETATM   22  O2  UNK     1      17.287  -0.897  33.400  1.00  0.00    -0.271 OA
HETATM   23  N3  UNK     1      18.703   0.958  33.137  1.00  0.00    -0.326 N 
HETATM   24  H15 UNK     1      19.182   1.686  33.661  1.00  0.00     0.169 HD
BRANCH  23  25
HETATM   25  C17 UNK     1      18.920   0.996  31.739  1.00  0.00     0.035 A 
HETATM   26  C19 UNK     1      19.690   0.009  31.124  1.00  0.00     0.036 A 
HETATM   27  C21 UNK     1      19.904   0.048  29.747  1.00  0.00    -0.060 A 
HETATM   28  C23 UNK     1      19.346   1.074  28.984  1.00  0.00     0.007 A 
HETATM   29  C24 UNK     1      20.728  -1.008  29.090  1.00  0.00     0.048 C 
HETATM   30  C22 UNK     1      18.576   2.061  29.597  1.00  0.00     0.003 A 
HETATM   31  C20 UNK     1      18.362   2.022  30.975  1.00  0.00     0.029 A 
ENDBRANCH  23  25
ENDBRANCH  20  21
ENDBRANCH   2  20
TORSDOF 5
ENDMDL
MODEL 5
REMARK VINA RESULT:      -9.8      3.784     10.842
REMARK  5 active torsions:
REMARK  status: ('A' for Active; 'I' for Inactive)
REMARK    1  A    between atoms: C5_11  and  N1_4 
REMARK    2  A    between atoms: C6_12  and  N2_5 
REMARK    3  A    between atoms: C17_23  and  N3_6 
REMARK       I    between atoms: C9_15  and  N3_6 
REMARK    4  A    between atoms: C5_11  and  C7_13 
REMARK    5  A    between atoms: C6_12  and  C9_15 
ROOT
HETATM    1  N1  UNK     1      20.033  -3.982  36.745  1.00  0.00     0.096 N 
HETATM    2  N2  UNK     1      20.246  -6.853  37.010  1.00  0.00     0.100 N 
HETATM    3  C1  UNK     1      20.975  -4.593  37.690  1.00  0.00     0.303 C 
HETATM    4  C2  UNK     1      19.806  -4.872  35.600  1.00  0.00     0.303 C 
HETATM    5  C3  UNK     1      20.471  -5.964  38.155  1.00  0.00     0.303 C 
HETATM    6  C4  UNK     1      19.302  -6.242  36.065  1.00  0.00     0.303 C 
ENDROOT
BRANCH   1   7
HETATM    7  C5  UNK     1      20.518  -2.676  36.300  1.00  0.00     0.312 C 
BRANCH   7   8
HETATM    8  C7  UNK     1      19.535  -1.981  35.425  1.00  0.00    -0.011 A 
HETATM    9  C10 UNK     1      18.435  -1.410  35.936  1.00  0.00     0.092 A 
HETATM   10  C13 UNK     1      17.434  -0.712  35.111  1.00  0.00     0.288 A 
HETATM   11  O1  UNK     1      17.676  -0.664  33.747  1.00  0.00    -0.275 OA
HETATM   12  O3  UNK     1      16.439  -0.202  35.614  1.00  0.00    -0.260 OA
HETATM   13  C11 UNK     1      18.823  -1.254  33.181  1.00  0.00     0.090 A 
HETATM   14  C8  UNK     1      19.763  -1.912  33.975  1.00  0.00     0.006 A 
HETATM   15  C14 UNK     1      18.964  -1.144  31.795  1.00  0.00     0.045 A 
HETATM   16  C12 UNK     1      20.876  -2.473  33.335  1.00  0.00     0.015 A 
HETATM   17  C16 UNK     1      21.031  -2.371  31.948  1.00  0.00     0.007 A 
HETATM   18  C15 UNK     1      20.076  -1.707  31.180  1.00  0.00    -0.059 A 
HETATM   19  C18 UNK     1      20.248  -1.602  29.702  1.00  0.00     0.048 C 
ENDBRANCH   7   8
ENDBRANCH   1   7
BRANCH   2  20
HETATM   20  C6  UNK     1      19.763  -8.159  37.454  1.00  0.00     0.375 C 
BRANCH  20  21
HETATM   21  C9  UNK     1      20.947  -9.069  37.728  1.00  0.00     0.250 C 
HETATM   22  O2  UNK     1      21.159  -9.566  38.830  1.00  0.00    -0.271 OA
HETATM   23  N3  UNK     1      21.704  -9.235  36.570  1.00  0.00    -0.326 N 
HETATM   24  H15 UNK     1      21.397  -8.751  35.730  1.00  0.00     0.169 HD
BRANCH  23  25
HETATM   25  C17 UNK     1      22.881 -10.005  36.411  1.00  0.00     0.035 A 
HETATM   26  C19 UNK     1      24.119  -9.470  36.768  1.00  0.00     0.036 A 
HETATM   27  C21 UNK     1      25.278 -10.229  36.610  1.00  0.00    -0.060 A 
HETATM   28  C23 UNK     1      25.200 -11.523  36.097  1.00  0.00     0.007 A 
HETATM   29  C24 UNK     1      26.602  -9.656  36.992  1.00  0.00     0.048 C 
HETATM   30  C22 UNK     1      23.963 -12.059  35.741  1.00  0.00     0.003 A 
HETATM   31  C20 UNK     1      22.803 -11.300  35.897  1.00  0.00     0.029 A 
ENDBRANCH  23  25
ENDBRANCH  20  21
ENDBRANCH   2  20
TORSDOF 5
ENDMDL
MODEL 6
REMARK VINA RESULT:      -9.6      3.723     10.686
REMARK  5 active torsions:
REMARK  status: ('A' for Active; 'I' for Inactive)
REMARK    1  A    between atoms: C5_11  and  N1_4 
REMARK    2  A    between atoms: C6_12  and  N2_5 
REMARK    3  A    between atoms: C17_23  and  N3_6 
REMARK       I    between atoms: C9_15  and  N3_6 
REMARK    4  A    between atoms: C5_11  and  C7_13 
REMARK    5  A    between atoms: C6_12  and  C9_15 
ROOT
HETATM    1  N1  UNK     1      20.109  -4.072  36.423  1.00  0.00     0.096 N 
HETATM    2  N2  UNK     1      20.281  -6.917  36.907  1.00  0.00     0.100 N 
HETATM    3  C1  UNK     1      20.820  -4.606  37.592  1.00  0.00     0.303 C 
HETATM    4  C2  UNK     1      20.153  -5.032  35.314  1.00  0.00     0.303 C 
HETATM    5  C3  UNK     1      20.235  -5.957  38.017  1.00  0.00     0.303 C 
HETATM    6  C4  UNK     1      19.569  -6.384  35.739  1.00  0.00     0.303 C 
ENDROOT
BRANCH   1   7
HETATM    7  C5  UNK     1      20.671  -2.784  36.017  1.00  0.00     0.312 C 
BRANCH   7   8
HETATM    8  C7  UNK     1      19.800  -2.075  35.041  1.00  0.00    -0.011 A 
HETATM    9  C10 UNK     1      20.045  -2.134  33.724  1.00  0.00     0.092 A 
HETATM   10  C13 UNK     1      19.212  -1.449  32.720  1.00  0.00     0.288 A 
HETATM   11  O1  UNK     1      18.134  -0.721  33.198  1.00  0.00    -0.275 OA
HETATM   12  O3  UNK     1      19.467  -1.526  31.523  1.00  0.00    -0.260 OA
HETATM   13  C11 UNK     1      17.852  -0.640  34.576  1.00  0.00     0.090 A 
HETATM   14  C8  UNK     1      18.650  -1.294  35.516  1.00  0.00     0.006 A 
HETATM   15  C14 UNK     1      16.740   0.123  34.943  1.00  0.00     0.045 A 
HETATM   16  C12 UNK     1      18.302  -1.164  36.867  1.00  0.00     0.015 A 
HETATM   17  C16 UNK     1      17.192  -0.403  37.250  1.00  0.00     0.007 A 
HETATM   18  C15 UNK     1      16.413   0.239  36.289  1.00  0.00    -0.059 A 
HETATM   19  C18 UNK     1      15.231   1.048  36.705  1.00  0.00     0.048 C 
ENDBRANCH   7   8
ENDBRANCH   1   7
BRANCH   2  20
HETATM   20  C6  UNK     1      19.721  -8.205  37.313  1.00  0.00     0.375 C 
BRANCH  20  21
HETATM   21  C9  UNK     1      20.851  -9.182  37.588  1.00  0.00     0.250 C 
HETATM   22  O2  UNK     1      20.921  -9.837  38.623  1.00  0.00    -0.271 OA
HETATM   23  N3  UNK     1      21.739  -9.206  36.514  1.00  0.00    -0.326 N 
HETATM   24  H15 UNK     1      21.542  -8.597  35.724  1.00  0.00     0.169 HD
BRANCH  23  25
HETATM   25  C17 UNK     1      22.915  -9.983  36.384  1.00  0.00     0.035 A 
HETATM   26  C19 UNK     1      24.152  -9.442  36.735  1.00  0.00     0.036 A 
HETATM   27  C21 UNK     1      25.310 -10.207  36.605  1.00  0.00    -0.060 A 
HETATM   28  C23 UNK     1      25.231 -11.514  36.126  1.00  0.00     0.007 A 
HETATM   29  C24 UNK     1      26.632  -9.628  36.980  1.00  0.00     0.048 C 
HETATM   30  C22 UNK     1      23.995 -12.057  35.776  1.00  0.00     0.003 A 
HETATM   31  C20 UNK     1      22.836 -11.291  35.905  1.00  0.00     0.029 A 
ENDBRANCH  23  25
ENDBRANCH  20  21
ENDBRANCH   2  20
TORSDOF 5
ENDMDL
MODEL 7
REMARK VINA RESULT:      -9.6      2.413      3.597
REMARK  5 active torsions:
REMARK  status: ('A' for Active; 'I' for Inactive)
REMARK    1  A    between atoms: C5_11  and  N1_4 
REMARK    2  A    between atoms: C6_12  and  N2_5 
REMARK    3  A    between atoms: C17_23  and  N3_6 
REMARK       I    between atoms: C9_15  and  N3_6 
REMARK    4  A    between atoms: C5_11  and  C7_13 
REMARK    5  A    between atoms: C6_12  and  C9_15 
ROOT
HETATM    1  N1  UNK     1      19.463  -4.021  36.553  1.00  0.00     0.096 N 
HETATM    2  N2  UNK     1      18.620  -1.444  35.548  1.00  0.00     0.100 N 
HETATM    3  C1  UNK     1      18.108  -3.512  36.799  1.00  0.00     0.303 C 
HETATM    4  C2  UNK     1      19.990  -3.484  35.292  1.00  0.00     0.303 C 
HETATM    5  C3  UNK     1      18.094  -1.979  36.810  1.00  0.00     0.303 C 
HETATM    6  C4  UNK     1      19.976  -1.952  35.303  1.00  0.00     0.303 C 
ENDROOT
BRANCH   1   7
HETATM    7  C5  UNK     1      19.474  -5.483  36.540  1.00  0.00     0.312 C 
BRANCH   7   8
HETATM    8  C7  UNK     1      20.730  -6.040  37.111  1.00  0.00    -0.011 A 
HETATM    9  C10 UNK     1      21.448  -5.351  38.009  1.00  0.00     0.092 A 
HETATM   10  C13 UNK     1      22.697  -5.861  38.602  1.00  0.00     0.288 A 
HETATM   11  O1  UNK     1      23.117  -7.114  38.187  1.00  0.00    -0.275 OA
HETATM   12  O3  UNK     1      23.327  -5.201  39.421  1.00  0.00    -0.260 OA
HETATM   13  C11 UNK     1      22.383  -7.862  37.244  1.00  0.00     0.090 A 
HETATM   14  C8  UNK     1      21.202  -7.366  36.691  1.00  0.00     0.006 A 
HETATM   15  C14 UNK     1      22.901  -9.113  36.899  1.00  0.00     0.045 A 
HETATM   16  C12 UNK     1      20.532  -8.172  35.760  1.00  0.00     0.015 A 
HETATM   17  C16 UNK     1      21.038  -9.427  35.405  1.00  0.00     0.007 A 
HETATM   18  C15 UNK     1      22.221  -9.897  35.973  1.00  0.00    -0.059 A 
HETATM   19  C18 UNK     1      22.755 -11.235  35.590  1.00  0.00     0.048 C 
ENDBRANCH   7   8
ENDBRANCH   1   7
BRANCH   2  20
HETATM   20  C6  UNK     1      18.608   0.018  35.560  1.00  0.00     0.375 C 
BRANCH  20  21
HETATM   21  C9  UNK     1      18.010   0.528  34.261  1.00  0.00     0.250 C 
HETATM   22  O2  UNK     1      16.812   0.758  34.129  1.00  0.00    -0.271 OA
HETATM   23  N3  UNK     1      19.008   0.687  33.301  1.00  0.00    -0.326 N 
HETATM   24  H15 UNK     1      19.961   0.449  33.565  1.00  0.00     0.169 HD
BRANCH  23  25
HETATM   25  C17 UNK     1      18.860   1.140  31.968  1.00  0.00     0.035 A 
HETATM   26  C19 UNK     1      19.223   0.313  30.905  1.00  0.00     0.036 A 
HETATM   27  C21 UNK     1      19.077   0.760  29.593  1.00  0.00    -0.060 A 
HETATM   28  C23 UNK     1      18.568   2.034  29.343  1.00  0.00     0.007 A 
HETATM   29  C24 UNK     1      19.465  -0.125  28.456  1.00  0.00     0.048 C 
HETATM   30  C22 UNK     1      18.204   2.861  30.405  1.00  0.00     0.003 A 
HETATM   31  C20 UNK     1      18.351   2.414  31.718  1.00  0.00     0.029 A 
ENDBRANCH  23  25
ENDBRANCH  20  21
ENDBRANCH   2  20
TORSDOF 5
ENDMDL
MODEL 8
REMARK VINA RESULT:      -9.4      1.802      2.203
REMARK  5 active torsions:
REMARK  status: ('A' for Active; 'I' for Inactive)
REMARK    1  A    between atoms: C5_11  and  N1_4 
REMARK    2  A    between atoms: C6_12  and  N2_5 
REMARK    3  A    between atoms: C17_23  and  N3_6 
REMARK       I    between atoms: C9_15  and  N3_6 
REMARK    4  A    between atoms: C5_11  and  C7_13 
REMARK    5  A    between atoms: C6_12  and  C9_15 
ROOT
HETATM    1  N1  UNK     1      19.449  -2.560  35.845  1.00  0.00     0.096 N 
HETATM    2  N2  UNK     1      18.715   0.039  34.813  1.00  0.00     0.100 N 
HETATM    3  C1  UNK     1      19.925  -2.096  34.536  1.00  0.00     0.303 C 
HETATM    4  C2  UNK     1      19.224  -1.420  36.741  1.00  0.00     0.303 C 
HETATM    5  C3  UNK     1      18.938  -1.101  33.916  1.00  0.00     0.303 C 
HETATM    6  C4  UNK     1      18.237  -0.425  36.122  1.00  0.00     0.303 C 
ENDROOT
BRANCH   1   7
HETATM    7  C5  UNK     1      20.394  -3.507  36.435  1.00  0.00     0.312 C 
BRANCH   7   8
HETATM    8  C7  UNK     1      19.734  -4.777  36.845  1.00  0.00    -0.011 A 
HETATM    9  C10 UNK     1      18.494  -5.077  36.435  1.00  0.00     0.092 A 
HETATM   10  C13 UNK     1      17.801  -6.321  36.814  1.00  0.00     0.288 A 
HETATM   11  O1  UNK     1      18.495  -7.195  37.634  1.00  0.00    -0.275 OA
HETATM   12  O3  UNK     1      16.665  -6.561  36.419  1.00  0.00    -0.260 OA
HETATM   13  C11 UNK     1      19.800  -6.906  38.082  1.00  0.00     0.090 A 
HETATM   14  C8  UNK     1      20.444  -5.725  37.714  1.00  0.00     0.006 A 
HETATM   15  C14 UNK     1      20.404  -7.861  38.905  1.00  0.00     0.045 A 
HETATM   16  C12 UNK     1      21.741  -5.513  38.202  1.00  0.00     0.015 A 
HETATM   17  C16 UNK     1      22.359  -6.459  39.027  1.00  0.00     0.007 A 
HETATM   18  C15 UNK     1      21.691  -7.631  39.378  1.00  0.00    -0.059 A 
HETATM   19  C18 UNK     1      22.355  -8.635  40.258  1.00  0.00     0.048 C 
ENDBRANCH   7   8
ENDBRANCH   1   7
BRANCH   2  20
HETATM   20  C6  UNK     1      17.772   0.987  34.222  1.00  0.00     0.375 C 
BRANCH  20  21
HETATM   21  C9  UNK     1      18.266   2.403  34.456  1.00  0.00     0.250 C 
HETATM   22  O2  UNK     1      18.863   2.736  35.475  1.00  0.00    -0.271 OA
HETATM   23  N3  UNK     1      17.945   3.211  33.367  1.00  0.00    -0.326 N 
HETATM   24  H15 UNK     1      17.441   2.784  32.593  1.00  0.00     0.169 HD
BRANCH  23  25
HETATM   25  C17 UNK     1      18.230   4.587  33.199  1.00  0.00     0.035 A 
HETATM   26  C19 UNK     1      17.413   5.376  32.389  1.00  0.00     0.036 A 
HETATM   27  C21 UNK     1      17.695   6.732  32.224  1.00  0.00    -0.060 A 
HETATM   28  C23 UNK     1      18.794   7.299  32.868  1.00  0.00     0.007 A 
HETATM   29  C24 UNK     1      16.821   7.575  31.358  1.00  0.00     0.048 C 
HETATM   30  C22 UNK     1      19.612   6.511  33.678  1.00  0.00     0.003 A 
HETATM   31  C20 UNK     1      19.330   5.155  33.843  1.00  0.00     0.029 A 
ENDBRANCH  23  25
ENDBRANCH  20  21
ENDBRANCH   2  20
TORSDOF 5
ENDMDL
MODEL 9
REMARK VINA RESULT:      -9.4      4.214     12.640
REMARK  5 active torsions:
REMARK  status: ('A' for Active; 'I' for Inactive)
REMARK    1  A    between atoms: C5_11  and  N1_4 
REMARK    2  A    between atoms: C6_12  and  N2_5 
REMARK    3  A    between atoms: C17_23  and  N3_6 
REMARK       I    between atoms: C9_15  and  N3_6 
REMARK    4  A    between atoms: C5_11  and  C7_13 
REMARK    5  A    between atoms: C6_12  and  C9_15 
ROOT
HETATM    1  N1  UNK     1      18.051   5.398  31.711  1.00  0.00     0.096 N 
HETATM    2  N2  UNK     1      19.006   2.753  31.038  1.00  0.00     0.100 N 
HETATM    3  C1  UNK     1      18.260   4.377  32.744  1.00  0.00     0.303 C 
HETATM    4  C2  UNK     1      18.967   5.182  30.584  1.00  0.00     0.303 C 
HETATM    5  C3  UNK     1      18.088   2.969  32.164  1.00  0.00     0.303 C 
HETATM    6  C4  UNK     1      18.796   3.774  30.004  1.00  0.00     0.303 C 
ENDROOT
BRANCH   1   7
HETATM    7  C5  UNK     1      18.218   6.741  32.266  1.00  0.00     0.312 C 
BRANCH   7   8
HETATM    8  C7  UNK     1      16.914   7.417  32.503  1.00  0.00    -0.011 A 
HETATM    9  C10 UNK     1      15.759   6.844  32.134  1.00  0.00     0.092 A 
HETATM   10  C13 UNK     1      14.445   7.474  32.347  1.00  0.00     0.288 A 
HETATM   11  O1  UNK     1      14.443   8.717  32.960  1.00  0.00    -0.275 OA
HETATM   12  O3  UNK     1      13.409   6.919  31.996  1.00  0.00    -0.260 OA
HETATM   13  C11 UNK     1      15.640   9.344  33.358  1.00  0.00     0.090 A 
HETATM   14  C8  UNK     1      16.878   8.735  33.150  1.00  0.00     0.006 A 
HETATM   15  C14 UNK     1      15.517  10.596  33.966  1.00  0.00     0.045 A 
HETATM   16  C12 UNK     1      18.022   9.425  33.574  1.00  0.00     0.015 A 
HETATM   17  C16 UNK     1      17.915  10.680  34.185  1.00  0.00     0.007 A 
HETATM   18  C15 UNK     1      16.665  11.264  34.380  1.00  0.00    -0.059 A 
HETATM   19  C18 UNK     1      16.558  12.601  35.031  1.00  0.00     0.048 C 
ENDBRANCH   7   8
ENDBRANCH   1   7
BRANCH   2  20
HETATM   20  C6  UNK     1      18.840   1.411  30.484  1.00  0.00     0.375 C 
BRANCH  20  21
HETATM   21  C9  UNK     1      19.603   0.414  31.339  1.00  0.00     0.250 C 
HETATM   22  O2  UNK     1      20.753   0.069  31.086  1.00  0.00    -0.271 OA
HETATM   23  N3  UNK     1      18.812  -0.010  32.405  1.00  0.00    -0.326 N 
HETATM   24  H15 UNK     1      17.871   0.369  32.477  1.00  0.00     0.169 HD
BRANCH  23  25
HETATM   25  C17 UNK     1      19.157  -0.931  33.423  1.00  0.00     0.035 A 
HETATM   26  C19 UNK     1      18.639  -0.778  34.709  1.00  0.00     0.036 A 
HETATM   27  C21 UNK     1      18.980  -1.686  35.711  1.00  0.00    -0.060 A 
HETATM   28  C23 UNK     1      19.838  -2.748  35.427  1.00  0.00     0.007 A 
HETATM   29  C24 UNK     1      18.425  -1.522  37.086  1.00  0.00     0.048 C 
HETATM   30  C22 UNK     1      20.356  -2.902  34.141  1.00  0.00     0.003 A 
HETATM   31  C20 UNK     1      20.015  -1.994  33.139  1.00  0.00     0.029 A 
ENDBRANCH  23  25
ENDBRANCH  20  21
ENDBRANCH   2  20
TORSDOF 5
ENDMDL
MODEL 10
REMARK VINA RESULT:      -9.2     13.929     17.205
REMARK  5 active torsions:
REMARK  status: ('A' for Active; 'I' for Inactive)
REMARK    1  A    between atoms: C5_11  and  N1_4 
REMARK    2  A    between atoms: C6_12  and  N2_5 
REMARK    3  A    between atoms: C17_23  and  N3_6 
REMARK       I    between atoms: C9_15  and  N3_6 
REMARK    4  A    between atoms: C5_11  and  C7_13 
REMARK    5  A    between atoms: C6_12  and  C9_15 
ROOT
HETATM    1  N1  UNK     1      32.174  -6.046  35.943  1.00  0.00     0.096 N 
HETATM    2  N2  UNK     1      34.791  -6.587  34.839  1.00  0.00     0.100 N 
HETATM    3  C1  UNK     1      33.059  -4.957  35.510  1.00  0.00     0.303 C 
HETATM    4  C2  UNK     1      32.436  -7.261  35.162  1.00  0.00     0.303 C 
HETATM    5  C3  UNK     1      34.530  -5.373  35.622  1.00  0.00     0.303 C 
HETATM    6  C4  UNK     1      33.907  -7.675  35.274  1.00  0.00     0.303 C 
ENDROOT
BRANCH   1   7
HETATM    7  C5  UNK     1      30.771  -5.649  35.831  1.00  0.00     0.312 C 
BRANCH   7   8
HETATM    8  C7  UNK     1      30.089  -5.621  37.154  1.00  0.00    -0.011 A 
HETATM    9  C10 UNK     1      30.124  -4.529  37.930  1.00  0.00     0.092 A 
HETATM   10  C13 UNK     1      29.465  -4.454  39.245  1.00  0.00     0.288 A 
HETATM   11  O1  UNK     1      28.787  -5.587  39.666  1.00  0.00    -0.275 OA
HETATM   12  O3  UNK     1      29.520  -3.437  39.927  1.00  0.00    -0.260 OA
HETATM   13  C11 UNK     1      28.732  -6.751  38.873  1.00  0.00     0.090 A 
HETATM   14  C8  UNK     1      29.361  -6.806  37.628  1.00  0.00     0.006 A 
HETATM   15  C14 UNK     1      28.020  -7.832  39.398  1.00  0.00     0.045 A 
HETATM   16  C12 UNK     1      29.260  -8.001  36.902  1.00  0.00     0.015 A 
HETATM   17  C16 UNK     1      28.551  -9.092  37.414  1.00  0.00     0.007 A 
HETATM   18  C15 UNK     1      27.932  -9.008  38.660  1.00  0.00    -0.059 A 
HETATM   19  C18 UNK     1      27.178 -10.175  39.201  1.00  0.00     0.048 C 
ENDBRANCH   7   8
ENDBRANCH   1   7
BRANCH   2  20
HETATM   20  C6  UNK     1      36.194  -6.983  34.949  1.00  0.00     0.375 C 
BRANCH  20  21
HETATM   21  C9  UNK     1      36.580  -7.814  33.738  1.00  0.00     0.250 C 
HETATM   22  O2  UNK     1      36.554  -7.369  32.595  1.00  0.00    -0.271 OA
HETATM   23  N3  UNK     1      36.954  -9.096  34.134  1.00  0.00    -0.326 N 
HETATM   24  H15 UNK     1      36.919  -9.314  35.127  1.00  0.00     0.169 HD
BRANCH  23  25
HETATM   25  C17 UNK     1      37.379 -10.165  33.309  1.00  0.00     0.035 A 
HETATM   26  C19 UNK     1      38.637 -10.126  32.708  1.00  0.00     0.036 A 
HETATM   27  C21 UNK     1      39.054 -11.179  31.895  1.00  0.00    -0.060 A 
HETATM   28  C23 UNK     1      38.214 -12.271  31.683  1.00  0.00     0.007 A 
HETATM   29  C24 UNK     1      40.400 -11.137  31.252  1.00  0.00     0.048 C 
HETATM   30  C22 UNK     1      36.956 -12.311  32.284  1.00  0.00     0.003 A 
HETATM   31  C20 UNK     1      36.538 -11.258  33.097  1.00  0.00     0.029 A 
ENDBRANCH  23  25
ENDBRANCH  20  21
ENDBRANCH   2  20
TORSDOF 5
ENDMDL
