MODEL 1
REMARK VINA RESULT:      -8.6      0.000      0.000
REMARK  4 active torsions:
REMARK  status: ('A' for Active; 'I' for Inactive)
REMARK    1  A    between atoms: C12_17  and  O3_3 
REMARK    2  A    between atoms: C16_21  and  O3_3 
REMARK    3  A    between atoms: C1_6  and  N1_5 
REMARK       I    between atoms: C6_11  and  N1_5 
REMARK    4  A    between atoms: C6_11  and  C7_12 
ROOT
HETATM    1  O2  UNK     1      18.758   0.775  32.548  1.00  0.00    -0.271 OA
HETATM    2  O4  UNK     1      17.973   2.766  33.344  1.00  0.00    -0.259 OA
HETATM    3  C7  UNK     1      18.765   2.753  31.112  1.00  0.00     0.108 A 
HETATM    4  C8  UNK     1      19.299   2.053  30.104  1.00  0.00     0.037 A 
HETATM    5  C9  UNK     1      19.599   0.639  30.271  1.00  0.00     0.002 A 
HETATM    6  C10 UNK     1      18.462   2.128  32.419  1.00  0.00     0.304 A 
HETATM    7  C11 UNK     1      19.321   0.032  31.491  1.00  0.00     0.123 A 
HETATM    8  C12 UNK     1      19.584  -1.318  31.716  1.00  0.00     0.103 A 
HETATM    9  C13 UNK     1      20.157  -0.129  29.247  1.00  0.00     0.014 A 
HETATM   10  C14 UNK     1      20.140  -2.078  30.689  1.00  0.00     0.040 A 
HETATM   11  C15 UNK     1      20.427  -1.485  29.458  1.00  0.00     0.004 A 
ENDROOT
BRANCH   3  12
HETATM   12  C6  UNK     1      18.500   4.172  30.846  1.00  0.00     0.258 C 
HETATM   13  O1  UNK     1      18.766   4.672  29.755  1.00  0.00    -0.267 OA
HETATM   14  N1  UNK     1      17.945   4.828  31.932  1.00  0.00    -0.352 N 
HETATM   15  H10 UNK     1      17.773   4.321  32.795  1.00  0.00     0.163 HD
BRANCH  14  16
HETATM   16  C1  UNK     1      17.598   6.227  31.911  1.00  0.00     0.084 C 
HETATM   17  C2  UNK     1      18.745   7.097  32.412  1.00  0.00     0.025 C 
HETATM   18  C4  UNK     1      18.636   7.037  33.933  1.00  0.00     0.002 C 
HETATM   19  C5  UNK     1      17.172   6.727  34.241  1.00  0.00     0.002 C 
HETATM   20  C3  UNK     1      16.477   6.550  32.892  1.00  0.00     0.025 C 
ENDBRANCH  14  16
ENDBRANCH   3  12
BRANCH   8  21
HETATM   21  O3  UNK     1      19.306  -1.899  32.914  1.00  0.00    -0.349 OA
BRANCH  21  22
HETATM   22  C16 UNK     1      20.398  -2.489  33.618  1.00  0.00     0.171 C 
HETATM   23  C17 UNK     1      20.145  -2.372  35.107  1.00  0.00     0.034 C 
ENDBRANCH  21  22
ENDBRANCH   8  21
TORSDOF 4
ENDMDL
MODEL 2
REMARK VINA RESULT:      -8.5      2.082      3.655
REMARK  4 active torsions:
REMARK  status: ('A' for Active; 'I' for Inactive)
REMARK    1  A    between atoms: C12_17  and  O3_3 
REMARK    2  A    between atoms: C16_21  and  O3_3 
REMARK    3  A    between atoms: C1_6  and  N1_5 
REMARK       I    between atoms: C6_11  and  N1_5 
REMARK    4  A    between atoms: C6_11  and  C7_12 
ROOT
HETATM    1  O2  UNK     1      18.254   1.772  32.295  1.00  0.00    -0.271 OA
HETATM    2  O4  UNK     1      18.101   3.682  31.053  1.00  0.00    -0.259 OA
HETATM    3  C7  UNK     1      18.246   3.952  33.402  1.00  0.00     0.108 A 
HETATM    4  C8  UNK     1      18.347   3.373  34.604  1.00  0.00     0.037 A 
HETATM    5  C9  UNK     1      18.408   1.924  34.717  1.00  0.00     0.002 A 
HETATM    6  C10 UNK     1      18.193   3.155  32.155  1.00  0.00     0.304 A 
HETATM    7  C11 UNK     1      18.360   1.156  33.558  1.00  0.00     0.123 A 
HETATM    8  C12 UNK     1      18.415  -0.236  33.597  1.00  0.00     0.103 A 
HETATM    9  C13 UNK     1      18.512   1.278  35.950  1.00  0.00     0.014 A 
HETATM   10  C14 UNK     1      18.519  -0.873  34.832  1.00  0.00     0.040 A 
HETATM   11  C15 UNK     1      18.567  -0.119  36.006  1.00  0.00     0.004 A 
ENDROOT
BRANCH   3  12
HETATM   12  C6  UNK     1      18.191   5.419  33.392  1.00  0.00     0.258 C 
HETATM   13  O1  UNK     1      19.142   6.090  33.788  1.00  0.00    -0.267 OA
HETATM   14  N1  UNK     1      16.991   5.909  32.905  1.00  0.00    -0.352 N 
HETATM   15  H10 UNK     1      16.264   5.265  32.612  1.00  0.00     0.163 HD
BRANCH  14  16
HETATM   16  C1  UNK     1      16.703   7.317  32.801  1.00  0.00     0.084 C 
HETATM   17  C2  UNK     1      16.021   7.846  34.057  1.00  0.00     0.025 C 
HETATM   18  C4  UNK     1      14.550   7.477  33.880  1.00  0.00     0.002 C 
HETATM   19  C5  UNK     1      14.320   7.365  32.373  1.00  0.00     0.002 C 
HETATM   20  C3  UNK     1      15.676   7.609  31.712  1.00  0.00     0.025 C 
ENDBRANCH  14  16
ENDBRANCH   3  12
BRANCH   8  21
HETATM   21  O3  UNK     1      18.367  -0.974  32.456  1.00  0.00    -0.349 OA
BRANCH  21  22
HETATM   22  C16 UNK     1      19.572  -1.625  32.053  1.00  0.00     0.171 C 
HETATM   23  C17 UNK     1      20.183  -0.858  30.898  1.00  0.00     0.034 C 
ENDBRANCH  21  22
ENDBRANCH   8  21
TORSDOF 4
ENDMDL
MODEL 3
REMARK VINA RESULT:      -8.4      2.522      4.257
REMARK  4 active torsions:
REMARK  status: ('A' for Active; 'I' for Inactive)
REMARK    1  A    between atoms: C12_17  and  O3_3 
REMARK    2  A    between atoms: C16_21  and  O3_3 
REMARK    3  A    between atoms: C1_6  and  N1_5 
REMARK       I    between atoms: C6_11  and  N1_5 
REMARK    4  A    between atoms: C6_11  and  C7_12 
ROOT
HETATM    1  O2  UNK     1      18.786  -0.413  34.221  1.00  0.00    -0.271 OA
HETATM    2  O4  UNK     1      19.008   0.307  32.065  1.00  0.00    -0.259 OA
HETATM    3  C7  UNK     1      18.169   1.878  33.628  1.00  0.00     0.108 A 
HETATM    4  C8  UNK     1      17.817   2.139  34.892  1.00  0.00     0.037 A 
HETATM    5  C9  UNK     1      17.934   1.110  35.914  1.00  0.00     0.002 A 
HETATM    6  C10 UNK     1      18.684   0.550  33.222  1.00  0.00     0.304 A 
HETATM    7  C11 UNK     1      18.416  -0.144  35.554  1.00  0.00     0.123 A 
HETATM    8  C12 UNK     1      18.553  -1.172  36.485  1.00  0.00     0.103 A 
HETATM    9  C13 UNK     1      17.577   1.340  37.244  1.00  0.00     0.014 A 
HETATM   10  C14 UNK     1      18.195  -0.935  37.810  1.00  0.00     0.040 A 
HETATM   11  C15 UNK     1      17.708   0.317  38.190  1.00  0.00     0.004 A 
ENDROOT
BRANCH   3  12
HETATM   12  C6  UNK     1      18.015   2.979  32.670  1.00  0.00     0.258 C 
HETATM   13  O1  UNK     1      17.638   2.768  31.519  1.00  0.00    -0.267 OA
HETATM   14  N1  UNK     1      18.337   4.212  33.211  1.00  0.00    -0.352 N 
HETATM   15  H10 UNK     1      18.649   4.275  34.175  1.00  0.00     0.163 HD
BRANCH  14  16
HETATM   16  C1  UNK     1      18.265   5.441  32.463  1.00  0.00     0.084 C 
HETATM   17  C2  UNK     1      19.588   5.758  31.774  1.00  0.00     0.025 C 
HETATM   18  C4  UNK     1      20.441   6.406  32.860  1.00  0.00     0.002 C 
HETATM   19  C5  UNK     1      19.460   7.014  33.863  1.00  0.00     0.002 C 
HETATM   20  C3  UNK     1      18.061   6.649  33.370  1.00  0.00     0.025 C 
ENDBRANCH  14  16
ENDBRANCH   3  12
BRANCH   8  21
HETATM   21  O3  UNK     1      19.026  -2.393  36.119  1.00  0.00    -0.349 OA
BRANCH  21  22
HETATM   22  C16 UNK     1      20.377  -2.696  36.464  1.00  0.00     0.171 C 
HETATM   23  C17 UNK     1      20.405  -3.980  37.268  1.00  0.00     0.034 C 
ENDBRANCH  21  22
ENDBRANCH   8  21
TORSDOF 4
ENDMDL
MODEL 4
REMARK VINA RESULT:      -8.4      3.763      8.244
REMARK  4 active torsions:
REMARK  status: ('A' for Active; 'I' for Inactive)
REMARK    1  A    between atoms: C12_17  and  O3_3 
REMARK    2  A    between atoms: C16_21  and  O3_3 
REMARK    3  A    between atoms: C1_6  and  N1_5 
REMARK       I    between atoms: C6_11  and  N1_5 
REMARK    4  A    between atoms: C6_11  and  C7_12 
ROOT
HETATM    1  O2  UNK     1      18.997  -0.436  33.340  1.00  0.00    -0.271 OA
HETATM    2  O4  UNK     1      18.684  -0.755  35.580  1.00  0.00    -0.259 OA
HETATM    3  C7  UNK     1      19.957  -2.397  34.441  1.00  0.00     0.108 A 
HETATM    4  C8  UNK     1      20.482  -2.822  33.286  1.00  0.00     0.037 A 
HETATM    5  C9  UNK     1      20.286  -2.056  32.065  1.00  0.00     0.002 A 
HETATM    6  C10 UNK     1      19.166  -1.147  34.524  1.00  0.00     0.304 A 
HETATM    7  C11 UNK     1      19.547  -0.879  32.121  1.00  0.00     0.123 A 
HETATM    8  C12 UNK     1      19.324  -0.100  30.988  1.00  0.00     0.103 A 
HETATM    9  C13 UNK     1      20.815  -2.464  30.839  1.00  0.00     0.014 A 
HETATM   10  C14 UNK     1      19.855  -0.512  29.767  1.00  0.00     0.040 A 
HETATM   11  C15 UNK     1      20.599  -1.691  29.692  1.00  0.00     0.004 A 
ENDROOT
BRANCH   3  12
HETATM   12  C6  UNK     1      20.209  -3.238  35.617  1.00  0.00     0.258 C 
HETATM   13  O1  UNK     1      21.013  -2.892  36.481  1.00  0.00    -0.267 OA
HETATM   14  N1  UNK     1      19.464  -4.404  35.615  1.00  0.00    -0.352 N 
HETATM   15  H10 UNK     1      18.833  -4.599  34.844  1.00  0.00     0.163 HD
BRANCH  14  16
HETATM   16  C1  UNK     1      19.542  -5.389  36.664  1.00  0.00     0.084 C 
HETATM   17  C2  UNK     1      20.649  -6.404  36.401  1.00  0.00     0.025 C 
HETATM   18  C4  UNK     1      20.027  -7.407  35.433  1.00  0.00     0.002 C 
HETATM   19  C5  UNK     1      18.518  -7.344  35.669  1.00  0.00     0.002 C 
HETATM   20  C3  UNK     1      18.292  -6.260  36.722  1.00  0.00     0.025 C 
ENDBRANCH  14  16
ENDBRANCH   3  12
BRANCH   8  21
HETATM   21  O3  UNK     1      18.600   1.050  31.056  1.00  0.00    -0.349 OA
BRANCH  21  22
HETATM   22  C16 UNK     1      18.935   2.085  30.133  1.00  0.00     0.171 C 
HETATM   23  C17 UNK     1      17.894   2.122  29.034  1.00  0.00     0.034 C 
ENDBRANCH  21  22
ENDBRANCH   8  21
TORSDOF 4
ENDMDL
MODEL 5
REMARK VINA RESULT:      -8.2      1.368      1.811
REMARK  4 active torsions:
REMARK  status: ('A' for Active; 'I' for Inactive)
REMARK    1  A    between atoms: C12_17  and  O3_3 
REMARK    2  A    between atoms: C16_21  and  O3_3 
REMARK    3  A    between atoms: C1_6  and  N1_5 
REMARK       I    between atoms: C6_11  and  N1_5 
REMARK    4  A    between atoms: C6_11  and  C7_12 
ROOT
HETATM    1  O2  UNK     1      18.951   0.024  32.487  1.00  0.00    -0.271 OA
HETATM    2  O4  UNK     1      18.014   2.101  32.640  1.00  0.00    -0.259 OA
HETATM    3  C7  UNK     1      19.009   1.535  30.565  1.00  0.00     0.108 A 
HETATM    4  C8  UNK     1      19.662   0.624  29.834  1.00  0.00     0.037 A 
HETATM    5  C9  UNK     1      20.002  -0.669  30.407  1.00  0.00     0.002 A 
HETATM    6  C10 UNK     1      18.612   1.270  31.967  1.00  0.00     0.304 A 
HETATM    7  C11 UNK     1      19.639  -0.939  31.722  1.00  0.00     0.123 A 
HETATM    8  C12 UNK     1      19.935  -2.158  32.329  1.00  0.00     0.103 A 
HETATM    9  C13 UNK     1      20.684  -1.648  29.680  1.00  0.00     0.014 A 
HETATM   10  C14 UNK     1      20.615  -3.130  31.598  1.00  0.00     0.040 A 
HETATM   11  C15 UNK     1      20.988  -2.876  30.277  1.00  0.00     0.004 A 
ENDROOT
BRANCH   3  12
HETATM   12  C6  UNK     1      18.710   2.809  29.900  1.00  0.00     0.258 C 
HETATM   13  O1  UNK     1      18.132   2.835  28.815  1.00  0.00    -0.267 OA
HETATM   14  N1  UNK     1      19.147   3.907  30.619  1.00  0.00    -0.352 N 
HETATM   15  H10 UNK     1      19.626   3.774  31.504  1.00  0.00     0.163 HD
BRANCH  14  16
HETATM   16  C1  UNK     1      18.969   5.264  30.166  1.00  0.00     0.084 C 
HETATM   17  C2  UNK     1      20.297   6.006  30.077  1.00  0.00     0.025 C 
HETATM   18  C4  UNK     1      20.578   6.463  31.506  1.00  0.00     0.002 C 
HETATM   19  C5  UNK     1      19.217   6.563  32.194  1.00  0.00     0.002 C 
HETATM   20  C3  UNK     1      18.182   6.100  31.169  1.00  0.00     0.025 C 
ENDBRANCH  14  16
ENDBRANCH   3  12
BRANCH   8  21
HETATM   21  O3  UNK     1      19.573  -2.409  33.616  1.00  0.00    -0.349 OA
BRANCH  21  22
HETATM   22  C16 UNK     1      20.612  -2.415  34.594  1.00  0.00     0.171 C 
HETATM   23  C17 UNK     1      20.045  -1.950  35.919  1.00  0.00     0.034 C 
ENDBRANCH  21  22
ENDBRANCH   8  21
TORSDOF 4
ENDMDL
MODEL 6
REMARK VINA RESULT:      -8.2      4.209      9.481
REMARK  4 active torsions:
REMARK  status: ('A' for Active; 'I' for Inactive)
REMARK    1  A    between atoms: C12_17  and  O3_3 
REMARK    2  A    between atoms: C16_21  and  O3_3 
REMARK    3  A    between atoms: C1_6  and  N1_5 
REMARK       I    between atoms: C6_11  and  N1_5 
REMARK    4  A    between atoms: C6_11  and  C7_12 
ROOT
HETATM    1  O2  UNK     1      19.385  -0.809  34.607  1.00  0.00    -0.271 OA
HETATM    2  O4  UNK     1      20.568  -2.632  33.907  1.00  0.00    -0.259 OA
HETATM    3  C7  UNK     1      19.741  -2.692  36.126  1.00  0.00     0.108 A 
HETATM    4  C8  UNK     1      19.058  -2.074  37.096  1.00  0.00     0.037 A 
HETATM    5  C9  UNK     1      18.488  -0.755  36.866  1.00  0.00     0.002 A 
HETATM    6  C10 UNK     1      19.943  -2.069  34.797  1.00  0.00     0.304 A 
HETATM    7  C11 UNK     1      18.665  -0.153  35.626  1.00  0.00     0.123 A 
HETATM    8  C12 UNK     1      18.144   1.108  35.341  1.00  0.00     0.103 A 
HETATM    9  C13 UNK     1      17.769  -0.074  37.851  1.00  0.00     0.014 A 
HETATM   10  C14 UNK     1      17.427   1.781  36.328  1.00  0.00     0.040 A 
HETATM   11  C15 UNK     1      17.240   1.193  37.580  1.00  0.00     0.004 A 
ENDROOT
BRANCH   3  12
HETATM   12  C6  UNK     1      20.278  -4.018  36.454  1.00  0.00     0.258 C 
HETATM   13  O1  UNK     1      21.188  -4.148  37.270  1.00  0.00    -0.267 OA
HETATM   14  N1  UNK     1      19.656  -5.038  35.755  1.00  0.00    -0.352 N 
HETATM   15  H10 UNK     1      18.918  -4.820  35.093  1.00  0.00     0.163 HD
BRANCH  14  16
HETATM   16  C1  UNK     1      20.012  -6.426  35.908  1.00  0.00     0.084 C 
HETATM   17  C2  UNK     1      19.224  -7.317  34.955  1.00  0.00     0.025 C 
HETATM   18  C4  UNK     1      17.882  -7.530  35.650  1.00  0.00     0.002 C 
HETATM   19  C5  UNK     1      18.145  -7.346  37.145  1.00  0.00     0.002 C 
HETATM   20  C3  UNK     1      19.619  -6.967  37.278  1.00  0.00     0.025 C 
ENDBRANCH  14  16
ENDBRANCH   3  12
BRANCH   8  21
HETATM   21  O3  UNK     1      18.324   1.685  34.123  1.00  0.00    -0.349 OA
BRANCH  21  22
HETATM   22  C16 UNK     1      18.277   3.111  34.066  1.00  0.00     0.171 C 
HETATM   23  C17 UNK     1      18.166   3.543  32.619  1.00  0.00     0.034 C 
ENDBRANCH  21  22
ENDBRANCH   8  21
TORSDOF 4
ENDMDL
MODEL 7
REMARK VINA RESULT:      -7.9     22.995     24.847
REMARK  4 active torsions:
REMARK  status: ('A' for Active; 'I' for Inactive)
REMARK    1  A    between atoms: C12_17  and  O3_3 
REMARK    2  A    between atoms: C16_21  and  O3_3 
REMARK    3  A    between atoms: C1_6  and  N1_5 
REMARK       I    between atoms: C6_11  and  N1_5 
REMARK    4  A    between atoms: C6_11  and  C7_12 
ROOT
HETATM    1  O2  UNK     1      10.683   5.428   9.264  1.00  0.00    -0.271 OA
HETATM    2  O4  UNK     1      12.290   5.086  10.850  1.00  0.00    -0.259 OA
HETATM    3  C7  UNK     1      13.017   5.967   8.774  1.00  0.00     0.108 A 
HETATM    4  C8  UNK     1      12.692   6.374   7.541  1.00  0.00     0.037 A 
HETATM    5  C9  UNK     1      11.309   6.327   7.093  1.00  0.00     0.002 A 
HETATM    6  C10 UNK     1      11.997   5.460   9.720  1.00  0.00     0.304 A 
HETATM    7  C11 UNK     1      10.335   5.854   7.966  1.00  0.00     0.123 A 
HETATM    8  C12 UNK     1       8.992   5.785   7.599  1.00  0.00     0.103 A 
HETATM    9  C13 UNK     1      10.926   6.740   5.815  1.00  0.00     0.014 A 
HETATM   10  C14 UNK     1       8.618   6.199   6.323  1.00  0.00     0.040 A 
HETATM   11  C15 UNK     1       9.582   6.676   5.433  1.00  0.00     0.004 A 
ENDROOT
BRANCH   3  12
HETATM   12  C6  UNK     1      14.437   6.052   9.132  1.00  0.00     0.258 C 
HETATM   13  O1  UNK     1      15.277   5.361   8.558  1.00  0.00    -0.267 OA
HETATM   14  N1  UNK     1      14.683   6.961  10.147  1.00  0.00    -0.352 N 
HETATM   15  H10 UNK     1      13.913   7.475  10.562  1.00  0.00     0.163 HD
BRANCH  14  16
HETATM   16  C1  UNK     1      16.001   7.216  10.670  1.00  0.00     0.084 C 
HETATM   17  C2  UNK     1      15.963   8.202  11.832  1.00  0.00     0.025 C 
HETATM   18  C4  UNK     1      15.901   9.575  11.169  1.00  0.00     0.002 C 
HETATM   19  C5  UNK     1      16.534   9.407   9.788  1.00  0.00     0.002 C 
HETATM   20  C3  UNK     1      16.889   7.927   9.655  1.00  0.00     0.025 C 
ENDBRANCH  14  16
ENDBRANCH   3  12
BRANCH   8  21
HETATM   21  O3  UNK     1       8.050   5.321   8.464  1.00  0.00    -0.349 OA
BRANCH  21  22
HETATM   22  C16 UNK     1       7.477   6.265   9.368  1.00  0.00     0.171 C 
HETATM   23  C17 UNK     1       7.370   5.631  10.739  1.00  0.00     0.034 C 
ENDBRANCH  21  22
ENDBRANCH   8  21
TORSDOF 4
ENDMDL
MODEL 8
REMARK VINA RESULT:      -7.7      5.583      8.260
REMARK  4 active torsions:
REMARK  status: ('A' for Active; 'I' for Inactive)
REMARK    1  A    between atoms: C12_17  and  O3_3 
REMARK    2  A    between atoms: C16_21  and  O3_3 
REMARK    3  A    between atoms: C1_6  and  N1_5 
REMARK       I    between atoms: C6_11  and  N1_5 
REMARK    4  A    between atoms: C6_11  and  C7_12 
ROOT
HETATM    1  O2  UNK     1      20.393  -5.149  38.006  1.00  0.00    -0.271 OA
HETATM    2  O4  UNK     1      20.252  -2.871  38.087  1.00  0.00    -0.259 OA
HETATM    3  C7  UNK     1      20.091  -3.869  35.945  1.00  0.00     0.108 A 
HETATM    4  C8  UNK     1      20.087  -4.992  35.216  1.00  0.00     0.037 A 
HETATM    5  C9  UNK     1      20.241  -6.286  35.863  1.00  0.00     0.002 A 
HETATM    6  C10 UNK     1      20.249  -3.897  37.417  1.00  0.00     0.304 A 
HETATM    7  C11 UNK     1      20.391  -6.335  37.244  1.00  0.00     0.123 A 
HETATM    8  C12 UNK     1      20.542  -7.542  37.924  1.00  0.00     0.103 A 
HETATM    9  C13 UNK     1      20.244  -7.482  35.141  1.00  0.00     0.014 A 
HETATM   10  C14 UNK     1      20.543  -8.731  37.197  1.00  0.00     0.040 A 
HETATM   11  C15 UNK     1      20.395  -8.701  35.809  1.00  0.00     0.004 A 
ENDROOT
BRANCH   3  12
HETATM   12  C6  UNK     1      19.929  -2.614  35.202  1.00  0.00     0.258 C 
HETATM   13  O1  UNK     1      20.785  -2.236  34.404  1.00  0.00    -0.267 OA
HETATM   14  N1  UNK     1      18.752  -1.954  35.510  1.00  0.00    -0.352 N 
HETATM   15  H10 UNK     1      18.115  -2.349  36.195  1.00  0.00     0.163 HD
BRANCH  14  16
HETATM   16  C1  UNK     1      18.375  -0.699  34.909  1.00  0.00     0.084 C 
HETATM   17  C2  UNK     1      18.855   0.487  35.737  1.00  0.00     0.025 C 
HETATM   18  C4  UNK     1      17.807   0.638  36.837  1.00  0.00     0.002 C 
HETATM   19  C5  UNK     1      16.518   0.035  36.278  1.00  0.00     0.002 C 
HETATM   20  C3  UNK     1      16.862  -0.508  34.893  1.00  0.00     0.025 C 
ENDBRANCH  14  16
ENDBRANCH   3  12
BRANCH   8  21
HETATM   21  O3  UNK     1      20.686  -7.575  39.276  1.00  0.00    -0.349 OA
BRANCH  21  22
HETATM   22  C16 UNK     1      21.888  -8.150  39.787  1.00  0.00     0.171 C 
HETATM   23  C17 UNK     1      23.040  -7.203  39.521  1.00  0.00     0.034 C 
ENDBRANCH  21  22
ENDBRANCH   8  21
TORSDOF 4
ENDMDL
MODEL 9
REMARK VINA RESULT:      -7.7     23.247     25.027
REMARK  4 active torsions:
REMARK  status: ('A' for Active; 'I' for Inactive)
REMARK    1  A    between atoms: C12_17  and  O3_3 
REMARK    2  A    between atoms: C16_21  and  O3_3 
REMARK    3  A    between atoms: C1_6  and  N1_5 
REMARK       I    between atoms: C6_11  and  N1_5 
REMARK    4  A    between atoms: C6_11  and  C7_12 
ROOT
HETATM    1  O2  UNK     1      11.051   7.352   9.592  1.00  0.00    -0.271 OA
HETATM    2  O4  UNK     1      12.634   8.079  11.069  1.00  0.00    -0.259 OA
HETATM    3  C7  UNK     1      13.372   7.606   8.867  1.00  0.00     0.108 A 
HETATM    4  C8  UNK     1      13.060   7.197   7.632  1.00  0.00     0.037 A 
HETATM    5  C9  UNK     1      11.690   6.834   7.304  1.00  0.00     0.002 A 
HETATM    6  C10 UNK     1      12.352   7.705   9.936  1.00  0.00     0.304 A 
HETATM    7  C11 UNK     1      10.716   6.920   8.293  1.00  0.00     0.123 A 
HETATM    8  C12 UNK     1       9.386   6.587   8.043  1.00  0.00     0.103 A 
HETATM    9  C13 UNK     1      11.320   6.401   6.029  1.00  0.00     0.014 A 
HETATM   10  C14 UNK     1       9.025   6.157   6.768  1.00  0.00     0.040 A 
HETATM   11  C15 UNK     1       9.989   6.063   5.763  1.00  0.00     0.004 A 
ENDROOT
BRANCH   3  12
HETATM   12  C6  UNK     1      14.780   7.950   9.101  1.00  0.00     0.258 C 
HETATM   13  O1  UNK     1      15.600   7.085   9.405  1.00  0.00    -0.267 OA
HETATM   14  N1  UNK     1      15.037   9.300   8.944  1.00  0.00    -0.352 N 
HETATM   15  H10 UNK     1      14.282   9.934   8.700  1.00  0.00     0.163 HD
BRANCH  14  16
HETATM   16  C1  UNK     1      16.346   9.877   9.123  1.00  0.00     0.084 C 
HETATM   17  C2  UNK     1      16.601  10.250  10.578  1.00  0.00     0.025 C 
HETATM   18  C4  UNK     1      15.922  11.606  10.752  1.00  0.00     0.002 C 
HETATM   19  C5  UNK     1      15.883  12.241   9.362  1.00  0.00     0.002 C 
HETATM   20  C3  UNK     1      16.482  11.214   8.403  1.00  0.00     0.025 C 
ENDBRANCH  14  16
ENDBRANCH   3  12
BRANCH   8  21
HETATM   21  O3  UNK     1       8.443   6.677   9.019  1.00  0.00    -0.349 OA
BRANCH  21  22
HETATM   22  C16 UNK     1       7.658   5.512   9.273  1.00  0.00     0.171 C 
HETATM   23  C17 UNK     1       8.440   4.575  10.169  1.00  0.00     0.034 C 
ENDBRANCH  21  22
ENDBRANCH   8  21
TORSDOF 4
ENDMDL
MODEL 10
REMARK VINA RESULT:      -7.7      5.978      9.166
REMARK  4 active torsions:
REMARK  status: ('A' for Active; 'I' for Inactive)
REMARK    1  A    between atoms: C12_17  and  O3_3 
REMARK    2  A    between atoms: C16_21  and  O3_3 
REMARK    3  A    between atoms: C1_6  and  N1_5 
REMARK       I    between atoms: C6_11  and  N1_5 
REMARK    4  A    between atoms: C6_11  and  C7_12 
ROOT
HETATM    1  O2  UNK     1      20.183  -6.775  35.678  1.00  0.00    -0.271 OA
HETATM    2  O4  UNK     1      20.326  -5.126  34.105  1.00  0.00    -0.259 OA
HETATM    3  C7  UNK     1      20.267  -4.432  36.370  1.00  0.00     0.108 A 
HETATM    4  C8  UNK     1      20.197  -4.782  37.660  1.00  0.00     0.037 A 
HETATM    5  C9  UNK     1      20.114  -6.184  38.035  1.00  0.00     0.002 A 
HETATM    6  C10 UNK     1      20.262  -5.442  35.287  1.00  0.00     0.304 A 
HETATM    7  C11 UNK     1      20.109  -7.150  37.035  1.00  0.00     0.123 A 
HETATM    8  C12 UNK     1      20.032  -8.510  37.328  1.00  0.00     0.103 A 
HETATM    9  C13 UNK     1      20.039  -6.594  39.369  1.00  0.00     0.014 A 
HETATM   10  C14 UNK     1      19.957  -8.911  38.661  1.00  0.00     0.040 A 
HETATM   11  C15 UNK     1      19.961  -7.955  39.679  1.00  0.00     0.004 A 
ENDROOT
BRANCH   3  12
HETATM   12  C6  UNK     1      20.348  -2.993  36.091  1.00  0.00     0.258 C 
HETATM   13  O1  UNK     1      21.410  -2.385  36.208  1.00  0.00    -0.267 OA
HETATM   14  N1  UNK     1      19.134  -2.450  35.705  1.00  0.00    -0.352 N 
HETATM   15  H10 UNK     1      18.311  -3.042  35.650  1.00  0.00     0.163 HD
BRANCH  14  16
HETATM   16  C1  UNK     1      18.965  -1.056  35.381  1.00  0.00     0.084 C 
HETATM   17  C2  UNK     1      18.388  -0.273  36.555  1.00  0.00     0.025 C 
HETATM   18  C4  UNK     1      16.884  -0.528  36.484  1.00  0.00     0.002 C 
HETATM   19  C5  UNK     1      16.578  -0.856  35.023  1.00  0.00     0.002 C 
HETATM   20  C3  UNK     1      17.920  -0.849  34.291  1.00  0.00     0.025 C 
ENDBRANCH  14  16
ENDBRANCH   3  12
BRANCH   8  21
HETATM   21  O3  UNK     1      20.028  -9.444  36.339  1.00  0.00    -0.349 OA
BRANCH  21  22
HETATM   22  C16 UNK     1      21.008 -10.478  36.419  1.00  0.00     0.171 C 
HETATM   23  C17 UNK     1      21.824 -10.483  35.143  1.00  0.00     0.034 C 
ENDBRANCH  21  22
ENDBRANCH   8  21
TORSDOF 4
ENDMDL
