MODEL 1
REMARK VINA RESULT:      -9.2      0.000      0.000
REMARK  6 active torsions:
REMARK  status: ('A' for Active; 'I' for Inactive)
REMARK    1  A    between atoms: C15_20  and  O3_3 
REMARK    2  A    between atoms: C19_24  and  O3_3 
REMARK    3  A    between atoms: C8_13  and  N1_5 
REMARK       I    between atoms: C9_14  and  N1_5 
REMARK    4  A    between atoms: C4_9  and  C6_11 
REMARK    5  A    between atoms: C6_11  and  C8_13 
REMARK    6  A    between atoms: C10_15  and  C9_14 
ROOT
HETATM    1  O1  UNK     1      18.865   0.546  32.296  1.00  0.00    -0.271 OA
HETATM    2  O4  UNK     1      18.026   2.666  32.451  1.00  0.00    -0.259 OA
HETATM    3  C10 UNK     1      18.977   2.049  30.370  1.00  0.00     0.108 A 
HETATM    4  C11 UNK     1      19.867  -0.198  30.210  1.00  0.00     0.002 A 
HETATM    5  C12 UNK     1      19.581   1.107  29.636  1.00  0.00     0.037 A 
HETATM    6  C13 UNK     1      19.501  -0.449  31.528  1.00  0.00     0.123 A 
HETATM    7  C14 UNK     1      18.580   1.806  31.775  1.00  0.00     0.304 A 
HETATM    8  C15 UNK     1      19.747  -1.678  32.138  1.00  0.00     0.103 A 
HETATM    9  C16 UNK     1      20.497  -1.211  29.481  1.00  0.00     0.014 A 
HETATM   10  C17 UNK     1      20.375  -2.682  31.403  1.00  0.00     0.040 A 
HETATM   11  C18 UNK     1      20.750  -2.449  30.079  1.00  0.00     0.004 A 
ENDROOT
BRANCH   3  12
HETATM   12  C9  UNK     1      18.731   3.334  29.703  1.00  0.00     0.257 C 
HETATM   13  O2  UNK     1      18.060   3.392  28.675  1.00  0.00    -0.267 OA
HETATM   14  N1  UNK     1      19.326   4.400  30.353  1.00  0.00    -0.356 N 
HETATM   15  H14 UNK     1      19.883   4.244  31.187  1.00  0.00     0.162 HD
BRANCH  14  16
HETATM   16  C8  UNK     1      19.227   5.763  29.883  1.00  0.00     0.127 C 
BRANCH  16  17
HETATM   17  C6  UNK     1      18.045   6.509  30.492  1.00  0.00     0.053 C 
BRANCH  17  18
HETATM   18  C4  UNK     1      18.198   6.747  31.965  1.00  0.00    -0.082 C 
HETATM   19  C1  UNK     1      16.923   6.744  32.774  1.00  0.00     0.034 C 
HETATM   20  C2  UNK     1      17.157   6.665  34.285  1.00  0.00     0.005 C 
HETATM   21  C3  UNK     1      18.292   7.587  34.717  1.00  0.00     0.004 C 
HETATM   22  C5  UNK     1      19.591   7.233  33.994  1.00  0.00     0.027 C 
HETATM   23  C7  UNK     1      19.399   6.953  32.533  1.00  0.00    -0.024 C 
ENDBRANCH  17  18
ENDBRANCH  16  17
ENDBRANCH  14  16
ENDBRANCH   3  12
BRANCH   8  24
HETATM   24  O3  UNK     1      19.383  -1.910  33.427  1.00  0.00    -0.349 OA
BRANCH  24  25
HETATM   25  C19 UNK     1      20.329  -2.581  34.259  1.00  0.00     0.171 C 
HETATM   26  C20 UNK     1      20.078  -2.194  35.702  1.00  0.00     0.034 C 
ENDBRANCH  24  25
ENDBRANCH   8  24
TORSDOF 6
ENDMDL
MODEL 2
REMARK VINA RESULT:      -8.8      5.054     11.139
REMARK  6 active torsions:
REMARK  status: ('A' for Active; 'I' for Inactive)
REMARK    1  A    between atoms: C15_20  and  O3_3 
REMARK    2  A    between atoms: C19_24  and  O3_3 
REMARK    3  A    between atoms: C8_13  and  N1_5 
REMARK       I    between atoms: C9_14  and  N1_5 
REMARK    4  A    between atoms: C4_9  and  C6_11 
REMARK    5  A    between atoms: C6_11  and  C8_13 
REMARK    6  A    between atoms: C10_15  and  C9_14 
ROOT
HETATM    1  O1  UNK     1      19.765  -1.030  34.839  1.00  0.00    -0.271 OA
HETATM    2  O4  UNK     1      20.864  -2.822  33.944  1.00  0.00    -0.259 OA
HETATM    3  C10 UNK     1      19.789  -3.167  36.028  1.00  0.00     0.108 A 
HETATM    4  C11 UNK     1      18.625  -1.264  36.973  1.00  0.00     0.002 A 
HETATM    5  C12 UNK     1      19.054  -2.653  37.021  1.00  0.00     0.037 A 
HETATM    6  C13 UNK     1      18.990  -0.484  35.881  1.00  0.00     0.123 A 
HETATM    7  C14 UNK     1      20.191  -2.355  34.857  1.00  0.00     0.304 A 
HETATM    8  C15 UNK     1      18.613   0.853  35.775  1.00  0.00     0.103 A 
HETATM    9  C16 UNK     1      17.858  -0.686  37.988  1.00  0.00     0.014 A 
HETATM   10  C17 UNK     1      17.847   1.421  36.791  1.00  0.00     0.040 A 
HETATM   11  C18 UNK     1      17.471   0.654  37.895  1.00  0.00     0.004 A 
ENDROOT
BRANCH   3  12
HETATM   12  C9  UNK     1      20.173  -4.577  36.166  1.00  0.00     0.257 C 
HETATM   13  O2  UNK     1      21.046  -4.918  36.961  1.00  0.00    -0.267 OA
HETATM   14  N1  UNK     1      19.460  -5.413  35.326  1.00  0.00    -0.356 N 
HETATM   15  H14 UNK     1      18.772  -5.029  34.685  1.00  0.00     0.162 HD
BRANCH  14  16
HETATM   16  C8  UNK     1      19.664  -6.842  35.279  1.00  0.00     0.127 C 
BRANCH  16  17
HETATM   17  C6  UNK     1      18.553  -7.616  35.979  1.00  0.00     0.053 C 
BRANCH  17  18
HETATM   18  C4  UNK     1      19.034  -8.377  37.179  1.00  0.00    -0.082 C 
HETATM   19  C1  UNK     1      19.553  -7.547  38.328  1.00  0.00     0.034 C 
HETATM   20  C2  UNK     1      19.722  -8.338  39.628  1.00  0.00     0.005 C 
HETATM   21  C3  UNK     1      20.358  -9.699  39.367  1.00  0.00     0.004 C 
HETATM   22  C5  UNK     1      19.515 -10.521  38.392  1.00  0.00     0.027 C 
HETATM   23  C7  UNK     1      19.008  -9.720  37.228  1.00  0.00    -0.024 C 
ENDBRANCH  17  18
ENDBRANCH  16  17
ENDBRANCH  14  16
ENDBRANCH   3  12
BRANCH   8  24
HETATM   24  O3  UNK     1      18.976   1.604  34.702  1.00  0.00    -0.349 OA
BRANCH  24  25
HETATM   25  C19 UNK     1      17.944   1.978  33.789  1.00  0.00     0.171 C 
HETATM   26  C20 UNK     1      18.208   3.385  33.296  1.00  0.00     0.034 C 
ENDBRANCH  24  25
ENDBRANCH   8  24
TORSDOF 6
ENDMDL
MODEL 3
REMARK VINA RESULT:      -8.8      5.141     11.307
REMARK  6 active torsions:
REMARK  status: ('A' for Active; 'I' for Inactive)
REMARK    1  A    between atoms: C15_20  and  O3_3 
REMARK    2  A    between atoms: C19_24  and  O3_3 
REMARK    3  A    between atoms: C8_13  and  N1_5 
REMARK       I    between atoms: C9_14  and  N1_5 
REMARK    4  A    between atoms: C4_9  and  C6_11 
REMARK    5  A    between atoms: C6_11  and  C8_13 
REMARK    6  A    between atoms: C10_15  and  C9_14 
ROOT
HETATM    1  O1  UNK     1      19.620  -0.975  34.897  1.00  0.00    -0.271 OA
HETATM    2  O4  UNK     1      20.638  -2.923  34.270  1.00  0.00    -0.259 OA
HETATM    3  C10 UNK     1      19.493  -2.941  36.345  1.00  0.00     0.108 A 
HETATM    4  C11 UNK     1      18.416  -0.875  37.005  1.00  0.00     0.002 A 
HETATM    5  C12 UNK     1      18.764  -2.267  37.241  1.00  0.00     0.037 A 
HETATM    6  C13 UNK     1      18.852  -0.260  35.837  1.00  0.00     0.123 A 
HETATM    7  C14 UNK     1      19.969  -2.308  35.094  1.00  0.00     0.304 A 
HETATM    8  C15 UNK     1      18.554   1.071  35.551  1.00  0.00     0.103 A 
HETATM    9  C16 UNK     1      17.658  -0.132  37.915  1.00  0.00     0.014 A 
HETATM   10  C17 UNK     1      17.797   1.803  36.463  1.00  0.00     0.040 A 
HETATM   11  C18 UNK     1      17.350   1.204  37.642  1.00  0.00     0.004 A 
ENDROOT
BRANCH   3  12
HETATM   12  C9  UNK     1      19.792  -4.341  36.671  1.00  0.00     0.257 C 
HETATM   13  O2  UNK     1      20.949  -4.712  36.857  1.00  0.00    -0.267 OA
HETATM   14  N1  UNK     1      18.660  -5.133  36.732  1.00  0.00    -0.356 N 
HETATM   15  H14 UNK     1      17.746  -4.735  36.538  1.00  0.00     0.162 HD
BRANCH  14  16
HETATM   16  C8  UNK     1      18.702  -6.546  37.032  1.00  0.00     0.127 C 
BRANCH  16  17
HETATM   17  C6  UNK     1      18.983  -7.399  35.801  1.00  0.00     0.053 C 
BRANCH  17  18
HETATM   18  C4  UNK     1      19.880  -8.567  36.089  1.00  0.00    -0.082 C 
HETATM   19  C1  UNK     1      21.248  -8.527  35.453  1.00  0.00     0.034 C 
HETATM   20  C2  UNK     1      22.223  -9.557  36.030  1.00  0.00     0.005 C 
HETATM   21  C3  UNK     1      21.547 -10.910  36.219  1.00  0.00     0.004 C 
HETATM   22  C5  UNK     1      20.338 -10.796  37.147  1.00  0.00     0.027 C 
HETATM   23  C7  UNK     1      19.487  -9.592  36.866  1.00  0.00    -0.024 C 
ENDBRANCH  17  18
ENDBRANCH  16  17
ENDBRANCH  14  16
ENDBRANCH   3  12
BRANCH   8  24
HETATM   24  O3  UNK     1      18.987   1.658  34.404  1.00  0.00    -0.349 OA
BRANCH  24  25
HETATM   25  C19 UNK     1      17.992   2.210  33.540  1.00  0.00     0.171 C 
HETATM   26  C20 UNK     1      18.264   3.688  33.358  1.00  0.00     0.034 C 
ENDBRANCH  24  25
ENDBRANCH   8  24
TORSDOF 6
ENDMDL
MODEL 4
REMARK VINA RESULT:      -8.7      1.394      2.096
REMARK  6 active torsions:
REMARK  status: ('A' for Active; 'I' for Inactive)
REMARK    1  A    between atoms: C15_20  and  O3_3 
REMARK    2  A    between atoms: C19_24  and  O3_3 
REMARK    3  A    between atoms: C8_13  and  N1_5 
REMARK       I    between atoms: C9_14  and  N1_5 
REMARK    4  A    between atoms: C4_9  and  C6_11 
REMARK    5  A    between atoms: C6_11  and  C8_13 
REMARK    6  A    between atoms: C10_15  and  C9_14 
ROOT
HETATM    1  O1  UNK     1      18.691   0.867  32.724  1.00  0.00    -0.271 OA
HETATM    2  O4  UNK     1      17.896   2.755  33.738  1.00  0.00    -0.259 OA
HETATM    3  C10 UNK     1      18.574   2.967  31.478  1.00  0.00     0.108 A 
HETATM    4  C11 UNK     1      19.416   0.965  30.407  1.00  0.00     0.002 A 
HETATM    5  C12 UNK     1      19.073   2.378  30.385  1.00  0.00     0.037 A 
HETATM    6  C13 UNK     1      19.216   0.241  31.577  1.00  0.00     0.123 A 
HETATM    7  C14 UNK     1      18.353   2.218  32.735  1.00  0.00     0.304 A 
HETATM    8  C15 UNK     1      19.525  -1.115  31.665  1.00  0.00     0.103 A 
HETATM    9  C16 UNK     1      19.941   0.308  29.290  1.00  0.00     0.014 A 
HETATM   10  C17 UNK     1      20.047  -1.762  30.546  1.00  0.00     0.040 A 
HETATM   11  C18 UNK     1      20.255  -1.052  29.362  1.00  0.00     0.004 A 
ENDROOT
BRANCH   3  12
HETATM   12  C9  UNK     1      18.258   4.396  31.358  1.00  0.00     0.257 C 
HETATM   13  O2  UNK     1      18.913   5.127  30.619  1.00  0.00    -0.267 OA
HETATM   14  N1  UNK     1      17.188   4.778  32.146  1.00  0.00    -0.356 N 
HETATM   15  H14 UNK     1      16.724   4.100  32.743  1.00  0.00     0.162 HD
BRANCH  14  16
HETATM   16  C8  UNK     1      16.693   6.135  32.199  1.00  0.00     0.127 C 
BRANCH  16  17
HETATM   17  C6  UNK     1      16.764   6.731  33.600  1.00  0.00     0.053 C 
BRANCH  17  18
HETATM   18  C4  UNK     1      17.909   7.683  33.776  1.00  0.00    -0.082 C 
HETATM   19  C1  UNK     1      19.274   7.059  33.941  1.00  0.00     0.034 C 
HETATM   20  C2  UNK     1      20.426   8.056  33.790  1.00  0.00     0.005 C 
HETATM   21  C3  UNK     1      20.128   9.359  34.522  1.00  0.00     0.004 C 
HETATM   22  C5  UNK     1      18.843  10.002  33.998  1.00  0.00     0.027 C 
HETATM   23  C7  UNK     1      17.732   9.016  33.787  1.00  0.00    -0.024 C 
ENDBRANCH  17  18
ENDBRANCH  16  17
ENDBRANCH  14  16
ENDBRANCH   3  12
BRANCH   8  24
HETATM   24  O3  UNK     1      19.324  -1.810  32.815  1.00  0.00    -0.349 OA
BRANCH  24  25
HETATM   25  C19 UNK     1      20.454  -2.474  33.381  1.00  0.00     0.171 C 
HETATM   26  C20 UNK     1      20.322  -2.472  34.890  1.00  0.00     0.034 C 
ENDBRANCH  24  25
ENDBRANCH   8  24
TORSDOF 6
ENDMDL
MODEL 5
REMARK VINA RESULT:      -8.7      4.224      9.970
REMARK  6 active torsions:
REMARK  status: ('A' for Active; 'I' for Inactive)
REMARK    1  A    between atoms: C15_20  and  O3_3 
REMARK    2  A    between atoms: C19_24  and  O3_3 
REMARK    3  A    between atoms: C8_13  and  N1_5 
REMARK       I    between atoms: C9_14  and  N1_5 
REMARK    4  A    between atoms: C4_9  and  C6_11 
REMARK    5  A    between atoms: C6_11  and  C8_13 
REMARK    6  A    between atoms: C10_15  and  C9_14 
ROOT
HETATM    1  O1  UNK     1      18.835  -0.151  33.147  1.00  0.00    -0.271 OA
HETATM    2  O4  UNK     1      18.512  -0.432  35.392  1.00  0.00    -0.259 OA
HETATM    3  C10 UNK     1      19.856  -2.051  34.301  1.00  0.00     0.108 A 
HETATM    4  C11 UNK     1      20.195  -1.750  31.922  1.00  0.00     0.002 A 
HETATM    5  C12 UNK     1      20.408  -2.481  33.160  1.00  0.00     0.037 A 
HETATM    6  C13 UNK     1      19.414  -0.599  31.943  1.00  0.00     0.123 A 
HETATM    7  C14 UNK     1      19.019  -0.830  34.349  1.00  0.00     0.304 A 
HETATM    8  C15 UNK     1      19.171   0.147  30.792  1.00  0.00     0.103 A 
HETATM    9  C16 UNK     1      20.751  -2.163  30.707  1.00  0.00     0.014 A 
HETATM   10  C17 UNK     1      19.730  -0.273  29.586  1.00  0.00     0.040 A 
HETATM   11  C18 UNK     1      20.517  -1.425  29.544  1.00  0.00     0.004 A 
ENDROOT
BRANCH   3  12
HETATM   12  C9  UNK     1      20.128  -2.855  35.498  1.00  0.00     0.257 C 
HETATM   13  O2  UNK     1      20.662  -2.356  36.486  1.00  0.00    -0.267 OA
HETATM   14  N1  UNK     1      19.725  -4.172  35.364  1.00  0.00    -0.356 N 
HETATM   15  H14 UNK     1      19.313  -4.495  34.495  1.00  0.00     0.162 HD
BRANCH  14  16
HETATM   16  C8  UNK     1      19.892  -5.156  36.409  1.00  0.00     0.127 C 
BRANCH  16  17
HETATM   17  C6  UNK     1      18.984  -6.367  36.224  1.00  0.00     0.053 C 
BRANCH  17  18
HETATM   18  C4  UNK     1      19.242  -7.453  37.226  1.00  0.00    -0.082 C 
HETATM   19  C1  UNK     1      19.969  -7.038  38.482  1.00  0.00     0.034 C 
HETATM   20  C2  UNK     1      19.919  -8.090  39.594  1.00  0.00     0.005 C 
HETATM   21  C3  UNK     1      20.161  -9.490  39.041  1.00  0.00     0.004 C 
HETATM   22  C5  UNK     1      19.126  -9.845  37.974  1.00  0.00     0.027 C 
HETATM   23  C7  UNK     1      18.853  -8.722  37.016  1.00  0.00    -0.024 C 
ENDBRANCH  17  18
ENDBRANCH  16  17
ENDBRANCH  14  16
ENDBRANCH   3  12
BRANCH   8  24
HETATM   24  O3  UNK     1      18.406   1.269  30.828  1.00  0.00    -0.349 OA
BRANCH  24  25
HETATM   25  C19 UNK     1      18.467   2.136  29.696  1.00  0.00     0.171 C 
HETATM   26  C20 UNK     1      18.819   3.533  30.163  1.00  0.00     0.034 C 
ENDBRANCH  24  25
ENDBRANCH   8  24
TORSDOF 6
ENDMDL
MODEL 6
REMARK VINA RESULT:      -8.6      2.971      9.127
REMARK  6 active torsions:
REMARK  status: ('A' for Active; 'I' for Inactive)
REMARK    1  A    between atoms: C15_20  and  O3_3 
REMARK    2  A    between atoms: C19_24  and  O3_3 
REMARK    3  A    between atoms: C8_13  and  N1_5 
REMARK       I    between atoms: C9_14  and  N1_5 
REMARK    4  A    between atoms: C4_9  and  C6_11 
REMARK    5  A    between atoms: C6_11  and  C8_13 
REMARK    6  A    between atoms: C10_15  and  C9_14 
ROOT
HETATM    1  O1  UNK     1      16.858   8.107  33.113  1.00  0.00    -0.271 OA
HETATM    2  O4  UNK     1      15.819   6.172  32.483  1.00  0.00    -0.259 OA
HETATM    3  C10 UNK     1      18.057   5.980  33.238  1.00  0.00     0.108 A 
HETATM    4  C11 UNK     1      19.155   8.034  33.904  1.00  0.00     0.002 A 
HETATM    5  C12 UNK     1      19.151   6.593  33.705  1.00  0.00     0.037 A 
HETATM    6  C13 UNK     1      18.006   8.759  33.604  1.00  0.00     0.123 A 
HETATM    7  C14 UNK     1      16.824   6.730  32.911  1.00  0.00     0.304 A 
HETATM    8  C15 UNK     1      17.944  10.140  33.771  1.00  0.00     0.103 A 
HETATM    9  C16 UNK     1      20.275   8.716  34.387  1.00  0.00     0.014 A 
HETATM   10  C17 UNK     1      19.065  10.812  34.254  1.00  0.00     0.040 A 
HETATM   11  C18 UNK     1      20.228  10.102  34.561  1.00  0.00     0.004 A 
ENDROOT
BRANCH   3  12
HETATM   12  C9  UNK     1      18.150   4.524  33.072  1.00  0.00     0.257 C 
HETATM   13  O2  UNK     1      18.405   3.795  34.028  1.00  0.00    -0.267 OA
HETATM   14  N1  UNK     1      17.927   4.117  31.769  1.00  0.00    -0.356 N 
HETATM   15  H14 UNK     1      17.746   4.802  31.042  1.00  0.00     0.162 HD
BRANCH  14  16
HETATM   16  C8  UNK     1      17.969   2.732  31.359  1.00  0.00     0.127 C 
BRANCH  16  17
HETATM   17  C6  UNK     1      18.605   2.546  29.986  1.00  0.00     0.053 C 
BRANCH  17  18
HETATM   18  C4  UNK     1      19.157   1.167  29.776  1.00  0.00    -0.082 C 
HETATM   19  C1  UNK     1      19.792   0.515  30.981  1.00  0.00     0.034 C 
HETATM   20  C2  UNK     1      20.039  -0.985  30.806  1.00  0.00     0.005 C 
HETATM   21  C3  UNK     1      20.609  -1.294  29.426  1.00  0.00     0.004 C 
HETATM   22  C5  UNK     1      19.665  -0.815  28.323  1.00  0.00     0.027 C 
HETATM   23  C7  UNK     1      19.092   0.547  28.585  1.00  0.00    -0.024 C 
ENDBRANCH  17  18
ENDBRANCH  16  17
ENDBRANCH  14  16
ENDBRANCH   3  12
BRANCH   8  24
HETATM   24  O3  UNK     1      16.815  10.836  33.474  1.00  0.00    -0.349 OA
BRANCH  24  25
HETATM   25  C19 UNK     1      16.062  11.353  34.572  1.00  0.00     0.171 C 
HETATM   26  C20 UNK     1      14.618  10.920  34.427  1.00  0.00     0.034 C 
ENDBRANCH  24  25
ENDBRANCH   8  24
TORSDOF 6
ENDMDL
MODEL 7
REMARK VINA RESULT:      -8.5      1.954      3.534
REMARK  6 active torsions:
REMARK  status: ('A' for Active; 'I' for Inactive)
REMARK    1  A    between atoms: C15_20  and  O3_3 
REMARK    2  A    between atoms: C19_24  and  O3_3 
REMARK    3  A    between atoms: C8_13  and  N1_5 
REMARK       I    between atoms: C9_14  and  N1_5 
REMARK    4  A    between atoms: C4_9  and  C6_11 
REMARK    5  A    between atoms: C6_11  and  C8_13 
REMARK    6  A    between atoms: C10_15  and  C9_14 
ROOT
HETATM    1  O1  UNK     1      19.037  -0.446  33.315  1.00  0.00    -0.271 OA
HETATM    2  O4  UNK     1      19.320  -0.245  31.057  1.00  0.00    -0.259 OA
HETATM    3  C10 UNK     1      18.435   1.639  32.189  1.00  0.00     0.108 A 
HETATM    4  C11 UNK     1      18.135   1.421  34.582  1.00  0.00     0.002 A 
HETATM    5  C12 UNK     1      18.046   2.184  33.348  1.00  0.00     0.037 A 
HETATM    6  C13 UNK     1      18.630   0.122  34.538  1.00  0.00     0.123 A 
HETATM    7  C14 UNK     1      18.963   0.258  32.116  1.00  0.00     0.304 A 
HETATM    8  C15 UNK     1      18.741  -0.662  35.685  1.00  0.00     0.103 A 
HETATM    9  C16 UNK     1      17.740   1.949  35.815  1.00  0.00     0.014 A 
HETATM   10  C17 UNK     1      18.345  -0.127  36.909  1.00  0.00     0.040 A 
HETATM   11  C18 UNK     1      17.845   1.175  36.974  1.00  0.00     0.004 A 
ENDROOT
BRANCH   3  12
HETATM   12  C9  UNK     1      18.307   2.487  30.997  1.00  0.00     0.257 C 
HETATM   13  O2  UNK     1      17.564   2.167  30.072  1.00  0.00    -0.267 OA
HETATM   14  N1  UNK     1      19.095   3.622  31.059  1.00  0.00    -0.356 N 
HETATM   15  H14 UNK     1      19.695   3.785  31.861  1.00  0.00     0.162 HD
BRANCH  14  16
HETATM   16  C8  UNK     1      19.141   4.606  30.002  1.00  0.00     0.127 C 
BRANCH  16  17
HETATM   17  C6  UNK     1      19.843   5.891  30.427  1.00  0.00     0.053 C 
BRANCH  17  18
HETATM   18  C4  UNK     1      19.243   6.508  31.656  1.00  0.00    -0.082 C 
HETATM   19  C1  UNK     1      20.165   6.659  32.842  1.00  0.00     0.034 C 
HETATM   20  C2  UNK     1      19.611   7.574  33.937  1.00  0.00     0.005 C 
HETATM   21  C3  UNK     1      18.135   7.295  34.194  1.00  0.00     0.004 C 
HETATM   22  C5  UNK     1      17.310   7.487  32.921  1.00  0.00     0.027 C 
HETATM   23  C7  UNK     1      17.959   6.902  31.701  1.00  0.00    -0.024 C 
ENDBRANCH  17  18
ENDBRANCH  16  17
ENDBRANCH  14  16
ENDBRANCH   3  12
BRANCH   8  24
HETATM   24  O3  UNK     1      19.227  -1.930  35.626  1.00  0.00    -0.349 OA
BRANCH  24  25
HETATM   25  C19 UNK     1      19.123  -2.722  36.810  1.00  0.00     0.171 C 
HETATM   26  C20 UNK     1      20.440  -3.430  37.046  1.00  0.00     0.034 C 
ENDBRANCH  24  25
ENDBRANCH   8  24
TORSDOF 6
ENDMDL
MODEL 8
REMARK VINA RESULT:      -8.4      3.891      8.924
REMARK  6 active torsions:
REMARK  status: ('A' for Active; 'I' for Inactive)
REMARK    1  A    between atoms: C15_20  and  O3_3 
REMARK    2  A    between atoms: C19_24  and  O3_3 
REMARK    3  A    between atoms: C8_13  and  N1_5 
REMARK       I    between atoms: C9_14  and  N1_5 
REMARK    4  A    between atoms: C4_9  and  C6_11 
REMARK    5  A    between atoms: C6_11  and  C8_13 
REMARK    6  A    between atoms: C10_15  and  C9_14 
ROOT
HETATM    1  O1  UNK     1      18.765   0.797  32.757  1.00  0.00    -0.271 OA
HETATM    2  O4  UNK     1      17.979   1.030  34.889  1.00  0.00    -0.259 OA
HETATM    3  C10 UNK     1      18.875  -1.086  34.312  1.00  0.00     0.108 A 
HETATM    4  C11 UNK     1      19.707  -1.329  32.051  1.00  0.00     0.002 A 
HETATM    5  C12 UNK     1      19.443  -1.859  33.379  1.00  0.00     0.037 A 
HETATM    6  C13 UNK     1      19.362  -0.012  31.770  1.00  0.00     0.123 A 
HETATM    7  C14 UNK     1      18.499   0.319  34.037  1.00  0.00     0.304 A 
HETATM    8  C15 UNK     1      19.587   0.556  30.517  1.00  0.00     0.103 A 
HETATM    9  C16 UNK     1      20.296  -2.101  31.044  1.00  0.00     0.014 A 
HETATM   10  C17 UNK     1      20.176  -0.220  29.521  1.00  0.00     0.040 A 
HETATM   11  C18 UNK     1      20.529  -1.545  29.783  1.00  0.00     0.004 A 
ENDROOT
BRANCH   3  12
HETATM   12  C9  UNK     1      18.650  -1.710  35.623  1.00  0.00     0.257 C 
HETATM   13  O2  UNK     1      17.545  -1.667  36.159  1.00  0.00    -0.267 OA
HETATM   14  N1  UNK     1      19.785  -2.310  36.135  1.00  0.00    -0.356 N 
HETATM   15  H14 UNK     1      20.660  -2.270  35.623  1.00  0.00     0.162 HD
BRANCH  14  16
HETATM   16  C8  UNK     1      19.810  -2.985  37.412  1.00  0.00     0.127 C 
BRANCH  16  17
HETATM   17  C6  UNK     1      20.755  -4.182  37.424  1.00  0.00     0.053 C 
BRANCH  17  18
HETATM   18  C4  UNK     1      20.072  -5.472  37.077  1.00  0.00    -0.082 C 
HETATM   19  C1  UNK     1      19.858  -5.735  35.606  1.00  0.00     0.034 C 
HETATM   20  C2  UNK     1      19.463  -7.181  35.293  1.00  0.00     0.005 C 
HETATM   21  C3  UNK     1      18.425  -7.696  36.283  1.00  0.00     0.004 C 
HETATM   22  C5  UNK     1      18.951  -7.623  37.717  1.00  0.00     0.027 C 
HETATM   23  C7  UNK     1      19.671  -6.342  38.019  1.00  0.00    -0.024 C 
ENDBRANCH  17  18
ENDBRANCH  16  17
ENDBRANCH  14  16
ENDBRANCH   3  12
BRANCH   8  24
HETATM   24  O3  UNK     1      19.246   1.846  30.257  1.00  0.00    -0.349 OA
BRANCH  24  25
HETATM   25  C19 UNK     1      17.891   2.097  29.881  1.00  0.00     0.171 C 
HETATM   26  C20 UNK     1      17.787   2.068  28.370  1.00  0.00     0.034 C 
ENDBRANCH  24  25
ENDBRANCH   8  24
TORSDOF 6
ENDMDL
MODEL 9
REMARK VINA RESULT:      -8.2      2.423      4.904
REMARK  6 active torsions:
REMARK  status: ('A' for Active; 'I' for Inactive)
REMARK    1  A    between atoms: C15_20  and  O3_3 
REMARK    2  A    between atoms: C19_24  and  O3_3 
REMARK    3  A    between atoms: C8_13  and  N1_5 
REMARK       I    between atoms: C9_14  and  N1_5 
REMARK    4  A    between atoms: C4_9  and  C6_11 
REMARK    5  A    between atoms: C6_11  and  C8_13 
REMARK    6  A    between atoms: C10_15  and  C9_14 
ROOT
HETATM    1  O1  UNK     1      20.432  -2.714  34.745  1.00  0.00    -0.271 OA
HETATM    2  O4  UNK     1      21.295  -2.856  32.633  1.00  0.00    -0.259 OA
HETATM    3  C10 UNK     1      19.502  -1.339  32.950  1.00  0.00     0.108 A 
HETATM    4  C11 UNK     1      18.590  -1.192  35.189  1.00  0.00     0.002 A 
HETATM    5  C12 UNK     1      18.616  -0.793  33.790  1.00  0.00     0.037 A 
HETATM    6  C13 UNK     1      19.501  -2.144  35.635  1.00  0.00     0.123 A 
HETATM    7  C14 UNK     1      20.480  -2.354  33.401  1.00  0.00     0.304 A 
HETATM    8  C15 UNK     1      19.529  -2.570  36.961  1.00  0.00     0.103 A 
HETATM    9  C16 UNK     1      17.681  -0.651  36.102  1.00  0.00     0.014 A 
HETATM   10  C17 UNK     1      18.619  -2.024  37.864  1.00  0.00     0.040 A 
HETATM   11  C18 UNK     1      17.697  -1.067  37.436  1.00  0.00     0.004 A 
ENDROOT
BRANCH   3  12
HETATM   12  C9  UNK     1      19.451  -0.872  31.559  1.00  0.00     0.257 C 
HETATM   13  O2  UNK     1      19.636  -1.650  30.625  1.00  0.00    -0.267 OA
HETATM   14  N1  UNK     1      19.185   0.481  31.455  1.00  0.00    -0.356 N 
HETATM   15  H14 UNK     1      19.070   1.045  32.291  1.00  0.00     0.162 HD
BRANCH  14  16
HETATM   16  C8  UNK     1      19.089   1.170  30.188  1.00  0.00     0.127 C 
BRANCH  16  17
HETATM   17  C6  UNK     1      17.986   2.223  30.176  1.00  0.00     0.053 C 
BRANCH  17  18
HETATM   18  C4  UNK     1      18.418   3.532  30.767  1.00  0.00    -0.082 C 
HETATM   19  C1  UNK     1      19.145   4.474  29.838  1.00  0.00     0.034 C 
HETATM   20  C2  UNK     1      19.271   5.898  30.385  1.00  0.00     0.005 C 
HETATM   21  C3  UNK     1      19.655   5.891  31.860  1.00  0.00     0.004 C 
HETATM   22  C5  UNK     1      18.623   5.129  32.692  1.00  0.00     0.027 C 
HETATM   23  C7  UNK     1      18.175   3.848  32.051  1.00  0.00    -0.024 C 
ENDBRANCH  17  18
ENDBRANCH  16  17
ENDBRANCH  14  16
ENDBRANCH   3  12
BRANCH   8  24
HETATM   24  O3  UNK     1      20.425  -3.501  37.383  1.00  0.00    -0.349 OA
BRANCH  24  25
HETATM   25  C19 UNK     1      20.036  -4.871  37.281  1.00  0.00     0.171 C 
HETATM   26  C20 UNK     1      21.217  -5.746  37.646  1.00  0.00     0.034 C 
ENDBRANCH  24  25
ENDBRANCH   8  24
TORSDOF 6
ENDMDL
MODEL 10
REMARK VINA RESULT:      -8.2     22.804     25.339
REMARK  6 active torsions:
REMARK  status: ('A' for Active; 'I' for Inactive)
REMARK    1  A    between atoms: C15_20  and  O3_3 
REMARK    2  A    between atoms: C19_24  and  O3_3 
REMARK    3  A    between atoms: C8_13  and  N1_5 
REMARK       I    between atoms: C9_14  and  N1_5 
REMARK    4  A    between atoms: C4_9  and  C6_11 
REMARK    5  A    between atoms: C6_11  and  C8_13 
REMARK    6  A    between atoms: C10_15  and  C9_14 
ROOT
HETATM    1  O1  UNK     1      17.507   9.254   9.786  1.00  0.00    -0.271 OA
HETATM    2  O4  UNK     1      16.856   7.371  10.905  1.00  0.00    -0.259 OA
HETATM    3  C10 UNK     1      15.174   8.526   9.699  1.00  0.00     0.108 A 
HETATM    4  C11 UNK     1      15.868  10.521   8.515  1.00  0.00     0.002 A 
HETATM    5  C12 UNK     1      14.852   9.561   8.914  1.00  0.00     0.037 A 
HETATM    6  C13 UNK     1      17.174  10.345   8.960  1.00  0.00     0.123 A 
HETATM    7  C14 UNK     1      16.557   8.318  10.186  1.00  0.00     0.304 A 
HETATM    8  C15 UNK     1      18.194  11.230   8.614  1.00  0.00     0.103 A 
HETATM    9  C16 UNK     1      15.577  11.618   7.698  1.00  0.00     0.014 A 
HETATM   10  C17 UNK     1      17.894  12.319   7.799  1.00  0.00     0.040 A 
HETATM   11  C18 UNK     1      16.589  12.513   7.342  1.00  0.00     0.004 A 
ENDROOT
BRANCH   3  12
HETATM   12  C9  UNK     1      14.081   7.610  10.048  1.00  0.00     0.257 C 
HETATM   13  O2  UNK     1      13.228   7.931  10.873  1.00  0.00    -0.267 OA
HETATM   14  N1  UNK     1      14.145   6.410   9.362  1.00  0.00    -0.356 N 
HETATM   15  H14 UNK     1      14.906   6.231   8.715  1.00  0.00     0.162 HD
BRANCH  14  16
HETATM   16  C8  UNK     1      13.180   5.349   9.540  1.00  0.00     0.127 C 
BRANCH  16  17
HETATM   17  C6  UNK     1      12.671   4.791   8.216  1.00  0.00     0.053 C 
BRANCH  17  18
HETATM   18  C4  UNK     1      11.447   5.497   7.714  1.00  0.00    -0.082 C 
HETATM   19  C1  UNK     1      10.351   5.729   8.726  1.00  0.00     0.034 C 
HETATM   20  C2  UNK     1       9.284   6.722   8.257  1.00  0.00     0.005 C 
HETATM   21  C3  UNK     1       8.893   6.468   6.806  1.00  0.00     0.004 C 
HETATM   22  C5  UNK     1      10.108   6.572   5.884  1.00  0.00     0.027 C 
HETATM   23  C7  UNK     1      11.330   5.898   6.436  1.00  0.00    -0.024 C 
ENDBRANCH  17  18
ENDBRANCH  16  17
ENDBRANCH  14  16
ENDBRANCH   3  12
BRANCH   8  24
HETATM   24  O3  UNK     1      19.466  11.045   9.056  1.00  0.00    -0.349 OA
BRANCH  24  25
HETATM   25  C19 UNK     1      20.319  12.189   9.080  1.00  0.00     0.171 C 
HETATM   26  C20 UNK     1      21.588  11.874   8.315  1.00  0.00     0.034 C 
ENDBRANCH  24  25
ENDBRANCH   8  24
TORSDOF 6
ENDMDL
