MODEL 1
REMARK VINA RESULT:      -8.2      0.000      0.000
REMARK  3 active torsions:
REMARK  status: ('A' for Active; 'I' for Inactive)
REMARK    1  A    between atoms: C9_13  and  O2_2 
REMARK    2  A    between atoms: C15_19  and  O4_4 
REMARK    3  A    between atoms: C3_7  and  C4_8 
ROOT
HETATM    1  O1  UNK     1      17.660   8.368  33.282  1.00  0.00    -0.309 OA
HETATM    2  O3  UNK     1      14.195   6.741  31.889  1.00  0.00    -0.287 OA
HETATM    3  C1  UNK     1      15.232   8.391  33.223  1.00  0.00     0.048 A 
HETATM    4  C2  UNK     1      16.454   8.900  33.661  1.00  0.00     0.093 A 
HETATM    5  C3  UNK     1      17.661   7.274  32.431  1.00  0.00     0.090 A 
HETATM    6  C5  UNK     1      15.230   7.235  32.315  1.00  0.00     0.187 A 
HETATM    7  C6  UNK     1      16.553   6.699  31.937  1.00  0.00     0.093 A 
HETATM    8  C7  UNK     1      16.484   9.997  34.523  1.00  0.00     0.075 A 
HETATM    9  C8  UNK     1      14.034   8.973  33.642  1.00  0.00     0.021 A 
HETATM   10  C9  UNK     1      15.289  10.582  34.944  1.00  0.00     0.070 A 
HETATM   11  C10 UNK     1      14.067  10.071  34.504  1.00  0.00     0.038 A 
ENDROOT
BRANCH   5  12
HETATM   12  C4  UNK     1      19.011   6.787  32.081  1.00  0.00    -0.002 A 
HETATM   13  C11 UNK     1      20.049   6.869  33.011  1.00  0.00     0.017 A 
HETATM   14  C13 UNK     1      21.324   6.409  32.681  1.00  0.00     0.037 A 
HETATM   15  C15 UNK     1      21.565   5.869  31.418  1.00  0.00     0.065 A 
HETATM   16  C14 UNK     1      20.530   5.786  30.485  1.00  0.00     0.037 A 
HETATM   17  C12 UNK     1      19.255   6.245  30.816  1.00  0.00     0.017 A 
BRANCH  15  18
HETATM   18  O4  UNK     1      22.809   5.421  31.095  1.00  0.00    -0.361 OA
HETATM   19  H12 UNK     1      22.939   5.517  30.135  1.00  0.00     0.217 HD
ENDBRANCH  15  18
ENDBRANCH   5  12
BRANCH  10  20
HETATM   20  O2  UNK     1      15.316  11.651  35.785  1.00  0.00    -0.356 OA
HETATM   21  C16 UNK     1      16.274  12.671  35.508  1.00  0.00     0.210 C 
ENDBRANCH  10  20
TORSDOF 3
ENDMDL
MODEL 2
REMARK VINA RESULT:      -7.8      7.920     10.601
REMARK  3 active torsions:
REMARK  status: ('A' for Active; 'I' for Inactive)
REMARK    1  A    between atoms: C9_13  and  O2_2 
REMARK    2  A    between atoms: C15_19  and  O4_4 
REMARK    3  A    between atoms: C3_7  and  C4_8 
ROOT
HETATM    1  O1  UNK     1      18.942   0.011  33.014  1.00  0.00    -0.309 OA
HETATM    2  O3  UNK     1      21.062  -3.450  32.658  1.00  0.00    -0.287 OA
HETATM    3  C1  UNK     1      20.088  -1.585  31.585  1.00  0.00     0.048 A 
HETATM    4  C2  UNK     1      19.361  -0.411  31.778  1.00  0.00     0.093 A 
HETATM    5  C3  UNK     1      19.251  -0.771  34.117  1.00  0.00     0.090 A 
HETATM    6  C5  UNK     1      20.423  -2.411  32.754  1.00  0.00     0.187 A 
HETATM    7  C6  UNK     1      19.950  -1.916  34.062  1.00  0.00     0.093 A 
HETATM    8  C7  UNK     1      19.030   0.392  30.686  1.00  0.00     0.075 A 
HETATM    9  C8  UNK     1      20.488  -1.965  30.302  1.00  0.00     0.021 A 
HETATM   10  C9  UNK     1      19.428   0.016  29.402  1.00  0.00     0.070 A 
HETATM   11  C10 UNK     1      20.156  -1.159  29.211  1.00  0.00     0.038 A 
ENDROOT
BRANCH   5  12
HETATM   12  C4  UNK     1      18.760  -0.221  35.398  1.00  0.00    -0.002 A 
HETATM   13  C11 UNK     1      18.661   1.160  35.576  1.00  0.00     0.017 A 
HETATM   14  C13 UNK     1      18.197   1.679  36.785  1.00  0.00     0.037 A 
HETATM   15  C15 UNK     1      17.834   0.818  37.820  1.00  0.00     0.065 A 
HETATM   16  C14 UNK     1      17.932  -0.563  37.646  1.00  0.00     0.037 A 
HETATM   17  C12 UNK     1      18.395  -1.082  36.436  1.00  0.00     0.017 A 
BRANCH  15  18
HETATM   18  O4  UNK     1      17.382   1.324  39.000  1.00  0.00    -0.361 OA
HETATM   19  H12 UNK     1      16.426   1.154  39.070  1.00  0.00     0.217 HD
ENDBRANCH  15  18
ENDBRANCH   5  12
BRANCH  10  20
HETATM   20  O2  UNK     1      19.106   0.797  28.335  1.00  0.00    -0.356 OA
HETATM   21  C16 UNK     1      18.051   1.740  28.516  1.00  0.00     0.210 C 
ENDBRANCH  10  20
TORSDOF 3
ENDMDL
MODEL 3
REMARK VINA RESULT:      -7.8      6.630      9.216
REMARK  3 active torsions:
REMARK  status: ('A' for Active; 'I' for Inactive)
REMARK    1  A    between atoms: C9_13  and  O2_2 
REMARK    2  A    between atoms: C15_19  and  O4_4 
REMARK    3  A    between atoms: C3_7  and  C4_8 
ROOT
HETATM    1  O1  UNK     1      18.679   0.608  32.927  1.00  0.00    -0.309 OA
HETATM    2  O3  UNK     1      17.766   4.578  32.888  1.00  0.00    -0.287 OA
HETATM    3  C1  UNK     1      18.387   2.659  31.658  1.00  0.00     0.048 A 
HETATM    4  C2  UNK     1      18.688   1.301  31.742  1.00  0.00     0.093 A 
HETATM    5  C3  UNK     1      18.363   1.294  34.090  1.00  0.00     0.090 A 
HETATM    6  C5  UNK     1      18.044   3.387  32.889  1.00  0.00     0.187 A 
HETATM    7  C6  UNK     1      18.050   2.599  34.138  1.00  0.00     0.093 A 
HETATM    8  C7  UNK     1      19.015   0.586  30.590  1.00  0.00     0.075 A 
HETATM    9  C8  UNK     1      18.412   3.313  30.424  1.00  0.00     0.021 A 
HETATM   10  C9  UNK     1      19.041   1.235  29.355  1.00  0.00     0.070 A 
HETATM   11  C10 UNK     1      18.740   2.596  29.272  1.00  0.00     0.038 A 
ENDROOT
BRANCH   5  12
HETATM   12  C4  UNK     1      18.376   0.453  35.304  1.00  0.00    -0.002 A 
HETATM   13  C11 UNK     1      17.842   0.940  36.500  1.00  0.00     0.017 A 
HETATM   14  C13 UNK     1      17.854   0.146  37.647  1.00  0.00     0.037 A 
HETATM   15  C15 UNK     1      18.401  -1.136  37.601  1.00  0.00     0.065 A 
HETATM   16  C14 UNK     1      18.934  -1.626  36.409  1.00  0.00     0.037 A 
HETATM   17  C12 UNK     1      18.922  -0.832  35.262  1.00  0.00     0.017 A 
BRANCH  15  18
HETATM   18  O4  UNK     1      18.412  -1.911  38.721  1.00  0.00    -0.361 OA
HETATM   19  H12 UNK     1      18.757  -2.792  38.491  1.00  0.00     0.217 HD
ENDBRANCH  15  18
ENDBRANCH   5  12
BRANCH  10  20
HETATM   20  O2  UNK     1      19.361   0.541  28.229  1.00  0.00    -0.356 OA
HETATM   21  C16 UNK     1      19.807  -0.803  28.400  1.00  0.00     0.210 C 
ENDBRANCH  10  20
TORSDOF 3
ENDMDL
MODEL 4
REMARK VINA RESULT:      -7.7      5.507      6.672
REMARK  3 active torsions:
REMARK  status: ('A' for Active; 'I' for Inactive)
REMARK    1  A    between atoms: C9_13  and  O2_2 
REMARK    2  A    between atoms: C15_19  and  O4_4 
REMARK    3  A    between atoms: C3_7  and  C4_8 
ROOT
HETATM    1  O1  UNK     1      18.302   3.559  34.317  1.00  0.00    -0.309 OA
HETATM    2  O3  UNK     1      18.309   2.616  30.354  1.00  0.00    -0.287 OA
HETATM    3  C1  UNK     1      18.392   4.303  32.006  1.00  0.00     0.048 A 
HETATM    4  C2  UNK     1      18.387   4.555  33.377  1.00  0.00     0.093 A 
HETATM    5  C3  UNK     1      18.213   2.246  33.881  1.00  0.00     0.090 A 
HETATM    6  C5  UNK     1      18.305   2.910  31.541  1.00  0.00     0.187 A 
HETATM    7  C6  UNK     1      18.216   1.875  32.591  1.00  0.00     0.093 A 
HETATM    8  C7  UNK     1      18.469   5.867  33.845  1.00  0.00     0.075 A 
HETATM    9  C8  UNK     1      18.479   5.357  31.094  1.00  0.00     0.021 A 
HETATM   10  C9  UNK     1      18.557   6.923  32.937  1.00  0.00     0.070 A 
HETATM   11  C10 UNK     1      18.562   6.668  31.565  1.00  0.00     0.038 A 
ENDROOT
BRANCH   5  12
HETATM   12  C4  UNK     1      18.136   1.255  34.974  1.00  0.00    -0.002 A 
HETATM   13  C11 UNK     1      18.274  -0.107  34.697  1.00  0.00     0.017 A 
HETATM   14  C13 UNK     1      18.201  -1.043  35.729  1.00  0.00     0.037 A 
HETATM   15  C15 UNK     1      17.987  -0.619  37.040  1.00  0.00     0.065 A 
HETATM   16  C14 UNK     1      17.848   0.741  37.321  1.00  0.00     0.037 A 
HETATM   17  C12 UNK     1      17.922   1.676  36.289  1.00  0.00     0.017 A 
BRANCH  15  18
HETATM   18  O4  UNK     1      17.915  -1.532  38.047  1.00  0.00    -0.361 OA
HETATM   19  H12 UNK     1      17.578  -2.371  37.688  1.00  0.00     0.217 HD
ENDBRANCH  15  18
ENDBRANCH   5  12
BRANCH  10  20
HETATM   20  O2  UNK     1      18.636   8.204  33.390  1.00  0.00    -0.356 OA
HETATM   21  C16 UNK     1      19.569   8.465  34.438  1.00  0.00     0.210 C 
ENDBRANCH  10  20
TORSDOF 3
ENDMDL
MODEL 5
REMARK VINA RESULT:      -7.7     15.357     19.412
REMARK  3 active torsions:
REMARK  status: ('A' for Active; 'I' for Inactive)
REMARK    1  A    between atoms: C9_13  and  O2_2 
REMARK    2  A    between atoms: C15_19  and  O4_4 
REMARK    3  A    between atoms: C3_7  and  C4_8 
ROOT
HETATM    1  O1  UNK     1      20.541  -1.821  17.894  1.00  0.00    -0.309 OA
HETATM    2  O3  UNK     1      17.782  -2.380  14.949  1.00  0.00    -0.287 OA
HETATM    3  C1  UNK     1      19.839  -3.034  15.910  1.00  0.00     0.048 A 
HETATM    4  C2  UNK     1      20.741  -2.792  16.945  1.00  0.00     0.093 A 
HETATM    5  C3  UNK     1      19.394  -1.046  17.815  1.00  0.00     0.090 A 
HETATM    6  C5  UNK     1      18.618  -2.218  15.828  1.00  0.00     0.187 A 
HETATM    7  C6  UNK     1      18.449  -1.187  16.872  1.00  0.00     0.093 A 
HETATM    8  C7  UNK     1      21.906  -3.551  17.047  1.00  0.00     0.075 A 
HETATM    9  C8  UNK     1      20.094  -4.036  14.971  1.00  0.00     0.021 A 
HETATM   10  C9  UNK     1      22.165  -4.553  16.111  1.00  0.00     0.070 A 
HETATM   11  C10 UNK     1      21.261  -4.795  15.075  1.00  0.00     0.038 A 
ENDROOT
BRANCH   5  12
HETATM   12  C4  UNK     1      19.275  -0.039  18.889  1.00  0.00    -0.002 A 
HETATM   13  C11 UNK     1      18.887   1.268  18.585  1.00  0.00     0.017 A 
HETATM   14  C13 UNK     1      18.774   2.219  19.600  1.00  0.00     0.037 A 
HETATM   15  C15 UNK     1      19.052   1.866  20.920  1.00  0.00     0.065 A 
HETATM   16  C14 UNK     1      19.440   0.562  21.227  1.00  0.00     0.037 A 
HETATM   17  C12 UNK     1      19.552  -0.389  20.213  1.00  0.00     0.017 A 
BRANCH  15  18
HETATM   18  O4  UNK     1      18.942   2.794  21.910  1.00  0.00    -0.361 OA
HETATM   19  H12 UNK     1      18.939   2.339  22.770  1.00  0.00     0.217 HD
ENDBRANCH  15  18
ENDBRANCH   5  12
BRANCH  10  20
HETATM   20  O2  UNK     1      23.302  -5.296  16.207  1.00  0.00    -0.356 OA
HETATM   21  C16 UNK     1      24.372  -4.748  16.975  1.00  0.00     0.210 C 
ENDBRANCH  10  20
TORSDOF 3
ENDMDL
MODEL 6
REMARK VINA RESULT:      -7.6     23.159     25.220
REMARK  3 active torsions:
REMARK  status: ('A' for Active; 'I' for Inactive)
REMARK    1  A    between atoms: C9_13  and  O2_2 
REMARK    2  A    between atoms: C15_19  and  O4_4 
REMARK    3  A    between atoms: C3_7  and  C4_8 
ROOT
HETATM    1  O1  UNK     1      13.379   7.715   8.844  1.00  0.00    -0.309 OA
HETATM    2  O3  UNK     1      15.278   4.197   9.629  1.00  0.00    -0.287 OA
HETATM    3  C1  UNK     1      15.391   6.555   9.558  1.00  0.00     0.048 A 
HETATM    4  C2  UNK     1      14.683   7.722   9.273  1.00  0.00     0.093 A 
HETATM    5  C3  UNK     1      12.745   6.493   8.681  1.00  0.00     0.090 A 
HETATM    6  C5  UNK     1      14.718   5.258   9.393  1.00  0.00     0.187 A 
HETATM    7  C6  UNK     1      13.317   5.304   8.928  1.00  0.00     0.093 A 
HETATM    8  C7  UNK     1      15.297   8.965   9.422  1.00  0.00     0.075 A 
HETATM    9  C8  UNK     1      16.717   6.622   9.992  1.00  0.00     0.021 A 
HETATM   10  C9  UNK     1      16.621   9.036   9.856  1.00  0.00     0.070 A 
HETATM   11  C10 UNK     1      17.330   7.868  10.140  1.00  0.00     0.038 A 
ENDROOT
BRANCH   5  12
HETATM   12  C4  UNK     1      11.344   6.601   8.223  1.00  0.00    -0.002 A 
HETATM   13  C11 UNK     1      10.962   6.052   6.997  1.00  0.00     0.017 A 
HETATM   14  C13 UNK     1       9.640   6.154   6.565  1.00  0.00     0.037 A 
HETATM   15  C15 UNK     1       8.696   6.807   7.357  1.00  0.00     0.065 A 
HETATM   16  C14 UNK     1       9.073   7.357   8.582  1.00  0.00     0.037 A 
HETATM   17  C12 UNK     1      10.396   7.254   9.015  1.00  0.00     0.017 A 
BRANCH  15  18
HETATM   18  O4  UNK     1       7.406   6.907   6.935  1.00  0.00    -0.361 OA
HETATM   19  H12 UNK     1       6.868   7.286   7.653  1.00  0.00     0.217 HD
ENDBRANCH  15  18
ENDBRANCH   5  12
BRANCH  10  20
HETATM   20  O2  UNK     1      17.224  10.248  10.001  1.00  0.00    -0.356 OA
HETATM   21  C16 UNK     1      17.789  10.837   8.831  1.00  0.00     0.210 C 
ENDBRANCH  10  20
TORSDOF 3
ENDMDL
MODEL 7
REMARK VINA RESULT:      -7.6      5.132      7.389
REMARK  3 active torsions:
REMARK  status: ('A' for Active; 'I' for Inactive)
REMARK    1  A    between atoms: C9_13  and  O2_2 
REMARK    2  A    between atoms: C15_19  and  O4_4 
REMARK    3  A    between atoms: C3_7  and  C4_8 
ROOT
HETATM    1  O1  UNK     1      18.249   3.841  34.481  1.00  0.00    -0.309 OA
HETATM    2  O3  UNK     1      18.331   1.675  31.032  1.00  0.00    -0.287 OA
HETATM    3  C1  UNK     1      18.304   1.669  33.394  1.00  0.00     0.048 A 
HETATM    4  C2  UNK     1      18.274   2.470  34.535  1.00  0.00     0.093 A 
HETATM    5  C3  UNK     1      18.262   4.453  33.237  1.00  0.00     0.090 A 
HETATM    6  C5  UNK     1      18.310   2.316  32.073  1.00  0.00     0.187 A 
HETATM    7  C6  UNK     1      18.283   3.793  32.069  1.00  0.00     0.093 A 
HETATM    8  C7  UNK     1      18.267   1.882  35.799  1.00  0.00     0.075 A 
HETATM    9  C8  UNK     1      18.328   0.278  33.508  1.00  0.00     0.021 A 
HETATM   10  C9  UNK     1      18.291   0.492  35.918  1.00  0.00     0.070 A 
HETATM   11  C10 UNK     1      18.321  -0.308  34.775  1.00  0.00     0.038 A 
ENDROOT
BRANCH   5  12
HETATM   12  C4  UNK     1      18.225   5.929  33.295  1.00  0.00    -0.002 A 
HETATM   13  C11 UNK     1      19.206   6.628  34.002  1.00  0.00     0.017 A 
HETATM   14  C13 UNK     1      19.171   8.021  34.057  1.00  0.00     0.037 A 
HETATM   15  C15 UNK     1      18.154   8.719  33.406  1.00  0.00     0.065 A 
HETATM   16  C14 UNK     1      17.173   8.025  32.699  1.00  0.00     0.037 A 
HETATM   17  C12 UNK     1      17.208   6.632  32.644  1.00  0.00     0.017 A 
BRANCH  15  18
HETATM   18  O4  UNK     1      18.120  10.079  33.460  1.00  0.00    -0.361 OA
HETATM   19  H12 UNK     1      17.747  10.352  34.316  1.00  0.00     0.217 HD
ENDBRANCH  15  18
ENDBRANCH   5  12
BRANCH  10  20
HETATM   20  O2  UNK     1      18.285  -0.085  37.151  1.00  0.00    -0.356 OA
HETATM   21  C16 UNK     1      17.942  -1.468  37.220  1.00  0.00     0.210 C 
ENDBRANCH  10  20
TORSDOF 3
ENDMDL
MODEL 8
REMARK VINA RESULT:      -7.6      4.961      7.881
REMARK  3 active torsions:
REMARK  status: ('A' for Active; 'I' for Inactive)
REMARK    1  A    between atoms: C9_13  and  O2_2 
REMARK    2  A    between atoms: C15_19  and  O4_4 
REMARK    3  A    between atoms: C3_7  and  C4_8 
ROOT
HETATM    1  O1  UNK     1      18.096   3.260  33.290  1.00  0.00    -0.309 OA
HETATM    2  O3  UNK     1      19.144   1.742  29.658  1.00  0.00    -0.287 OA
HETATM    3  C1  UNK     1      18.662   1.326  31.933  1.00  0.00     0.048 A 
HETATM    4  C2  UNK     1      18.300   1.911  33.146  1.00  0.00     0.093 A 
HETATM    5  C3  UNK     1      18.264   4.075  32.181  1.00  0.00     0.090 A 
HETATM    6  C5  UNK     1      18.833   2.187  30.754  1.00  0.00     0.187 A 
HETATM    7  C6  UNK     1      18.602   3.632  30.960  1.00  0.00     0.093 A 
HETATM    8  C7  UNK     1      18.131   1.116  34.280  1.00  0.00     0.075 A 
HETATM    9  C8  UNK     1      18.857  -0.054  31.844  1.00  0.00     0.021 A 
HETATM   10  C9  UNK     1      18.325  -0.263  34.196  1.00  0.00     0.070 A 
HETATM   11  C10 UNK     1      18.686  -0.847  32.981  1.00  0.00     0.038 A 
ENDROOT
BRANCH   5  12
HETATM   12  C4  UNK     1      18.011   5.506  32.446  1.00  0.00    -0.002 A 
HETATM   13  C11 UNK     1      16.756   6.058  32.181  1.00  0.00     0.017 A 
HETATM   14  C13 UNK     1      16.517   7.410  32.431  1.00  0.00     0.037 A 
HETATM   15  C15 UNK     1      17.535   8.214  32.944  1.00  0.00     0.065 A 
HETATM   16  C14 UNK     1      18.790   7.667  33.209  1.00  0.00     0.037 A 
HETATM   17  C12 UNK     1      19.028   6.315  32.960  1.00  0.00     0.017 A 
BRANCH  15  18
HETATM   18  O4  UNK     1      17.302   9.533  33.187  1.00  0.00    -0.361 OA
HETATM   19  H12 UNK     1      17.699   9.770  34.044  1.00  0.00     0.217 HD
ENDBRANCH  15  18
ENDBRANCH   5  12
BRANCH  10  20
HETATM   20  O2  UNK     1      18.161  -1.041  35.301  1.00  0.00    -0.356 OA
HETATM   21  C16 UNK     1      19.312  -1.731  35.785  1.00  0.00     0.210 C 
ENDBRANCH  10  20
TORSDOF 3
ENDMDL
MODEL 9
REMARK VINA RESULT:      -7.6     23.472     25.164
REMARK  3 active torsions:
REMARK  status: ('A' for Active; 'I' for Inactive)
REMARK    1  A    between atoms: C9_13  and  O2_2 
REMARK    2  A    between atoms: C15_19  and  O4_4 
REMARK    3  A    between atoms: C3_7  and  C4_8 
ROOT
HETATM    1  O1  UNK     1      11.787   6.062   9.278  1.00  0.00    -0.309 OA
HETATM    2  O3  UNK     1      10.861   7.094   5.447  1.00  0.00    -0.287 OA
HETATM    3  C1  UNK     1      10.114   6.258   7.526  1.00  0.00     0.048 A 
HETATM    4  C2  UNK     1      10.498   5.926   8.825  1.00  0.00     0.093 A 
HETATM    5  C3  UNK     1      12.747   6.546   8.402  1.00  0.00     0.090 A 
HETATM    6  C5  UNK     1      11.129   6.779   6.598  1.00  0.00     0.187 A 
HETATM    7  C6  UNK     1      12.500   6.906   7.132  1.00  0.00     0.093 A 
HETATM    8  C7  UNK     1       9.556   5.431   9.726  1.00  0.00     0.075 A 
HETATM    9  C8  UNK     1       8.788   6.099   7.120  1.00  0.00     0.021 A 
HETATM   10  C9  UNK     1       8.229   5.270   9.324  1.00  0.00     0.070 A 
HETATM   11  C10 UNK     1       7.846   5.603   8.024  1.00  0.00     0.038 A 
ENDROOT
BRANCH   5  12
HETATM   12  C4  UNK     1      14.095   6.660   8.994  1.00  0.00    -0.002 A 
HETATM   13  C11 UNK     1      14.587   7.908   9.383  1.00  0.00     0.017 A 
HETATM   14  C13 UNK     1      15.860   8.016   9.942  1.00  0.00     0.037 A 
HETATM   15  C15 UNK     1      16.646   6.877  10.111  1.00  0.00     0.065 A 
HETATM   16  C14 UNK     1      16.159   5.628   9.724  1.00  0.00     0.037 A 
HETATM   17  C12 UNK     1      14.885   5.520   9.165  1.00  0.00     0.017 A 
BRANCH  15  18
HETATM   18  O4  UNK     1      17.889   6.982  10.657  1.00  0.00    -0.361 OA
HETATM   19  H12 UNK     1      18.288   6.096  10.707  1.00  0.00     0.217 HD
ENDBRANCH  15  18
ENDBRANCH   5  12
BRANCH  10  20
HETATM   20  O2  UNK     1       7.307   4.786  10.200  1.00  0.00    -0.356 OA
HETATM   21  C16 UNK     1       6.677   3.552   9.864  1.00  0.00     0.210 C 
ENDBRANCH  10  20
TORSDOF 3
ENDMDL
MODEL 10
REMARK VINA RESULT:      -7.5      3.219      4.539
REMARK  3 active torsions:
REMARK  status: ('A' for Active; 'I' for Inactive)
REMARK    1  A    between atoms: C9_13  and  O2_2 
REMARK    2  A    between atoms: C15_19  and  O4_4 
REMARK    3  A    between atoms: C3_7  and  C4_8 
ROOT
HETATM    1  O1  UNK     1      17.322   5.143  31.920  1.00  0.00    -0.309 OA
HETATM    2  O3  UNK     1      20.701   7.077  33.120  1.00  0.00    -0.287 OA
HETATM    3  C1  UNK     1      18.340   6.987  33.129  1.00  0.00     0.048 A 
HETATM    4  C2  UNK     1      17.225   6.277  32.686  1.00  0.00     0.093 A 
HETATM    5  C3  UNK     1      18.584   4.690  31.566  1.00  0.00     0.090 A 
HETATM    6  C5  UNK     1      19.680   6.505  32.762  1.00  0.00     0.187 A 
HETATM    7  C6  UNK     1      19.731   5.282  31.936  1.00  0.00     0.093 A 
HETATM    8  C7  UNK     1      15.943   6.712  33.021  1.00  0.00     0.075 A 
HETATM    9  C8  UNK     1      18.182   8.136  33.907  1.00  0.00     0.021 A 
HETATM   10  C9  UNK     1      15.780   7.859  33.799  1.00  0.00     0.070 A 
HETATM   11  C10 UNK     1      16.897   8.569  34.241  1.00  0.00     0.038 A 
ENDROOT
BRANCH   5  12
HETATM   12  C4  UNK     1      18.573   3.460  30.749  1.00  0.00    -0.002 A 
HETATM   13  C11 UNK     1      18.147   3.505  29.420  1.00  0.00     0.017 A 
HETATM   14  C13 UNK     1      18.136   2.343  28.647  1.00  0.00     0.037 A 
HETATM   15  C15 UNK     1      18.550   1.133  29.203  1.00  0.00     0.065 A 
HETATM   16  C14 UNK     1      18.976   1.084  30.530  1.00  0.00     0.037 A 
HETATM   17  C12 UNK     1      18.987   2.246  31.303  1.00  0.00     0.017 A 
BRANCH  15  18
HETATM   18  O4  UNK     1      18.539  -0.001  28.450  1.00  0.00    -0.361 OA
HETATM   19  H12 UNK     1      17.648  -0.125  28.080  1.00  0.00     0.217 HD
ENDBRANCH  15  18
ENDBRANCH   5  12
BRANCH  10  20
HETATM   20  O2  UNK     1      14.530   8.286  34.126  1.00  0.00    -0.356 OA
HETATM   21  C16 UNK     1      14.393   9.650  34.521  1.00  0.00     0.210 C 
ENDBRANCH  10  20
TORSDOF 3
ENDMDL
