MODEL 1
REMARK VINA RESULT:      -6.9      0.000      0.000
REMARK  4 active torsions:
REMARK  status: ('A' for Active; 'I' for Inactive)
REMARK    1  A    between atoms: C1_1  and  C3_3 
REMARK    2  A    between atoms: C1_1  and  C4_4 
REMARK    3  A    between atoms: C2_2  and  C5_5 
REMARK    4  A    between atoms: C2_2  and  C6_6 
ROOT
HETATM    1  C1  UNK     1      31.127  -7.955  35.749  1.00  0.00    -0.004 C 
HETATM    2  C2  UNK     1      30.343  -9.093  35.781  1.00  0.00    -0.004 C 
ENDROOT
BRANCH   1   3
HETATM    3  C3  UNK     1      30.937  -6.872  36.701  1.00  0.00    -0.024 A 
HETATM    4  C11 UNK     1      31.780  -6.758  37.806  1.00  0.00     0.012 A 
HETATM    5  C19 UNK     1      31.597  -5.718  38.718  1.00  0.00     0.001 A 
HETATM    6  C23 UNK     1      30.571  -4.793  38.525  1.00  0.00     0.000 A 
HETATM    7  C15 UNK     1      29.728  -4.907  37.420  1.00  0.00     0.001 A 
HETATM    8  C7  UNK     1      29.910  -5.947  36.508  1.00  0.00     0.012 A 
ENDBRANCH   1   3
BRANCH   1   9
HETATM    9  C4  UNK     1      32.196  -7.857  34.697  1.00  0.00    -0.024 A 
HETATM   10  C12 UNK     1      33.444  -8.342  34.993  1.00  0.00     0.012 A 
HETATM   11  C20 UNK     1      34.436  -8.251  34.017  1.00  0.00     0.001 A 
HETATM   12  C24 UNK     1      34.144  -7.679  32.778  1.00  0.00     0.000 A 
HETATM   13  C16 UNK     1      32.862  -7.197  32.516  1.00  0.00     0.001 A 
HETATM   14  C8  UNK     1      31.870  -7.288  33.493  1.00  0.00     0.012 A 
ENDBRANCH   1   9
BRANCH   2  15
HETATM   15  C5  UNK     1      30.542 -10.203  34.811  1.00  0.00    -0.024 A 
HETATM   16  C13 UNK     1      31.431 -11.209  35.124  1.00  0.00     0.012 A 
HETATM   17  C21 UNK     1      31.617 -12.250  34.214  1.00  0.00     0.001 A 
HETATM   18  C25 UNK     1      30.908 -12.260  33.013  1.00  0.00     0.000 A 
HETATM   19  C17 UNK     1      30.013 -11.231  32.721  1.00  0.00     0.001 A 
HETATM   20  C9  UNK     1      29.828 -10.191  33.631  1.00  0.00     0.012 A 
ENDBRANCH   2  15
BRANCH   2  21
HETATM   21  C6  UNK     1      29.276  -9.214  36.809  1.00  0.00    -0.024 A 
HETATM   22  C10 UNK     1      29.633  -9.527  38.104  1.00  0.00     0.012 A 
HETATM   23  C18 UNK     1      28.632  -9.640  39.068  1.00  0.00     0.001 A 
HETATM   24  C26 UNK     1      27.298  -9.438  38.716  1.00  0.00     0.000 A 
HETATM   25  C22 UNK     1      26.964  -9.124  37.399  1.00  0.00     0.001 A 
HETATM   26  C14 UNK     1      27.965  -9.010  36.434  1.00  0.00     0.012 A 
ENDBRANCH   2  21
TORSDOF 4
ENDMDL
MODEL 2
REMARK VINA RESULT:      -6.9      0.065      4.420
REMARK  4 active torsions:
REMARK  status: ('A' for Active; 'I' for Inactive)
REMARK    1  A    between atoms: C1_1  and  C3_3 
REMARK    2  A    between atoms: C1_1  and  C4_4 
REMARK    3  A    between atoms: C2_2  and  C5_5 
REMARK    4  A    between atoms: C2_2  and  C6_6 
ROOT
HETATM    1  C1  UNK     1      30.314  -9.080  35.844  1.00  0.00    -0.004 C 
HETATM    2  C2  UNK     1      31.131  -7.968  35.770  1.00  0.00    -0.004 C 
ENDROOT
BRANCH   1   3
HETATM    3  C3  UNK     1      29.260  -9.187  36.841  1.00  0.00    -0.024 A 
HETATM    4  C11 UNK     1      29.574  -9.541  38.153  1.00  0.00     0.012 A 
HETATM    5  C19 UNK     1      28.563  -9.643  39.109  1.00  0.00     0.001 A 
HETATM    6  C23 UNK     1      27.238  -9.390  38.752  1.00  0.00     0.000 A 
HETATM    7  C15 UNK     1      26.924  -9.036  37.440  1.00  0.00     0.001 A 
HETATM    8  C7  UNK     1      27.934  -8.935  36.484  1.00  0.00     0.012 A 
ENDBRANCH   1   3
BRANCH   1   9
HETATM    9  C4  UNK     1      30.537 -10.194  34.860  1.00  0.00    -0.024 A 
HETATM   10  C12 UNK     1      31.423 -11.186  35.193  1.00  0.00     0.012 A 
HETATM   11  C20 UNK     1      31.631 -12.219  34.279  1.00  0.00     0.001 A 
HETATM   12  C24 UNK     1      30.944 -12.224  33.065  1.00  0.00     0.000 A 
HETATM   13  C16 UNK     1      30.051 -11.196  32.763  1.00  0.00     0.001 A 
HETATM   14  C8  UNK     1      29.844 -10.163  33.677  1.00  0.00     0.012 A 
ENDBRANCH   1   9
BRANCH   2  15
HETATM   15  C5  UNK     1      32.204  -7.857  34.747  1.00  0.00    -0.024 A 
HETATM   16  C13 UNK     1      31.914  -7.258  33.540  1.00  0.00     0.012 A 
HETATM   17  C21 UNK     1      32.921  -7.154  32.581  1.00  0.00     0.001 A 
HETATM   18  C25 UNK     1      34.196  -7.650  32.852  1.00  0.00     0.000 A 
HETATM   19  C17 UNK     1      34.464  -8.251  34.082  1.00  0.00     0.001 A 
HETATM   20  C9  UNK     1      33.457  -8.355  35.040  1.00  0.00     0.012 A 
ENDBRANCH   2  15
BRANCH   2  21
HETATM   21  C6  UNK     1      30.933  -6.854  36.735  1.00  0.00    -0.024 A 
HETATM   22  C10 UNK     1      29.912  -5.955  36.512  1.00  0.00     0.012 A 
HETATM   23  C18 UNK     1      29.727  -4.910  37.417  1.00  0.00     0.001 A 
HETATM   24  C26 UNK     1      30.567  -4.788  38.523  1.00  0.00     0.000 A 
HETATM   25  C22 UNK     1      31.593  -5.711  38.725  1.00  0.00     0.001 A 
HETATM   26  C14 UNK     1      31.779  -6.756  37.820  1.00  0.00     0.012 A 
ENDBRANCH   2  21
TORSDOF 4
ENDMDL
MODEL 3
REMARK VINA RESULT:      -6.9      0.118      6.747
REMARK  4 active torsions:
REMARK  status: ('A' for Active; 'I' for Inactive)
REMARK    1  A    between atoms: C1_1  and  C3_3 
REMARK    2  A    between atoms: C1_1  and  C4_4 
REMARK    3  A    between atoms: C2_2  and  C5_5 
REMARK    4  A    between atoms: C2_2  and  C6_6 
ROOT
HETATM    1  C1  UNK     1      30.385  -9.071  35.757  1.00  0.00    -0.004 C 
HETATM    2  C2  UNK     1      31.195  -7.951  35.729  1.00  0.00    -0.004 C 
ENDROOT
BRANCH   1   3
HETATM    3  C3  UNK     1      30.564 -10.165  34.815  1.00  0.00    -0.024 A 
HETATM    4  C11 UNK     1      29.859 -10.172  33.612  1.00  0.00     0.012 A 
HETATM    5  C19 UNK     1      30.031 -11.222  32.710  1.00  0.00     0.001 A 
HETATM    6  C23 UNK     1      30.909 -12.263  33.010  1.00  0.00     0.000 A 
HETATM    7  C15 UNK     1      31.615 -12.256  34.214  1.00  0.00     0.001 A 
HETATM    8  C7  UNK     1      31.442 -11.207  35.116  1.00  0.00     0.012 A 
ENDBRANCH   1   3
BRANCH   1   9
HETATM    9  C4  UNK     1      29.299  -9.137  36.794  1.00  0.00    -0.024 A 
HETATM   10  C12 UNK     1      28.026  -8.789  36.423  1.00  0.00     0.012 A 
HETATM   11  C20 UNK     1      27.018  -8.850  37.386  1.00  0.00     0.001 A 
HETATM   12  C24 UNK     1      27.320  -9.259  38.686  1.00  0.00     0.000 A 
HETATM   13  C16 UNK     1      28.628  -9.605  39.022  1.00  0.00     0.001 A 
HETATM   14  C8  UNK     1      29.636  -9.543  38.060  1.00  0.00     0.012 A 
ENDBRANCH   1   9
BRANCH   2  15
HETATM   15  C5  UNK     1      31.016  -6.835  36.695  1.00  0.00    -0.024 A 
HETATM   16  C13 UNK     1      31.819  -6.788  37.814  1.00  0.00     0.012 A 
HETATM   17  C21 UNK     1      31.650  -5.741  38.721  1.00  0.00     0.001 A 
HETATM   18  C25 UNK     1      30.681  -4.765  38.485  1.00  0.00     0.000 A 
HETATM   19  C17 UNK     1      29.882  -4.835  37.344  1.00  0.00     0.001 A 
HETATM   20  C9  UNK     1      30.051  -5.883  36.439  1.00  0.00     0.012 A 
ENDBRANCH   2  15
BRANCH   2  21
HETATM   21  C6  UNK     1      32.274  -7.859  34.710  1.00  0.00    -0.024 A 
HETATM   22  C10 UNK     1      31.992  -7.274  33.494  1.00  0.00     0.012 A 
HETATM   23  C18 UNK     1      33.004  -7.188  32.538  1.00  0.00     0.001 A 
HETATM   24  C26 UNK     1      34.274  -7.689  32.821  1.00  0.00     0.000 A 
HETATM   25  C22 UNK     1      34.533  -8.276  34.058  1.00  0.00     0.001 A 
HETATM   26  C14 UNK     1      33.521  -8.362  35.015  1.00  0.00     0.012 A 
ENDBRANCH   2  21
TORSDOF 4
ENDMDL
MODEL 4
REMARK VINA RESULT:      -6.9      0.107      5.188
REMARK  4 active torsions:
REMARK  status: ('A' for Active; 'I' for Inactive)
REMARK    1  A    between atoms: C1_1  and  C3_3 
REMARK    2  A    between atoms: C1_1  and  C4_4 
REMARK    3  A    between atoms: C2_2  and  C5_5 
REMARK    4  A    between atoms: C2_2  and  C6_6 
ROOT
HETATM    1  C1  UNK     1      31.213  -7.957  35.663  1.00  0.00    -0.004 C 
HETATM    2  C2  UNK     1      30.390  -9.064  35.755  1.00  0.00    -0.004 C 
ENDROOT
BRANCH   1   3
HETATM    3  C3  UNK     1      32.245  -7.858  34.642  1.00  0.00    -0.024 A 
HETATM    4  C11 UNK     1      33.531  -8.333  34.901  1.00  0.00     0.012 A 
HETATM    5  C19 UNK     1      34.519  -8.237  33.921  1.00  0.00     0.001 A 
HETATM    6  C23 UNK     1      34.222  -7.668  32.683  1.00  0.00     0.000 A 
HETATM    7  C15 UNK     1      32.936  -7.193  32.424  1.00  0.00     0.001 A 
HETATM    8  C7  UNK     1      31.948  -7.288  33.403  1.00  0.00     0.012 A 
ENDBRANCH   1   3
BRANCH   1   9
HETATM    9  C4  UNK     1      31.020  -6.842  36.651  1.00  0.00    -0.024 A 
HETATM   10  C12 UNK     1      31.829  -6.808  37.758  1.00  0.00     0.012 A 
HETATM   11  C20 UNK     1      31.649  -5.773  38.675  1.00  0.00     0.001 A 
HETATM   12  C24 UNK     1      30.667  -4.807  38.454  1.00  0.00     0.000 A 
HETATM   13  C16 UNK     1      29.864  -4.877  37.315  1.00  0.00     0.001 A 
HETATM   14  C8  UNK     1      30.043  -5.913  36.398  1.00  0.00     0.012 A 
ENDBRANCH   1   9
BRANCH   2  15
HETATM   15  C5  UNK     1      29.332  -9.162  36.795  1.00  0.00    -0.024 A 
HETATM   16  C13 UNK     1      28.031  -8.860  36.452  1.00  0.00     0.012 A 
HETATM   17  C21 UNK     1      27.039  -8.953  37.429  1.00  0.00     0.001 A 
HETATM   18  C25 UNK     1      27.371  -9.347  38.725  1.00  0.00     0.000 A 
HETATM   19  C17 UNK     1      28.695  -9.647  39.046  1.00  0.00     0.001 A 
HETATM   20  C9  UNK     1      29.686  -9.554  38.070  1.00  0.00     0.012 A 
ENDBRANCH   2  15
BRANCH   2  21
HETATM   21  C6  UNK     1      30.564 -10.182  34.792  1.00  0.00    -0.024 A 
HETATM   22  C10 UNK     1      29.839 -10.168  33.619  1.00  0.00     0.012 A 
HETATM   23  C18 UNK     1      30.002 -11.218  32.715  1.00  0.00     0.001 A 
HETATM   24  C26 UNK     1      30.884 -12.258  33.006  1.00  0.00     0.000 A 
HETATM   25  C22 UNK     1      31.604 -12.249  34.200  1.00  0.00     0.001 A 
HETATM   26  C14 UNK     1      31.442 -11.199  35.105  1.00  0.00     0.012 A 
ENDBRANCH   2  21
TORSDOF 4
ENDMDL
MODEL 5
REMARK VINA RESULT:      -6.7      2.785      4.022
REMARK  4 active torsions:
REMARK  status: ('A' for Active; 'I' for Inactive)
REMARK    1  A    between atoms: C1_1  and  C3_3 
REMARK    2  A    between atoms: C1_1  and  C4_4 
REMARK    3  A    between atoms: C2_2  and  C5_5 
REMARK    4  A    between atoms: C2_2  and  C6_6 
ROOT
HETATM    1  C1  UNK     1      30.597  -7.648  33.150  1.00  0.00    -0.004 C 
HETATM    2  C2  UNK     1      29.228  -7.783  33.282  1.00  0.00    -0.004 C 
ENDROOT
BRANCH   1   3
HETATM    3  C3  UNK     1      31.481  -7.684  34.305  1.00  0.00    -0.024 A 
HETATM    4  C11 UNK     1      31.764  -8.898  34.930  1.00  0.00     0.012 A 
HETATM    5  C19 UNK     1      32.612  -8.931  36.038  1.00  0.00     0.001 A 
HETATM    6  C23 UNK     1      33.178  -7.751  36.518  1.00  0.00     0.000 A 
HETATM    7  C15 UNK     1      32.895  -6.536  35.893  1.00  0.00     0.001 A 
HETATM    8  C7  UNK     1      32.047  -6.502  34.787  1.00  0.00     0.012 A 
ENDBRANCH   1   3
BRANCH   1   9
HETATM    9  C4  UNK     1      31.164  -7.461  31.771  1.00  0.00    -0.024 A 
HETATM   10  C12 UNK     1      31.941  -8.463  31.248  1.00  0.00     0.012 A 
HETATM   11  C20 UNK     1      32.467  -8.289  29.968  1.00  0.00     0.001 A 
HETATM   12  C24 UNK     1      32.196  -7.121  29.255  1.00  0.00     0.000 A 
HETATM   13  C16 UNK     1      31.400  -6.126  29.822  1.00  0.00     0.001 A 
HETATM   14  C8  UNK     1      30.875  -6.299  31.103  1.00  0.00     0.012 A 
ENDBRANCH   1   9
BRANCH   2  15
HETATM   15  C5  UNK     1      28.325  -7.752  32.101  1.00  0.00    -0.024 A 
HETATM   16  C13 UNK     1      28.320  -8.828  31.239  1.00  0.00     0.012 A 
HETATM   17  C21 UNK     1      27.473  -8.798  30.131  1.00  0.00     0.001 A 
HETATM   18  C25 UNK     1      26.649  -7.693  29.913  1.00  0.00     0.000 A 
HETATM   19  C17 UNK     1      26.673  -6.618  30.801  1.00  0.00     0.001 A 
HETATM   20  C9  UNK     1      27.521  -6.648  31.908  1.00  0.00     0.012 A 
ENDBRANCH   2  15
BRANCH   2  21
HETATM   21  C6  UNK     1      28.642  -7.965  34.636  1.00  0.00    -0.024 A 
HETATM   22  C10 UNK     1      28.503  -6.863  35.454  1.00  0.00     0.012 A 
HETATM   23  C18 UNK     1      27.953  -7.034  36.724  1.00  0.00     0.001 A 
HETATM   24  C26 UNK     1      27.556  -8.302  37.147  1.00  0.00     0.000 A 
HETATM   25  C22 UNK     1      27.708  -9.399  36.301  1.00  0.00     0.001 A 
HETATM   26  C14 UNK     1      28.258  -9.229  35.030  1.00  0.00     0.012 A 
ENDBRANCH   2  21
TORSDOF 4
ENDMDL
MODEL 6
REMARK VINA RESULT:      -6.7      2.765      4.066
REMARK  4 active torsions:
REMARK  status: ('A' for Active; 'I' for Inactive)
REMARK    1  A    between atoms: C1_1  and  C3_3 
REMARK    2  A    between atoms: C1_1  and  C4_4 
REMARK    3  A    between atoms: C2_2  and  C5_5 
REMARK    4  A    between atoms: C2_2  and  C6_6 
ROOT
HETATM    1  C1  UNK     1      30.604  -7.654  33.201  1.00  0.00    -0.004 C 
HETATM    2  C2  UNK     1      29.234  -7.777  33.329  1.00  0.00    -0.004 C 
ENDROOT
BRANCH   1   3
HETATM    3  C3  UNK     1      31.485  -7.689  34.358  1.00  0.00    -0.024 A 
HETATM    4  C11 UNK     1      32.040  -6.507  34.848  1.00  0.00     0.012 A 
HETATM    5  C19 UNK     1      32.884  -6.541  35.958  1.00  0.00     0.001 A 
HETATM    6  C23 UNK     1      33.172  -7.757  36.579  1.00  0.00     0.000 A 
HETATM    7  C15 UNK     1      32.616  -8.939  36.089  1.00  0.00     0.001 A 
HETATM    8  C7  UNK     1      31.773  -8.905  34.979  1.00  0.00     0.012 A 
ENDBRANCH   1   3
BRANCH   1   9
HETATM    9  C4  UNK     1      31.177  -7.482  31.822  1.00  0.00    -0.024 A 
HETATM   10  C12 UNK     1      31.949  -8.493  31.309  1.00  0.00     0.012 A 
HETATM   11  C20 UNK     1      32.480  -8.333  30.029  1.00  0.00     0.001 A 
HETATM   12  C24 UNK     1      32.219  -7.168  29.307  1.00  0.00     0.000 A 
HETATM   13  C16 UNK     1      31.428  -6.164  29.864  1.00  0.00     0.001 A 
HETATM   14  C8  UNK     1      30.898  -6.323  31.144  1.00  0.00     0.012 A 
ENDBRANCH   1   9
BRANCH   2  15
HETATM   15  C5  UNK     1      28.334  -7.748  32.145  1.00  0.00    -0.024 A 
HETATM   16  C13 UNK     1      27.533  -6.644  31.945  1.00  0.00     0.012 A 
HETATM   17  C21 UNK     1      26.690  -6.617  30.834  1.00  0.00     0.001 A 
HETATM   18  C25 UNK     1      26.669  -7.695  29.949  1.00  0.00     0.000 A 
HETATM   19  C17 UNK     1      27.490  -8.800  30.174  1.00  0.00     0.001 A 
HETATM   20  C9  UNK     1      28.332  -8.826  31.285  1.00  0.00     0.012 A 
ENDBRANCH   2  15
BRANCH   2  21
HETATM   21  C6  UNK     1      28.642  -7.945  34.683  1.00  0.00    -0.024 A 
HETATM   22  C10 UNK     1      28.238  -9.201  35.081  1.00  0.00     0.012 A 
HETATM   23  C18 UNK     1      27.682  -9.358  36.351  1.00  0.00     0.001 A 
HETATM   24  C26 UNK     1      27.543  -8.255  37.192  1.00  0.00     0.000 A 
HETATM   25  C22 UNK     1      27.958  -6.995  36.764  1.00  0.00     0.001 A 
HETATM   26  C14 UNK     1      28.514  -6.837  35.494  1.00  0.00     0.012 A 
ENDBRANCH   2  21
TORSDOF 4
ENDMDL
MODEL 7
REMARK VINA RESULT:      -6.7      2.743      5.813
REMARK  4 active torsions:
REMARK  status: ('A' for Active; 'I' for Inactive)
REMARK    1  A    between atoms: C1_1  and  C3_3 
REMARK    2  A    between atoms: C1_1  and  C4_4 
REMARK    3  A    between atoms: C2_2  and  C5_5 
REMARK    4  A    between atoms: C2_2  and  C6_6 
ROOT
HETATM    1  C1  UNK     1      30.651  -7.644  33.168  1.00  0.00    -0.004 C 
HETATM    2  C2  UNK     1      29.286  -7.764  33.355  1.00  0.00    -0.004 C 
ENDROOT
BRANCH   1   3
HETATM    3  C3  UNK     1      31.228  -7.493  31.841  1.00  0.00    -0.024 A 
HETATM    4  C11 UNK     1      30.951  -6.354  31.086  1.00  0.00     0.012 A 
HETATM    5  C19 UNK     1      31.505  -6.210  29.814  1.00  0.00     0.001 A 
HETATM    6  C23 UNK     1      32.336  -7.204  29.298  1.00  0.00     0.000 A 
HETATM    7  C15 UNK     1      32.613  -8.343  30.054  1.00  0.00     0.001 A 
HETATM    8  C7  UNK     1      32.059  -8.488  31.325  1.00  0.00     0.012 A 
ENDBRANCH   1   3
BRANCH   1   9
HETATM    9  C4  UNK     1      31.540  -7.673  34.380  1.00  0.00    -0.024 A 
HETATM   10  C12 UNK     1      31.801  -8.886  34.964  1.00  0.00     0.012 A 
HETATM   11  C20 UNK     1      32.626  -8.913  36.088  1.00  0.00     0.001 A 
HETATM   12  C24 UNK     1      33.162  -7.725  36.588  1.00  0.00     0.000 A 
HETATM   13  C16 UNK     1      32.872  -6.512  35.965  1.00  0.00     0.001 A 
HETATM   14  C8  UNK     1      32.046  -6.485  34.841  1.00  0.00     0.012 A 
ENDBRANCH   1   9
BRANCH   2  15
HETATM   15  C5  UNK     1      28.696  -7.913  34.712  1.00  0.00    -0.024 A 
HETATM   16  C13 UNK     1      28.571  -6.796  35.509  1.00  0.00     0.012 A 
HETATM   17  C21 UNK     1      28.017  -6.936  36.782  1.00  0.00     0.001 A 
HETATM   18  C25 UNK     1      27.601  -8.191  37.227  1.00  0.00     0.000 A 
HETATM   19  C17 UNK     1      27.738  -9.306  36.399  1.00  0.00     0.001 A 
HETATM   20  C9  UNK     1      28.292  -9.165  35.127  1.00  0.00     0.012 A 
ENDBRANCH   2  15
BRANCH   2  21
HETATM   21  C6  UNK     1      28.385  -7.743  32.173  1.00  0.00    -0.024 A 
HETATM   22  C10 UNK     1      28.371  -8.833  31.328  1.00  0.00     0.012 A 
HETATM   23  C18 UNK     1      27.525  -8.812  30.219  1.00  0.00     0.001 A 
HETATM   24  C26 UNK     1      26.715  -7.702  29.980  1.00  0.00     0.000 A 
HETATM   25  C22 UNK     1      26.750  -6.613  30.849  1.00  0.00     0.001 A 
HETATM   26  C14 UNK     1      27.595  -6.633  31.959  1.00  0.00     0.012 A 
ENDBRANCH   2  21
TORSDOF 4
ENDMDL
MODEL 8
REMARK VINA RESULT:      -6.7      2.722      5.329
REMARK  4 active torsions:
REMARK  status: ('A' for Active; 'I' for Inactive)
REMARK    1  A    between atoms: C1_1  and  C3_3 
REMARK    2  A    between atoms: C1_1  and  C4_4 
REMARK    3  A    between atoms: C2_2  and  C5_5 
REMARK    4  A    between atoms: C2_2  and  C6_6 
ROOT
HETATM    1  C1  UNK     1      29.320  -7.743  33.385  1.00  0.00    -0.004 C 
HETATM    2  C2  UNK     1      30.681  -7.592  33.195  1.00  0.00    -0.004 C 
ENDROOT
BRANCH   1   3
HETATM    3  C3  UNK     1      28.749  -7.906  34.713  1.00  0.00    -0.024 A 
HETATM    4  C11 UNK     1      28.592  -6.798  35.546  1.00  0.00     0.012 A 
HETATM    5  C19 UNK     1      28.044  -6.955  36.819  1.00  0.00     0.001 A 
HETATM    6  C23 UNK     1      27.652  -8.220  37.258  1.00  0.00     0.000 A 
HETATM    7  C15 UNK     1      27.808  -9.328  36.425  1.00  0.00     0.001 A 
HETATM    8  C7  UNK     1      28.357  -9.171  35.152  1.00  0.00     0.012 A 
ENDBRANCH   1   3
BRANCH   1   9
HETATM    9  C4  UNK     1      28.429  -7.735  32.175  1.00  0.00    -0.024 A 
HETATM   10  C12 UNK     1      27.654  -6.627  31.947  1.00  0.00     0.012 A 
HETATM   11  C20 UNK     1      26.827  -6.619  30.824  1.00  0.00     0.001 A 
HETATM   12  C24 UNK     1      26.804  -7.721  29.968  1.00  0.00     0.000 A 
HETATM   13  C16 UNK     1      27.608  -8.829  30.234  1.00  0.00     0.001 A 
HETATM   14  C8  UNK     1      28.434  -8.836  31.358  1.00  0.00     0.012 A 
ENDBRANCH   1   9
BRANCH   2  15
HETATM   15  C5  UNK     1      31.264  -7.419  31.838  1.00  0.00    -0.024 A 
HETATM   16  C13 UNK     1      30.956  -6.284  31.120  1.00  0.00     0.012 A 
HETATM   17  C21 UNK     1      31.503  -6.123  29.848  1.00  0.00     0.001 A 
HETATM   18  C25 UNK     1      32.348  -7.101  29.323  1.00  0.00     0.000 A 
HETATM   19  C17 UNK     1      32.645  -8.241  30.071  1.00  0.00     0.001 A 
HETATM   20  C9  UNK     1      32.097  -8.401  31.343  1.00  0.00     0.012 A 
ENDBRANCH   2  15
BRANCH   2  21
HETATM   21  C6  UNK     1      31.585  -7.600  34.375  1.00  0.00    -0.024 A 
HETATM   22  C10 UNK     1      31.892  -8.806  34.969  1.00  0.00     0.012 A 
HETATM   23  C18 UNK     1      32.740  -8.813  36.077  1.00  0.00     0.001 A 
HETATM   24  C26 UNK     1      33.261  -7.615  36.564  1.00  0.00     0.000 A 
HETATM   25  C22 UNK     1      32.934  -6.409  35.946  1.00  0.00     0.001 A 
HETATM   26  C14 UNK     1      32.085  -6.401  34.838  1.00  0.00     0.012 A 
ENDBRANCH   2  21
TORSDOF 4
ENDMDL
MODEL 9
REMARK VINA RESULT:      -6.7      2.714      5.262
REMARK  4 active torsions:
REMARK  status: ('A' for Active; 'I' for Inactive)
REMARK    1  A    between atoms: C1_1  and  C3_3 
REMARK    2  A    between atoms: C1_1  and  C4_4 
REMARK    3  A    between atoms: C2_2  and  C5_5 
REMARK    4  A    between atoms: C2_2  and  C6_6 
ROOT
HETATM    1  C1  UNK     1      29.400  -7.590  33.421  1.00  0.00    -0.004 C 
HETATM    2  C2  UNK     1      30.750  -7.400  33.192  1.00  0.00    -0.004 C 
ENDROOT
BRANCH   1   3
HETATM    3  C3  UNK     1      28.868  -7.728  34.768  1.00  0.00    -0.024 A 
HETATM    4  C11 UNK     1      28.451  -8.977  35.228  1.00  0.00     0.012 A 
HETATM    5  C19 UNK     1      27.940  -9.109  36.520  1.00  0.00     0.001 A 
HETATM    6  C23 UNK     1      27.848  -7.992  37.350  1.00  0.00     0.000 A 
HETATM    7  C15 UNK     1      28.265  -6.743  36.890  1.00  0.00     0.001 A 
HETATM    8  C7  UNK     1      28.774  -6.611  35.599  1.00  0.00     0.012 A 
ENDBRANCH   1   3
BRANCH   1   9
HETATM    9  C4  UNK     1      28.479  -7.651  32.235  1.00  0.00    -0.024 A 
HETATM   10  C12 UNK     1      28.508  -8.774  31.448  1.00  0.00     0.012 A 
HETATM   11  C20 UNK     1      27.654  -8.831  30.347  1.00  0.00     0.001 A 
HETATM   12  C24 UNK     1      26.799  -7.763  30.073  1.00  0.00     0.000 A 
HETATM   13  C16 UNK     1      26.799  -6.639  30.898  1.00  0.00     0.001 A 
HETATM   14  C8  UNK     1      27.654  -6.581  31.998  1.00  0.00     0.012 A 
ENDBRANCH   1   9
BRANCH   2  15
HETATM   15  C5  UNK     1      31.293  -7.252  31.815  1.00  0.00    -0.024 A 
HETATM   16  C13 UNK     1      32.177  -8.199  31.343  1.00  0.00     0.012 A 
HETATM   17  C21 UNK     1      32.686  -8.060  30.052  1.00  0.00     0.001 A 
HETATM   18  C25 UNK     1      32.298  -6.977  29.263  1.00  0.00     0.000 A 
HETATM   19  C17 UNK     1      31.402  -6.033  29.764  1.00  0.00     0.001 A 
HETATM   20  C9  UNK     1      30.894  -6.173  31.055  1.00  0.00     0.012 A 
ENDBRANCH   2  15
BRANCH   2  21
HETATM   21  C6  UNK     1      31.683  -7.339  34.348  1.00  0.00    -0.024 A 
HETATM   22  C10 UNK     1      32.174  -6.113  34.742  1.00  0.00     0.012 A 
HETATM   23  C18 UNK     1      33.049  -6.056  35.826  1.00  0.00     0.001 A 
HETATM   24  C26 UNK     1      33.414  -7.227  36.490  1.00  0.00     0.000 A 
HETATM   25  C22 UNK     1      32.904  -8.454  36.070  1.00  0.00     0.001 A 
HETATM   26  C14 UNK     1      32.028  -8.512  34.986  1.00  0.00     0.012 A 
ENDBRANCH   2  21
TORSDOF 4
ENDMDL
MODEL 10
REMARK VINA RESULT:      -6.7      3.303      5.930
REMARK  4 active torsions:
REMARK  status: ('A' for Active; 'I' for Inactive)
REMARK    1  A    between atoms: C1_1  and  C3_3 
REMARK    2  A    between atoms: C1_1  and  C4_4 
REMARK    3  A    between atoms: C2_2  and  C5_5 
REMARK    4  A    between atoms: C2_2  and  C6_6 
ROOT
HETATM    1  C1  UNK     1      31.898  -6.880  33.266  1.00  0.00    -0.004 C 
HETATM    2  C2  UNK     1      32.676  -7.515  32.316  1.00  0.00    -0.004 C 
ENDROOT
BRANCH   1   3
HETATM    3  C3  UNK     1      32.450  -6.454  34.543  1.00  0.00    -0.024 A 
HETATM    4  C11 UNK     1      32.940  -5.156  34.693  1.00  0.00     0.012 A 
HETATM    5  C19 UNK     1      33.469  -4.748  35.917  1.00  0.00     0.001 A 
HETATM    6  C23 UNK     1      33.508  -5.638  36.991  1.00  0.00     0.000 A 
HETATM    7  C15 UNK     1      33.019  -6.935  36.841  1.00  0.00     0.001 A 
HETATM    8  C7  UNK     1      32.490  -7.343  35.617  1.00  0.00     0.012 A 
ENDBRANCH   1   3
BRANCH   1   9
HETATM    9  C4  UNK     1      30.449  -6.634  32.950  1.00  0.00    -0.024 A 
HETATM   10  C12 UNK     1      30.109  -5.453  32.342  1.00  0.00     0.012 A 
HETATM   11  C20 UNK     1      28.765  -5.225  32.049  1.00  0.00     0.001 A 
HETATM   12  C24 UNK     1      27.808  -6.187  32.373  1.00  0.00     0.000 A 
HETATM   13  C16 UNK     1      28.195  -7.375  32.991  1.00  0.00     0.001 A 
HETATM   14  C8  UNK     1      29.539  -7.603  33.285  1.00  0.00     0.012 A 
ENDBRANCH   1   9
BRANCH   2  15
HETATM   15  C5  UNK     1      32.113  -7.945  31.009  1.00  0.00    -0.024 A 
HETATM   16  C13 UNK     1      32.118  -7.055  29.956  1.00  0.00     0.012 A 
HETATM   17  C21 UNK     1      31.589  -7.460  28.731  1.00  0.00     0.001 A 
HETATM   18  C25 UNK     1      31.068  -8.746  28.586  1.00  0.00     0.000 A 
HETATM   19  C17 UNK     1      31.076  -9.627  29.667  1.00  0.00     0.001 A 
HETATM   20  C9  UNK     1      31.604  -9.222  30.892  1.00  0.00     0.012 A 
ENDBRANCH   2  15
BRANCH   2  21
HETATM   21  C6  UNK     1      34.111  -7.774  32.605  1.00  0.00    -0.024 A 
HETATM   22  C10 UNK     1      35.029  -6.774  32.361  1.00  0.00     0.012 A 
HETATM   23  C18 UNK     1      36.375  -7.017  32.632  1.00  0.00     0.001 A 
HETATM   24  C26 UNK     1      36.773  -8.254  33.140  1.00  0.00     0.000 A 
HETATM   25  C22 UNK     1      35.824  -9.248  33.377  1.00  0.00     0.001 A 
HETATM   26  C14 UNK     1      34.477  -9.005  33.106  1.00  0.00     0.012 A 
ENDBRANCH   2  21
TORSDOF 4
ENDMDL
