MODEL 1
REMARK VINA RESULT:     -10.1      0.000      0.000
REMARK  3 active torsions:
REMARK  status: ('A' for Active; 'I' for Inactive)
REMARK       I    between atoms: C19_24  and  N1_4 
REMARK    1  A    between atoms: N1_4  and  N2_5 
REMARK    2  A    between atoms: C19_24  and  C8_13 
REMARK    3  A    between atoms: C11_16  and  C20_25 
ROOT
HETATM    1  N2  UNK     1      18.728   4.727  30.895  1.00  0.00    -0.183 NA
HETATM    2  C20 UNK     1      18.431   5.020  32.120  1.00  0.00     0.156 C 
ENDROOT
BRANCH   1   3
HETATM    3  N1  UNK     1      19.267   3.494  30.738  1.00  0.00    -0.243 N 
HETATM    4  C19 UNK     1      18.417   2.422  30.538  1.00  0.00     0.271 C 
HETATM    5  O3  UNK     1      17.191   2.499  30.488  1.00  0.00    -0.266 OA
HETATM    6  H18 UNK     1      20.273   3.410  30.834  1.00  0.00     0.192 HD
BRANCH   4   7
HETATM    7  C8  UNK     1      19.071   1.096  30.396  1.00  0.00     0.034 A 
HETATM    8  C14 UNK     1      19.541   0.716  29.156  1.00  0.00     0.017 A 
HETATM    9  C13 UNK     1      20.155  -0.530  29.022  1.00  0.00     0.008 A 
HETATM   10  C4  UNK     1      20.285  -1.367  30.130  1.00  0.00    -0.056 A 
HETATM   11  C17 UNK     1      20.946  -2.695  29.962  1.00  0.00     0.049 C 
HETATM   12  C3  UNK     1      19.799  -0.958  31.373  1.00  0.00    -0.055 A 
HETATM   13  C15 UNK     1      19.926  -1.837  32.574  1.00  0.00     0.049 C 
HETATM   14  C9  UNK     1      19.186   0.288  31.507  1.00  0.00     0.024 A 
ENDBRANCH   4   7
ENDBRANCH   1   3
BRANCH   2  15
HETATM   15  C11 UNK     1      17.839   6.303  32.500  1.00  0.00     0.056 A 
HETATM   16  C7  UNK     1      18.623   7.444  33.022  1.00  0.00     0.198 A 
HETATM   17  C1  UNK     1      17.853   8.658  33.352  1.00  0.00     0.049 A 
HETATM   18  O2  UNK     1      19.836   7.387  33.172  1.00  0.00    -0.286 OA
HETATM   19  C2  UNK     1      16.470   8.658  33.159  1.00  0.00     0.089 A 
HETATM   20  C6  UNK     1      18.495   9.794  33.852  1.00  0.00     0.025 A 
HETATM   21  C10 UNK     1      15.723   9.795  33.466  1.00  0.00     0.039 A 
HETATM   22  O1  UNK     1      15.787   7.571  32.670  1.00  0.00    -0.321 OA
HETATM   23  C12 UNK     1      16.361  10.931  33.965  1.00  0.00     0.009 A 
HETATM   24  C5  UNK     1      17.744  10.930  34.158  1.00  0.00    -0.061 A 
HETATM   25  C18 UNK     1      18.420  12.147  34.692  1.00  0.00     0.048 C 
HETATM   26  C16 UNK     1      16.517   6.446  32.366  1.00  0.00     0.159 A 
ENDBRANCH   2  15
TORSDOF 3
ENDMDL
MODEL 2
REMARK VINA RESULT:      -9.9      0.792      1.967
REMARK  3 active torsions:
REMARK  status: ('A' for Active; 'I' for Inactive)
REMARK       I    between atoms: C19_24  and  N1_4 
REMARK    1  A    between atoms: N1_4  and  N2_5 
REMARK    2  A    between atoms: C19_24  and  C8_13 
REMARK    3  A    between atoms: C11_16  and  C20_25 
ROOT
HETATM    1  N2  UNK     1      18.764   4.957  31.006  1.00  0.00    -0.183 NA
HETATM    2  C20 UNK     1      18.804   5.331  32.243  1.00  0.00     0.156 C 
ENDROOT
BRANCH   1   3
HETATM    3  N1  UNK     1      19.271   3.720  30.788  1.00  0.00    -0.243 N 
HETATM    4  C19 UNK     1      18.396   2.651  30.716  1.00  0.00     0.271 C 
HETATM    5  O3  UNK     1      17.176   2.734  30.835  1.00  0.00    -0.266 OA
HETATM    6  H18 UNK     1      20.280   3.631  30.745  1.00  0.00     0.192 HD
BRANCH   4   7
HETATM    7  C8  UNK     1      19.019   1.319  30.499  1.00  0.00     0.034 A 
HETATM    8  C14 UNK     1      19.472   0.996  29.237  1.00  0.00     0.017 A 
HETATM    9  C13 UNK     1      20.057  -0.254  29.032  1.00  0.00     0.008 A 
HETATM   10  C4  UNK     1      20.174  -1.152  30.093  1.00  0.00    -0.056 A 
HETATM   11  C17 UNK     1      20.803  -2.485  29.849  1.00  0.00     0.049 C 
HETATM   12  C3  UNK     1      19.706  -0.800  31.359  1.00  0.00    -0.055 A 
HETATM   13  C15 UNK     1      19.820  -1.745  32.510  1.00  0.00     0.049 C 
HETATM   14  C9  UNK     1      19.122   0.450  31.564  1.00  0.00     0.024 A 
ENDBRANCH   4   7
ENDBRANCH   1   3
BRANCH   2  15
HETATM   15  C11 UNK     1      18.306   6.634  32.686  1.00  0.00     0.056 A 
HETATM   16  C7  UNK     1      16.902   7.072  32.522  1.00  0.00     0.198 A 
HETATM   17  C1  UNK     1      16.584   8.421  33.028  1.00  0.00     0.049 A 
HETATM   18  O2  UNK     1      16.055   6.363  31.997  1.00  0.00    -0.286 OA
HETATM   19  C2  UNK     1      17.598   9.182  33.615  1.00  0.00     0.089 A 
HETATM   20  C6  UNK     1      15.289   8.933  32.924  1.00  0.00     0.025 A 
HETATM   21  C10 UNK     1      17.319  10.460  34.100  1.00  0.00     0.039 A 
HETATM   22  O1  UNK     1      18.888   8.729  33.745  1.00  0.00    -0.321 OA
HETATM   23  C12 UNK     1      16.026  10.974  33.998  1.00  0.00     0.009 A 
HETATM   24  C5  UNK     1      15.014  10.212  33.410  1.00  0.00    -0.061 A 
HETATM   25  C18 UNK     1      13.633  10.767  33.304  1.00  0.00     0.048 C 
HETATM   26  C16 UNK     1      19.171   7.470  33.269  1.00  0.00     0.159 A 
ENDBRANCH   2  15
TORSDOF 3
ENDMDL
MODEL 3
REMARK VINA RESULT:      -9.6      1.378      9.864
REMARK  3 active torsions:
REMARK  status: ('A' for Active; 'I' for Inactive)
REMARK       I    between atoms: C19_24  and  N1_4 
REMARK    1  A    between atoms: N1_4  and  N2_5 
REMARK    2  A    between atoms: C19_24  and  C8_13 
REMARK    3  A    between atoms: C11_16  and  C20_25 
ROOT
HETATM    1  N2  UNK     1      18.482   4.712  31.552  1.00  0.00    -0.183 NA
HETATM    2  C20 UNK     1      17.852   3.589  31.423  1.00  0.00     0.156 C 
ENDROOT
BRANCH   1   3
HETATM    3  N1  UNK     1      17.742   5.698  32.111  1.00  0.00    -0.243 N 
HETATM    4  C19 UNK     1      18.399   6.757  32.711  1.00  0.00     0.271 C 
HETATM    5  O3  UNK     1      19.620   6.878  32.777  1.00  0.00    -0.266 OA
HETATM    6  H18 UNK     1      16.735   5.581  32.113  1.00  0.00     0.192 HD
BRANCH   4   7
HETATM    7  C8  UNK     1      17.529   7.793  33.326  1.00  0.00     0.034 A 
HETATM    8  C14 UNK     1      16.259   7.439  33.732  1.00  0.00     0.017 A 
HETATM    9  C13 UNK     1      15.442   8.411  34.309  1.00  0.00     0.008 A 
HETATM   10  C4  UNK     1      15.913   9.715  34.467  1.00  0.00    -0.056 A 
HETATM   11  C17 UNK     1      15.019  10.738  35.087  1.00  0.00     0.049 C 
HETATM   12  C3  UNK     1      17.201  10.046  34.047  1.00  0.00    -0.055 A 
HETATM   13  C15 UNK     1      17.727  11.435  34.205  1.00  0.00     0.049 C 
HETATM   14  C9  UNK     1      18.019   9.074  33.470  1.00  0.00     0.024 A 
ENDBRANCH   4   7
ENDBRANCH   1   3
BRANCH   2  15
HETATM   15  C11 UNK     1      18.476   2.400  30.841  1.00  0.00     0.056 A 
HETATM   16  C7  UNK     1      18.880   1.217  31.632  1.00  0.00     0.198 A 
HETATM   17  C1  UNK     1      19.496   0.113  30.872  1.00  0.00     0.049 A 
HETATM   18  O2  UNK     1      18.716   1.156  32.843  1.00  0.00    -0.286 OA
HETATM   19  C2  UNK     1      19.657   0.247  29.491  1.00  0.00     0.089 A 
HETATM   20  C6  UNK     1      19.914  -1.051  31.521  1.00  0.00     0.025 A 
HETATM   21  C10 UNK     1      20.237  -0.786  28.754  1.00  0.00     0.039 A 
HETATM   22  O1  UNK     1      19.264   1.367  28.801  1.00  0.00    -0.321 OA
HETATM   23  C12 UNK     1      20.655  -1.950  29.399  1.00  0.00     0.009 A 
HETATM   24  C5  UNK     1      20.495  -2.082  30.780  1.00  0.00    -0.061 A 
HETATM   25  C18 UNK     1      20.943  -3.329  31.464  1.00  0.00     0.048 C 
HETATM   26  C16 UNK     1      18.691   2.390  29.522  1.00  0.00     0.159 A 
ENDBRANCH   2  15
TORSDOF 3
ENDMDL
MODEL 4
REMARK VINA RESULT:      -9.4      7.160     12.946
REMARK  3 active torsions:
REMARK  status: ('A' for Active; 'I' for Inactive)
REMARK       I    between atoms: C19_24  and  N1_4 
REMARK    1  A    between atoms: N1_4  and  N2_5 
REMARK    2  A    between atoms: C19_24  and  C8_13 
REMARK    3  A    between atoms: C11_16  and  C20_25 
ROOT
HETATM    1  N2  UNK     1      20.502  -3.161  35.396  1.00  0.00    -0.183 NA
HETATM    2  C20 UNK     1      19.701  -4.170  35.520  1.00  0.00     0.156 C 
ENDROOT
BRANCH   1   3
HETATM    3  N1  UNK     1      20.122  -2.269  34.451  1.00  0.00    -0.243 N 
HETATM    4  C19 UNK     1      20.526  -2.477  33.145  1.00  0.00     0.271 C 
HETATM    5  O3  UNK     1      21.213  -3.423  32.766  1.00  0.00    -0.266 OA
HETATM    6  H18 UNK     1      19.603  -1.454  34.761  1.00  0.00     0.192 HD
BRANCH   4   7
HETATM    7  C8  UNK     1      20.095  -1.449  32.163  1.00  0.00     0.034 A 
HETATM    8  C14 UNK     1      19.245  -0.446  32.580  1.00  0.00     0.017 A 
HETATM    9  C13 UNK     1      18.840   0.519  31.658  1.00  0.00     0.008 A 
HETATM   10  C4  UNK     1      19.292   0.459  30.340  1.00  0.00    -0.056 A 
HETATM   11  C17 UNK     1      18.844   1.504  29.371  1.00  0.00     0.049 C 
HETATM   12  C3  UNK     1      20.151  -0.567  29.944  1.00  0.00    -0.055 A 
HETATM   13  C15 UNK     1      20.649  -0.652  28.539  1.00  0.00     0.049 C 
HETATM   14  C9  UNK     1      20.557  -1.532  30.866  1.00  0.00     0.024 A 
ENDBRANCH   4   7
ENDBRANCH   1   3
BRANCH   2  15
HETATM   15  C11 UNK     1      19.935  -5.243  36.486  1.00  0.00     0.056 A 
HETATM   16  C7  UNK     1      19.542  -6.651  36.257  1.00  0.00     0.198 A 
HETATM   17  C1  UNK     1      19.859  -7.595  37.345  1.00  0.00     0.049 A 
HETATM   18  O2  UNK     1      18.988  -7.014  35.228  1.00  0.00    -0.286 OA
HETATM   19  C2  UNK     1      20.491  -7.117  38.496  1.00  0.00     0.089 A 
HETATM   20  C6  UNK     1      19.532  -8.948  37.232  1.00  0.00     0.025 A 
HETATM   21  C10 UNK     1      20.799  -7.992  39.537  1.00  0.00     0.039 A 
HETATM   22  O1  UNK     1      20.836  -5.798  38.661  1.00  0.00    -0.321 OA
HETATM   23  C12 UNK     1      20.474  -9.344  39.426  1.00  0.00     0.009 A 
HETATM   24  C5  UNK     1      19.841  -9.821  38.277  1.00  0.00    -0.061 A 
HETATM   25  C18 UNK     1      19.496 -11.268  38.164  1.00  0.00     0.048 C 
HETATM   26  C16 UNK     1      20.536  -4.929  37.638  1.00  0.00     0.159 A 
ENDBRANCH   2  15
TORSDOF 3
ENDMDL
MODEL 5
REMARK VINA RESULT:      -9.3      1.622      2.266
REMARK  3 active torsions:
REMARK  status: ('A' for Active; 'I' for Inactive)
REMARK       I    between atoms: C19_24  and  N1_4 
REMARK    1  A    between atoms: N1_4  and  N2_5 
REMARK    2  A    between atoms: C19_24  and  C8_13 
REMARK    3  A    between atoms: C11_16  and  C20_25 
ROOT
HETATM    1  N2  UNK     1      17.205   5.471  32.720  1.00  0.00    -0.183 NA
HETATM    2  C20 UNK     1      16.592   6.474  32.178  1.00  0.00     0.156 C 
ENDROOT
BRANCH   1   3
HETATM    3  N1  UNK     1      17.610   4.529  31.834  1.00  0.00    -0.243 N 
HETATM    4  C19 UNK     1      17.986   3.289  32.315  1.00  0.00     0.271 C 
HETATM    5  O3  UNK     1      17.980   2.965  33.501  1.00  0.00    -0.266 OA
HETATM    6  H18 UNK     1      17.673   4.803  30.859  1.00  0.00     0.192 HD
BRANCH   4   7
HETATM    7  C8  UNK     1      18.441   2.310  31.294  1.00  0.00     0.034 A 
HETATM    8  C14 UNK     1      18.198   2.576  29.963  1.00  0.00     0.017 A 
HETATM    9  C13 UNK     1      18.625   1.658  29.004  1.00  0.00     0.008 A 
HETATM   10  C4  UNK     1      19.285   0.494  29.398  1.00  0.00    -0.056 A 
HETATM   11  C17 UNK     1      19.732  -0.475  28.353  1.00  0.00     0.049 C 
HETATM   12  C3  UNK     1      19.517   0.248  30.751  1.00  0.00    -0.055 A 
HETATM   13  C15 UNK     1      20.222  -0.991  31.197  1.00  0.00     0.049 C 
HETATM   14  C9  UNK     1      19.091   1.167  31.710  1.00  0.00     0.024 A 
ENDBRANCH   4   7
ENDBRANCH   1   3
BRANCH   2  15
HETATM   15  C11 UNK     1      16.077   7.596  32.963  1.00  0.00     0.056 A 
HETATM   16  C7  UNK     1      16.856   8.820  33.251  1.00  0.00     0.198 A 
HETATM   17  C1  UNK     1      16.172   9.845  34.061  1.00  0.00     0.049 A 
HETATM   18  O2  UNK     1      18.000   8.975  32.845  1.00  0.00    -0.286 OA
HETATM   19  C2  UNK     1      14.866   9.606  34.496  1.00  0.00     0.089 A 
HETATM   20  C6  UNK     1      16.817  11.040  34.391  1.00  0.00     0.025 A 
HETATM   21  C10 UNK     1      14.200  10.562  35.264  1.00  0.00     0.039 A 
HETATM   22  O1  UNK     1      14.184   8.451  34.202  1.00  0.00    -0.321 OA
HETATM   23  C12 UNK     1      14.842  11.756  35.594  1.00  0.00     0.009 A 
HETATM   24  C5  UNK     1      16.147  11.994  35.159  1.00  0.00    -0.061 A 
HETATM   25  C18 UNK     1      16.827  13.272  35.516  1.00  0.00     0.048 C 
HETATM   26  C16 UNK     1      14.834   7.503  33.446  1.00  0.00     0.159 A 
ENDBRANCH   2  15
TORSDOF 3
ENDMDL
MODEL 6
REMARK VINA RESULT:      -9.2      1.575      2.769
REMARK  3 active torsions:
REMARK  status: ('A' for Active; 'I' for Inactive)
REMARK       I    between atoms: C19_24  and  N1_4 
REMARK    1  A    between atoms: N1_4  and  N2_5 
REMARK    2  A    between atoms: C19_24  and  C8_13 
REMARK    3  A    between atoms: C11_16  and  C20_25 
ROOT
HETATM    1  N2  UNK     1      18.196   5.676  32.200  1.00  0.00    -0.183 NA
HETATM    2  C20 UNK     1      17.491   6.615  31.656  1.00  0.00     0.156 C 
ENDROOT
BRANCH   1   3
HETATM    3  N1  UNK     1      18.484   4.650  31.364  1.00  0.00    -0.243 N 
HETATM    4  C19 UNK     1      18.222   3.360  31.787  1.00  0.00     0.271 C 
HETATM    5  O3  UNK     1      17.738   3.064  32.877  1.00  0.00    -0.266 OA
HETATM    6  H18 UNK     1      18.936   4.878  30.485  1.00  0.00     0.192 HD
BRANCH   4   7
HETATM    7  C8  UNK     1      18.583   2.280  30.833  1.00  0.00     0.034 A 
HETATM    8  C14 UNK     1      18.095   2.342  29.544  1.00  0.00     0.017 A 
HETATM    9  C13 UNK     1      18.434   1.328  28.647  1.00  0.00     0.008 A 
HETATM   10  C4  UNK     1      19.252   0.276  29.060  1.00  0.00    -0.056 A 
HETATM   11  C17 UNK     1      19.600  -0.798  28.082  1.00  0.00     0.049 C 
HETATM   12  C3  UNK     1      19.730   0.237  30.369  1.00  0.00    -0.055 A 
HETATM   13  C15 UNK     1      20.607  -0.879  30.834  1.00  0.00     0.049 C 
HETATM   14  C9  UNK     1      19.392   1.251  31.266  1.00  0.00     0.024 A 
ENDBRANCH   4   7
ENDBRANCH   1   3
BRANCH   2  15
HETATM   15  C11 UNK     1      17.075   7.810  32.392  1.00  0.00     0.056 A 
HETATM   16  C7  UNK     1      15.710   8.377  32.328  1.00  0.00     0.198 A 
HETATM   17  C1  UNK     1      15.476   9.587  33.138  1.00  0.00     0.049 A 
HETATM   18  O2  UNK     1      14.827   7.875  31.646  1.00  0.00    -0.286 OA
HETATM   19  C2  UNK     1      16.527  10.112  33.894  1.00  0.00     0.089 A 
HETATM   20  C6  UNK     1      14.222  10.204  33.151  1.00  0.00     0.025 A 
HETATM   21  C10 UNK     1      16.327  11.257  34.666  1.00  0.00     0.039 A 
HETATM   22  O1  UNK     1      17.778   9.548  33.920  1.00  0.00    -0.321 OA
HETATM   23  C12 UNK     1      15.076  11.874  34.681  1.00  0.00     0.009 A 
HETATM   24  C5  UNK     1      14.026  11.349  33.925  1.00  0.00    -0.061 A 
HETATM   25  C18 UNK     1      12.691  12.014  33.945  1.00  0.00     0.048 C 
HETATM   26  C16 UNK     1      17.983   8.419  33.161  1.00  0.00     0.159 A 
ENDBRANCH   2  15
TORSDOF 3
ENDMDL
MODEL 7
REMARK VINA RESULT:      -9.2      5.484      8.056
REMARK  3 active torsions:
REMARK  status: ('A' for Active; 'I' for Inactive)
REMARK       I    between atoms: C19_24  and  N1_4 
REMARK    1  A    between atoms: N1_4  and  N2_5 
REMARK    2  A    between atoms: C19_24  and  C8_13 
REMARK    3  A    between atoms: C11_16  and  C20_25 
ROOT
HETATM    1  N2  UNK     1      19.906  -1.564  35.714  1.00  0.00    -0.183 NA
HETATM    2  C20 UNK     1      18.762  -1.194  35.236  1.00  0.00     0.156 C 
ENDROOT
BRANCH   1   3
HETATM    3  N1  UNK     1      19.846  -2.671  36.491  1.00  0.00    -0.243 N 
HETATM    4  C19 UNK     1      20.092  -3.901  35.909  1.00  0.00     0.271 C 
HETATM    5  O3  UNK     1      20.366  -4.073  34.724  1.00  0.00    -0.266 OA
HETATM    6  H18 UNK     1      19.564  -2.548  37.458  1.00  0.00     0.192 HD
BRANCH   4   7
HETATM    7  C8  UNK     1      19.987  -5.077  36.811  1.00  0.00     0.034 A 
HETATM    8  C14 UNK     1      18.841  -5.844  36.773  1.00  0.00     0.017 A 
HETATM    9  C13 UNK     1      18.742  -6.948  37.621  1.00  0.00     0.008 A 
HETATM   10  C4  UNK     1      19.790  -7.259  38.487  1.00  0.00    -0.056 A 
HETATM   11  C17 UNK     1      19.661  -8.445  39.385  1.00  0.00     0.049 C 
HETATM   12  C3  UNK     1      20.938  -6.465  38.506  1.00  0.00    -0.055 A 
HETATM   13  C15 UNK     1      22.073  -6.778  39.425  1.00  0.00     0.049 C 
HETATM   14  C9  UNK     1      21.037  -5.362  37.658  1.00  0.00     0.024 A 
ENDBRANCH   4   7
ENDBRANCH   1   3
BRANCH   2  15
HETATM   15  C11 UNK     1      18.614  -0.021  34.374  1.00  0.00     0.056 A 
HETATM   16  C7  UNK     1      18.478   1.360  34.886  1.00  0.00     0.198 A 
HETATM   17  C1  UNK     1      18.338   2.416  33.865  1.00  0.00     0.049 A 
HETATM   18  O2  UNK     1      18.480   1.615  36.082  1.00  0.00    -0.286 OA
HETATM   19  C2  UNK     1      18.341   2.059  32.514  1.00  0.00     0.089 A 
HETATM   20  C6  UNK     1      18.203   3.755  34.239  1.00  0.00     0.025 A 
HETATM   21  C10 UNK     1      18.209   3.041  31.533  1.00  0.00     0.039 A 
HETATM   22  O1  UNK     1      18.471   0.760  32.089  1.00  0.00    -0.321 OA
HETATM   23  C12 UNK     1      18.075   4.379  31.904  1.00  0.00     0.009 A 
HETATM   24  C5  UNK     1      18.071   4.735  33.254  1.00  0.00    -0.061 A 
HETATM   25  C18 UNK     1      17.927   6.167  33.645  1.00  0.00     0.048 C 
HETATM   26  C16 UNK     1      18.601  -0.215  33.051  1.00  0.00     0.159 A 
ENDBRANCH   2  15
TORSDOF 3
ENDMDL
MODEL 8
REMARK VINA RESULT:      -9.2      5.765      8.442
REMARK  3 active torsions:
REMARK  status: ('A' for Active; 'I' for Inactive)
REMARK       I    between atoms: C19_24  and  N1_4 
REMARK    1  A    between atoms: N1_4  and  N2_5 
REMARK    2  A    between atoms: C19_24  and  C8_13 
REMARK    3  A    between atoms: C11_16  and  C20_25 
ROOT
HETATM    1  N2  UNK     1      18.866  -1.634  36.641  1.00  0.00    -0.183 NA
HETATM    2  C20 UNK     1      18.257  -1.335  35.539  1.00  0.00     0.156 C 
ENDROOT
BRANCH   1   3
HETATM    3  N1  UNK     1      18.753  -2.935  36.997  1.00  0.00    -0.243 N 
HETATM    4  C19 UNK     1      19.850  -3.762  36.837  1.00  0.00     0.271 C 
HETATM    5  O3  UNK     1      20.938  -3.404  36.391  1.00  0.00    -0.266 OA
HETATM    6  H18 UNK     1      17.844  -3.255  37.313  1.00  0.00     0.192 HD
BRANCH   4   7
HETATM    7  C8  UNK     1      19.652  -5.182  37.225  1.00  0.00     0.034 A 
HETATM    8  C14 UNK     1      18.631  -5.897  36.634  1.00  0.00     0.017 A 
HETATM    9  C13 UNK     1      18.445  -7.230  36.999  1.00  0.00     0.008 A 
HETATM   10  C4  UNK     1      19.283  -7.819  37.946  1.00  0.00    -0.056 A 
HETATM   11  C17 UNK     1      19.063  -9.248  38.320  1.00  0.00     0.049 C 
HETATM   12  C3  UNK     1      20.307  -7.073  38.529  1.00  0.00    -0.055 A 
HETATM   13  C15 UNK     1      21.217  -7.680  39.545  1.00  0.00     0.049 C 
HETATM   14  C9  UNK     1      20.494  -5.739  38.164  1.00  0.00     0.024 A 
ENDBRANCH   4   7
ENDBRANCH   1   3
BRANCH   2  15
HETATM   15  C11 UNK     1      18.259   0.019  34.983  1.00  0.00     0.056 A 
HETATM   16  C7  UNK     1      18.380   0.310  33.538  1.00  0.00     0.198 A 
HETATM   17  C1  UNK     1      18.364   1.737  33.164  1.00  0.00     0.049 A 
HETATM   18  O2  UNK     1      18.488  -0.576  32.702  1.00  0.00    -0.286 OA
HETATM   19  C2  UNK     1      18.240   2.700  34.168  1.00  0.00     0.089 A 
HETATM   20  C6  UNK     1      18.473   2.123  31.825  1.00  0.00     0.025 A 
HETATM   21  C10 UNK     1      18.223   4.055  33.836  1.00  0.00     0.039 A 
HETATM   22  O1  UNK     1      18.129   2.379  35.498  1.00  0.00    -0.321 OA
HETATM   23  C12 UNK     1      18.330   4.444  32.500  1.00  0.00     0.009 A 
HETATM   24  C5  UNK     1      18.456   3.480  31.498  1.00  0.00    -0.061 A 
HETATM   25  C18 UNK     1      18.570   3.902  30.071  1.00  0.00     0.048 C 
HETATM   26  C16 UNK     1      18.145   1.045  35.833  1.00  0.00     0.159 A 
ENDBRANCH   2  15
TORSDOF 3
ENDMDL
MODEL 9
REMARK VINA RESULT:      -8.9      6.475     12.640
REMARK  3 active torsions:
REMARK  status: ('A' for Active; 'I' for Inactive)
REMARK       I    between atoms: C19_24  and  N1_4 
REMARK    1  A    between atoms: N1_4  and  N2_5 
REMARK    2  A    between atoms: C19_24  and  C8_13 
REMARK    3  A    between atoms: C11_16  and  C20_25 
ROOT
HETATM    1  N2  UNK     1      19.556  -2.576  35.667  1.00  0.00    -0.183 NA
HETATM    2  C20 UNK     1      20.038  -3.738  35.363  1.00  0.00     0.156 C 
ENDROOT
BRANCH   1   3
HETATM    3  N1  UNK     1      19.597  -1.680  34.653  1.00  0.00    -0.243 N 
HETATM    4  C19 UNK     1      18.512  -0.843  34.467  1.00  0.00     0.271 C 
HETATM    5  O3  UNK     1      17.497  -0.846  35.160  1.00  0.00    -0.266 OA
HETATM    6  H18 UNK     1      20.404  -1.707  34.039  1.00  0.00     0.192 HD
BRANCH   4   7
HETATM    7  C8  UNK     1      18.610   0.100  33.323  1.00  0.00     0.034 A 
HETATM    8  C14 UNK     1      18.150   1.391  33.484  1.00  0.00     0.017 A 
HETATM    9  C13 UNK     1      18.242   2.276  32.410  1.00  0.00     0.008 A 
HETATM   10  C4  UNK     1      18.792   1.852  31.201  1.00  0.00    -0.056 A 
HETATM   11  C17 UNK     1      18.880   2.818  30.065  1.00  0.00     0.049 C 
HETATM   12  C3  UNK     1      19.249   0.541  31.064  1.00  0.00    -0.055 A 
HETATM   13  C15 UNK     1      19.842   0.063  29.780  1.00  0.00     0.049 C 
HETATM   14  C9  UNK     1      19.158  -0.345  32.139  1.00  0.00     0.024 A 
ENDBRANCH   4   7
ENDBRANCH   1   3
BRANCH   2  15
HETATM   15  C11 UNK     1      20.085  -4.843  36.320  1.00  0.00     0.056 A 
HETATM   16  C7  UNK     1      19.836  -6.255  35.954  1.00  0.00     0.198 A 
HETATM   17  C1  UNK     1      19.926  -7.233  37.054  1.00  0.00     0.049 A 
HETATM   18  O2  UNK     1      19.571  -6.594  34.809  1.00  0.00    -0.286 OA
HETATM   19  C2  UNK     1      20.231  -6.781  38.340  1.00  0.00     0.089 A 
HETATM   20  C6  UNK     1      19.709  -8.593  36.818  1.00  0.00     0.025 A 
HETATM   21  C10 UNK     1      20.321  -7.689  39.396  1.00  0.00     0.039 A 
HETATM   22  O1  UNK     1      20.455  -5.458  38.630  1.00  0.00    -0.321 OA
HETATM   23  C12 UNK     1      20.105  -9.047  39.163  1.00  0.00     0.009 A 
HETATM   24  C5  UNK     1      19.799  -9.498  37.877  1.00  0.00    -0.061 A 
HETATM   25  C18 UNK     1      19.569 -10.951  37.634  1.00  0.00     0.048 C 
HETATM   26  C16 UNK     1      20.368  -4.556  37.595  1.00  0.00     0.159 A 
ENDBRANCH   2  15
TORSDOF 3
ENDMDL
MODEL 10
REMARK VINA RESULT:      -8.9      1.626      2.877
REMARK  3 active torsions:
REMARK  status: ('A' for Active; 'I' for Inactive)
REMARK       I    between atoms: C19_24  and  N1_4 
REMARK    1  A    between atoms: N1_4  and  N2_5 
REMARK    2  A    between atoms: C19_24  and  C8_13 
REMARK    3  A    between atoms: C11_16  and  C20_25 
ROOT
HETATM    1  N2  UNK     1      17.138   5.391  32.317  1.00  0.00    -0.183 NA
HETATM    2  C20 UNK     1      17.553   6.039  33.357  1.00  0.00     0.156 C 
ENDROOT
BRANCH   1   3
HETATM    3  N1  UNK     1      17.545   4.100  32.274  1.00  0.00    -0.243 N 
HETATM    4  C19 UNK     1      18.355   3.697  31.227  1.00  0.00     0.271 C 
HETATM    5  O3  UNK     1      18.743   4.429  30.319  1.00  0.00    -0.266 OA
HETATM    6  H18 UNK     1      17.185   3.473  32.986  1.00  0.00     0.192 HD
BRANCH   4   7
HETATM    7  C8  UNK     1      18.747   2.264  31.227  1.00  0.00     0.034 A 
HETATM    8  C14 UNK     1      18.612   1.538  32.392  1.00  0.00     0.017 A 
HETATM    9  C13 UNK     1      18.980   0.192  32.392  1.00  0.00     0.008 A 
HETATM   10  C4  UNK     1      19.475  -0.396  31.229  1.00  0.00    -0.056 A 
HETATM   11  C17 UNK     1      19.863  -1.838  31.254  1.00  0.00     0.049 C 
HETATM   12  C3  UNK     1      19.603   0.362  30.064  1.00  0.00    -0.055 A 
HETATM   13  C15 UNK     1      20.131  -0.246  28.806  1.00  0.00     0.049 C 
HETATM   14  C9  UNK     1      19.234   1.707  30.063  1.00  0.00     0.024 A 
ENDBRANCH   4   7
ENDBRANCH   1   3
BRANCH   2  15
HETATM   15  C11 UNK     1      17.221   7.445  33.589  1.00  0.00     0.056 A 
HETATM   16  C7  UNK     1      15.898   7.907  34.064  1.00  0.00     0.198 A 
HETATM   17  C1  UNK     1      15.748   9.364  34.239  1.00  0.00     0.049 A 
HETATM   18  O2  UNK     1      14.982   7.131  34.296  1.00  0.00    -0.286 OA
HETATM   19  C2  UNK     1      16.833  10.197  33.954  1.00  0.00     0.089 A 
HETATM   20  C6  UNK     1      14.540   9.907  34.683  1.00  0.00     0.025 A 
HETATM   21  C10 UNK     1      16.712  11.578  34.113  1.00  0.00     0.039 A 
HETATM   22  O1  UNK     1      18.043   9.719  33.515  1.00  0.00    -0.321 OA
HETATM   23  C12 UNK     1      15.507  12.123  34.557  1.00  0.00     0.009 A 
HETATM   24  C5  UNK     1      14.424  11.289  34.841  1.00  0.00    -0.061 A 
HETATM   25  C18 UNK     1      13.138  11.878  35.315  1.00  0.00     0.048 C 
HETATM   26  C16 UNK     1      18.170   8.359  33.356  1.00  0.00     0.159 A 
ENDBRANCH   2  15
TORSDOF 3
ENDMDL
