MODEL 1
REMARK VINA RESULT:      -9.6      0.000      0.000
REMARK  2 active torsions:
REMARK  status: ('A' for Active; 'I' for Inactive)
REMARK       I    between atoms: C5_11  and  N1_5 
REMARK    1  A    between atoms: C8_14  and  N1_5 
REMARK    2  A    between atoms: C2_8  and  C5_11 
ROOT
HETATM    1  O2  UNK     1      17.600   2.327  31.979  1.00  0.00    -0.267 OA
HETATM    2  N1  UNK     1      19.223   2.850  30.382  1.00  0.00    -0.318 N 
HETATM    3  C5  UNK     1      18.349   3.127  31.419  1.00  0.00     0.262 C 
HETATM    4  H4  UNK     1      19.812   3.585  30.001  1.00  0.00     0.169 HD
ENDROOT
BRANCH   3   5
HETATM    5  C2  UNK     1      18.382   4.536  31.829  1.00  0.00     0.108 A 
HETATM    6  C4  UNK     1      17.712   4.843  32.947  1.00  0.00     0.037 A 
HETATM    7  C1  UNK     1      17.686   6.214  33.433  1.00  0.00    -0.001 A 
HETATM    8  C3  UNK     1      18.366   7.195  32.717  1.00  0.00     0.089 A 
HETATM    9  C6  UNK     1      17.002   6.579  34.595  1.00  0.00     0.014 A 
HETATM   10  O1  UNK     1      19.068   6.865  31.541  1.00  0.00    -0.274 OA
HETATM   11  C9  UNK     1      18.379   8.526  33.129  1.00  0.00     0.038 A 
HETATM   12  C7  UNK     1      19.111   5.563  31.052  1.00  0.00     0.304 A 
HETATM   13  O3  UNK     1      19.724   5.285  30.027  1.00  0.00    -0.259 OA
HETATM   14  C11 UNK     1      17.694   8.882  34.288  1.00  0.00     0.003 A 
HETATM   15  C10 UNK     1      17.006   7.911  35.020  1.00  0.00     0.001 A 
ENDBRANCH   3   5
BRANCH   2  16
HETATM   16  C8  UNK     1      19.374   1.612  29.827  1.00  0.00     0.103 A 
HETATM   17  C12 UNK     1      18.567   1.285  28.606  1.00  0.00     0.272 A 
HETATM   18  O4  UNK     1      17.793   2.103  28.114  1.00  0.00    -0.266 OA
HETATM   19  N2  UNK     1      18.764   0.012  28.089  1.00  0.00    -0.332 N 
HETATM   20  C15 UNK     1      19.628  -0.905  28.634  1.00  0.00     0.091 A 
HETATM   21  H8  UNK     1      18.244  -0.266  27.262  1.00  0.00     0.168 HD
HETATM   22  C14 UNK     1      20.346  -0.609  29.723  1.00  0.00     0.020 A 
HETATM   23  C13 UNK     1      20.209   0.691  30.334  1.00  0.00     0.037 A 
ENDBRANCH   2  16
TORSDOF 2
ENDMDL
MODEL 2
REMARK VINA RESULT:      -9.4      8.404      9.696
REMARK  2 active torsions:
REMARK  status: ('A' for Active; 'I' for Inactive)
REMARK       I    between atoms: C5_11  and  N1_5 
REMARK    1  A    between atoms: C8_14  and  N1_5 
REMARK    2  A    between atoms: C2_8  and  C5_11 
ROOT
HETATM    1  O2  UNK     1      21.069  -4.725  36.821  1.00  0.00    -0.267 OA
HETATM    2  N1  UNK     1      18.784  -5.208  36.756  1.00  0.00    -0.318 N 
HETATM    3  C5  UNK     1      19.898  -4.393  36.642  1.00  0.00     0.262 C 
HETATM    4  H4  UNK     1      17.858  -4.834  36.569  1.00  0.00     0.169 HD
ENDROOT
BRANCH   3   5
HETATM    5  C2  UNK     1      19.558  -3.015  36.269  1.00  0.00     0.108 A 
HETATM    6  C4  UNK     1      18.855  -2.315  37.167  1.00  0.00     0.037 A 
HETATM    7  C1  UNK     1      18.470  -0.941  36.887  1.00  0.00    -0.001 A 
HETATM    8  C3  UNK     1      18.843  -0.371  35.674  1.00  0.00     0.089 A 
HETATM    9  C6  UNK     1      17.737  -0.172  37.795  1.00  0.00     0.014 A 
HETATM   10  O1  UNK     1      19.582  -1.113  34.732  1.00  0.00    -0.274 OA
HETATM   11  C9  UNK     1      18.505   0.940  35.344  1.00  0.00     0.038 A 
HETATM   12  C7  UNK     1      19.966  -2.429  34.972  1.00  0.00     0.304 A 
HETATM   13  O3  UNK     1      20.608  -3.069  34.146  1.00  0.00    -0.259 OA
HETATM   14  C11 UNK     1      17.774   1.699  36.255  1.00  0.00     0.003 A 
HETATM   15  C10 UNK     1      17.391   1.145  37.478  1.00  0.00     0.001 A 
ENDBRANCH   3   5
BRANCH   2  16
HETATM   16  C8  UNK     1      18.842  -6.529  37.093  1.00  0.00     0.103 A 
HETATM   17  C12 UNK     1      18.390  -7.536  36.078  1.00  0.00     0.272 A 
HETATM   18  O4  UNK     1      17.980  -7.188  34.973  1.00  0.00    -0.266 OA
HETATM   19  N2  UNK     1      18.472  -8.862  36.480  1.00  0.00    -0.332 N 
HETATM   20  C15 UNK     1      18.931  -9.255  37.712  1.00  0.00     0.091 A 
HETATM   21  H8  UNK     1      18.180  -9.588  35.833  1.00  0.00     0.168 HD
HETATM   22  C14 UNK     1      19.334  -8.354  38.615  1.00  0.00     0.020 A 
HETATM   23  C13 UNK     1      19.284  -6.950  38.289  1.00  0.00     0.037 A 
ENDBRANCH   2  16
TORSDOF 2
ENDMDL
MODEL 3
REMARK VINA RESULT:      -9.4      2.012      7.270
REMARK  2 active torsions:
REMARK  status: ('A' for Active; 'I' for Inactive)
REMARK       I    between atoms: C5_11  and  N1_5 
REMARK    1  A    between atoms: C8_14  and  N1_5 
REMARK    2  A    between atoms: C2_8  and  C5_11 
ROOT
HETATM    1  O2  UNK     1      17.602   3.497  32.746  1.00  0.00    -0.267 OA
HETATM    2  N1  UNK     1      18.736   4.915  31.275  1.00  0.00    -0.318 N 
HETATM    3  C5  UNK     1      18.280   3.692  31.738  1.00  0.00     0.262 C 
HETATM    4  H4  UNK     1      19.278   4.966  30.417  1.00  0.00     0.169 HD
ENDROOT
BRANCH   3   5
HETATM    5  C2  UNK     1      18.691   2.572  30.882  1.00  0.00     0.108 A 
HETATM    6  C4  UNK     1      19.120   1.473  31.513  1.00  0.00     0.037 A 
HETATM    7  C1  UNK     1      19.549   0.311  30.750  1.00  0.00    -0.001 A 
HETATM    8  C3  UNK     1      19.507   0.364  29.360  1.00  0.00     0.089 A 
HETATM    9  C6  UNK     1      20.004  -0.858  31.366  1.00  0.00     0.014 A 
HETATM   10  O1  UNK     1      19.054   1.525  28.703  1.00  0.00    -0.274 OA
HETATM   11  C9  UNK     1      19.904  -0.714  28.572  1.00  0.00     0.038 A 
HETATM   12  C7  UNK     1      18.636   2.651  29.405  1.00  0.00     0.304 A 
HETATM   13  O3  UNK     1      18.245   3.658  28.824  1.00  0.00    -0.259 OA
HETATM   14  C11 UNK     1      20.357  -1.875  29.195  1.00  0.00     0.003 A 
HETATM   15  C10 UNK     1      20.406  -1.948  30.588  1.00  0.00     0.001 A 
ENDBRANCH   3   5
BRANCH   2  16
HETATM   16  C8  UNK     1      18.485   6.103  31.899  1.00  0.00     0.103 A 
HETATM   17  C12 UNK     1      19.543   6.662  32.803  1.00  0.00     0.272 A 
HETATM   18  O4  UNK     1      20.607   6.074  32.980  1.00  0.00    -0.266 OA
HETATM   19  N2  UNK     1      19.228   7.871  33.407  1.00  0.00    -0.332 N 
HETATM   20  C15 UNK     1      18.041   8.533  33.211  1.00  0.00     0.091 A 
HETATM   21  H8  UNK     1      19.907   8.298  34.030  1.00  0.00     0.168 HD
HETATM   22  C14 UNK     1      17.100   8.031  32.404  1.00  0.00     0.020 A 
HETATM   23  C13 UNK     1      17.336   6.776  31.731  1.00  0.00     0.037 A 
ENDBRANCH   2  16
TORSDOF 2
ENDMDL
MODEL 4
REMARK VINA RESULT:      -9.3      1.212      1.685
REMARK  2 active torsions:
REMARK  status: ('A' for Active; 'I' for Inactive)
REMARK       I    between atoms: C5_11  and  N1_5 
REMARK    1  A    between atoms: C8_14  and  N1_5 
REMARK    2  A    between atoms: C2_8  and  C5_11 
ROOT
HETATM    1  O2  UNK     1      17.187   2.487  30.516  1.00  0.00    -0.267 OA
HETATM    2  N1  UNK     1      19.469   2.226  30.943  1.00  0.00    -0.318 N 
HETATM    3  C5  UNK     1      18.267   2.914  30.922  1.00  0.00     0.262 C 
HETATM    4  H4  UNK     1      20.304   2.669  31.317  1.00  0.00     0.169 HD
ENDROOT
BRANCH   3   5
HETATM    5  C2  UNK     1      18.384   4.277  31.453  1.00  0.00     0.108 A 
HETATM    6  C4  UNK     1      17.727   4.526  32.593  1.00  0.00     0.037 A 
HETATM    7  C1  UNK     1      17.782   5.848  33.197  1.00  0.00    -0.001 A 
HETATM    8  C3  UNK     1      18.524   6.844  32.571  1.00  0.00     0.089 A 
HETATM    9  C6  UNK     1      17.114   6.152  34.386  1.00  0.00     0.014 A 
HETATM   10  O1  UNK     1      19.212   6.576  31.371  1.00  0.00    -0.274 OA
HETATM   11  C9  UNK     1      18.616   8.131  33.097  1.00  0.00     0.038 A 
HETATM   12  C7  UNK     1      19.180   5.322  30.770  1.00  0.00     0.304 A 
HETATM   13  O3  UNK     1      19.781   5.097  29.725  1.00  0.00    -0.259 OA
HETATM   14  C11 UNK     1      17.947   8.426  34.282  1.00  0.00     0.003 A 
HETATM   15  C10 UNK     1      17.197   7.439  34.926  1.00  0.00     0.001 A 
ENDBRANCH   3   5
BRANCH   2  16
HETATM   16  C8  UNK     1      19.617   0.943  30.502  1.00  0.00     0.103 A 
HETATM   17  C12 UNK     1      19.427  -0.168  31.490  1.00  0.00     0.272 A 
HETATM   18  O4  UNK     1      19.145   0.062  32.664  1.00  0.00    -0.266 OA
HETATM   19  N2  UNK     1      19.591  -1.449  30.981  1.00  0.00    -0.332 N 
HETATM   20  C15 UNK     1      19.903  -1.712  29.670  1.00  0.00     0.091 A 
HETATM   21  H8  UNK     1      19.474  -2.242  31.604  1.00  0.00     0.168 HD
HETATM   22  C14 UNK     1      20.072  -0.717  28.792  1.00  0.00     0.020 A 
HETATM   23  C13 UNK     1      19.923   0.650  29.228  1.00  0.00     0.037 A 
ENDBRANCH   2  16
TORSDOF 2
ENDMDL
MODEL 5
REMARK VINA RESULT:      -9.3     13.139     17.816
REMARK  2 active torsions:
REMARK  status: ('A' for Active; 'I' for Inactive)
REMARK       I    between atoms: C5_11  and  N1_5 
REMARK    1  A    between atoms: C8_14  and  N1_5 
REMARK    2  A    between atoms: C2_8  and  C5_11 
ROOT
HETATM    1  O2  UNK     1      17.137  -1.434  17.227  1.00  0.00    -0.267 OA
HETATM    2  N1  UNK     1      19.283  -0.524  17.088  1.00  0.00    -0.318 N 
HETATM    3  C5  UNK     1      18.226  -1.314  16.669  1.00  0.00     0.262 C 
HETATM    4  H4  UNK     1      20.139  -0.483  16.540  1.00  0.00     0.169 HD
ENDROOT
BRANCH   3   5
HETATM    5  C2  UNK     1      18.520  -2.044  15.430  1.00  0.00     0.108 A 
HETATM    6  C4  UNK     1      18.170  -3.335  15.408  1.00  0.00     0.037 A 
HETATM    7  C1  UNK     1      18.420  -4.143  14.224  1.00  0.00    -0.001 A 
HETATM    8  C3  UNK     1      19.029  -3.550  13.121  1.00  0.00     0.089 A 
HETATM    9  C6  UNK     1      18.071  -5.494  14.155  1.00  0.00     0.014 A 
HETATM   10  O1  UNK     1      19.395  -2.190  13.151  1.00  0.00    -0.274 OA
HETATM   11  C9  UNK     1      19.297  -4.269  11.957  1.00  0.00     0.038 A 
HETATM   12  C7  UNK     1      19.168  -1.393  14.269  1.00  0.00     0.304 A 
HETATM   13  O3  UNK     1      19.491  -0.210  14.287  1.00  0.00    -0.259 OA
HETATM   14  C11 UNK     1      18.946  -5.615  11.898  1.00  0.00     0.003 A 
HETATM   15  C10 UNK     1      18.334  -6.227  12.994  1.00  0.00     0.001 A 
ENDBRANCH   3   5
BRANCH   2  16
HETATM   16  C8  UNK     1      19.253   0.249  18.213  1.00  0.00     0.103 A 
HETATM   17  C12 UNK     1      18.977   1.715  18.053  1.00  0.00     0.272 A 
HETATM   18  O4  UNK     1      18.782   2.211  16.946  1.00  0.00    -0.266 OA
HETATM   19  N2  UNK     1      18.960   2.446  19.232  1.00  0.00    -0.332 N 
HETATM   20  C15 UNK     1      19.176   1.897  20.471  1.00  0.00     0.091 A 
HETATM   21  H8  UNK     1      18.778   3.444  19.187  1.00  0.00     0.168 HD
HETATM   22  C14 UNK     1      19.422   0.589  20.609  1.00  0.00     0.020 A 
HETATM   23  C13 UNK     1      19.461  -0.254  19.439  1.00  0.00     0.037 A 
ENDBRANCH   2  16
TORSDOF 2
ENDMDL
MODEL 6
REMARK VINA RESULT:      -9.2      9.379     12.655
REMARK  2 active torsions:
REMARK  status: ('A' for Active; 'I' for Inactive)
REMARK       I    between atoms: C5_11  and  N1_5 
REMARK    1  A    between atoms: C8_14  and  N1_5 
REMARK    2  A    between atoms: C2_8  and  C5_11 
ROOT
HETATM    1  O2  UNK     1      20.969  -3.655  37.745  1.00  0.00    -0.267 OA
HETATM    2  N1  UNK     1      18.947  -3.624  36.576  1.00  0.00    -0.318 N 
HETATM    3  C5  UNK     1      20.047  -4.225  37.164  1.00  0.00     0.262 C 
HETATM    4  H4  UNK     1      18.230  -4.192  36.133  1.00  0.00     0.169 HD
ENDROOT
BRANCH   3   5
HETATM    5  C2  UNK     1      20.032  -5.687  37.034  1.00  0.00     0.108 A 
HETATM    6  C4  UNK     1      19.914  -6.380  38.173  1.00  0.00     0.037 A 
HETATM    7  C1  UNK     1      19.890  -7.835  38.147  1.00  0.00    -0.001 A 
HETATM    8  C3  UNK     1      19.992  -8.488  36.922  1.00  0.00     0.089 A 
HETATM    9  C6  UNK     1      19.768  -8.599  39.310  1.00  0.00     0.014 A 
HETATM   10  O1  UNK     1      20.117  -7.752  35.727  1.00  0.00    -0.274 OA
HETATM   11  C9  UNK     1      19.977  -9.878  36.829  1.00  0.00     0.038 A 
HETATM   12  C7  UNK     1      20.142  -6.361  35.721  1.00  0.00     0.304 A 
HETATM   13  O3  UNK     1      20.252  -5.728  34.676  1.00  0.00    -0.259 OA
HETATM   14  C11 UNK     1      19.855 -10.632  37.993  1.00  0.00     0.003 A 
HETATM   15  C10 UNK     1      19.750  -9.995  39.232  1.00  0.00     0.001 A 
ENDBRANCH   3   5
BRANCH   2  16
HETATM   16  C8  UNK     1      18.735  -2.275  36.564  1.00  0.00     0.103 A 
HETATM   17  C12 UNK     1      19.364  -1.473  35.464  1.00  0.00     0.272 A 
HETATM   18  O4  UNK     1      20.049  -2.007  34.595  1.00  0.00    -0.266 OA
HETATM   19  N2  UNK     1      19.113  -0.109  35.507  1.00  0.00    -0.332 N 
HETATM   20  C15 UNK     1      18.347   0.493  36.475  1.00  0.00     0.091 A 
HETATM   21  H8  UNK     1      19.512   0.486  34.788  1.00  0.00     0.168 HD
HETATM   22  C14 UNK     1      17.788  -0.226  37.454  1.00  0.00     0.020 A 
HETATM   23  C13 UNK     1      17.994  -1.654  37.494  1.00  0.00     0.037 A 
ENDBRANCH   2  16
TORSDOF 2
ENDMDL
MODEL 7
REMARK VINA RESULT:      -9.1      8.778     10.127
REMARK  2 active torsions:
REMARK  status: ('A' for Active; 'I' for Inactive)
REMARK       I    between atoms: C5_11  and  N1_5 
REMARK    1  A    between atoms: C8_14  and  N1_5 
REMARK    2  A    between atoms: C2_8  and  C5_11 
ROOT
HETATM    1  O2  UNK     1      20.143  -5.264  35.621  1.00  0.00    -0.267 OA
HETATM    2  N1  UNK     1      20.271  -4.640  37.868  1.00  0.00    -0.318 N 
HETATM    3  C5  UNK     1      20.052  -4.427  36.518  1.00  0.00     0.262 C 
HETATM    4  H4  UNK     1      20.151  -3.879  38.531  1.00  0.00     0.169 HD
ENDROOT
BRANCH   3   5
HETATM    5  C2  UNK     1      19.679  -3.040  36.215  1.00  0.00     0.108 A 
HETATM    6  C4  UNK     1      18.931  -2.415  37.132  1.00  0.00     0.037 A 
HETATM    7  C1  UNK     1      18.510  -1.039  36.921  1.00  0.00    -0.001 A 
HETATM    8  C3  UNK     1      18.897  -0.388  35.753  1.00  0.00     0.089 A 
HETATM    9  C6  UNK     1      17.731  -0.347  37.852  1.00  0.00     0.014 A 
HETATM   10  O1  UNK     1      19.683  -1.052  34.791  1.00  0.00    -0.274 OA
HETATM   11  C9  UNK     1      18.526   0.929  35.491  1.00  0.00     0.038 A 
HETATM   12  C7  UNK     1      20.101  -2.368  34.965  1.00  0.00     0.304 A 
HETATM   13  O3  UNK     1      20.784  -2.939  34.122  1.00  0.00    -0.259 OA
HETATM   14  C11 UNK     1      17.749   1.611  36.424  1.00  0.00     0.003 A 
HETATM   15  C10 UNK     1      17.352   0.975  37.602  1.00  0.00     0.001 A 
ENDBRANCH   3   5
BRANCH   2  16
HETATM   16  C8  UNK     1      20.629  -5.846  38.398  1.00  0.00     0.103 A 
HETATM   17  C12 UNK     1      22.089  -6.121  38.599  1.00  0.00     0.272 A 
HETATM   18  O4  UNK     1      22.943  -5.290  38.300  1.00  0.00    -0.266 OA
HETATM   19  N2  UNK     1      22.389  -7.364  39.140  1.00  0.00    -0.332 N 
HETATM   20  C15 UNK     1      21.439  -8.296  39.477  1.00  0.00     0.091 A 
HETATM   21  H8  UNK     1      23.362  -7.607  39.300  1.00  0.00     0.168 HD
HETATM   22  C14 UNK     1      20.137  -8.046  39.296  1.00  0.00     0.020 A 
HETATM   23  C13 UNK     1      19.727  -6.780  38.738  1.00  0.00     0.037 A 
ENDBRANCH   2  16
TORSDOF 2
ENDMDL
MODEL 8
REMARK VINA RESULT:      -9.0      1.606      2.197
REMARK  2 active torsions:
REMARK  status: ('A' for Active; 'I' for Inactive)
REMARK       I    between atoms: C5_11  and  N1_5 
REMARK    1  A    between atoms: C8_14  and  N1_5 
REMARK    2  A    between atoms: C2_8  and  C5_11 
ROOT
HETATM    1  O2  UNK     1      19.696   4.405  30.372  1.00  0.00    -0.267 OA
HETATM    2  N1  UNK     1      18.276   2.718  31.142  1.00  0.00    -0.318 N 
HETATM    3  C5  UNK     1      18.770   4.009  31.078  1.00  0.00     0.262 C 
HETATM    4  H4  UNK     1      17.492   2.501  31.751  1.00  0.00     0.169 HD
ENDROOT
BRANCH   3   5
HETATM    5  C2  UNK     1      18.062   4.933  31.973  1.00  0.00     0.108 A 
HETATM    6  C4  UNK     1      17.469   5.982  31.391  1.00  0.00     0.037 A 
HETATM    7  C1  UNK     1      16.743   6.953  32.196  1.00  0.00    -0.001 A 
HETATM    8  C3  UNK     1      16.679   6.772  33.574  1.00  0.00     0.089 A 
HETATM    9  C6  UNK     1      16.108   8.062  31.631  1.00  0.00     0.014 A 
HETATM   10  O1  UNK     1      17.307   5.666  34.180  1.00  0.00    -0.274 OA
HETATM   11  C9  UNK     1      16.001   7.666  34.400  1.00  0.00     0.038 A 
HETATM   12  C7  UNK     1      18.007   4.720  33.437  1.00  0.00     0.304 A 
HETATM   13  O3  UNK     1      18.551   3.761  33.973  1.00  0.00    -0.259 OA
HETATM   14  C11 UNK     1      15.371   8.769  33.829  1.00  0.00     0.003 A 
HETATM   15  C10 UNK     1      15.424   8.967  32.448  1.00  0.00     0.001 A 
ENDBRANCH   3   5
BRANCH   2  16
HETATM   16  C8  UNK     1      18.769   1.680  30.405  1.00  0.00     0.103 A 
HETATM   17  C12 UNK     1      18.274   1.516  28.999  1.00  0.00     0.272 A 
HETATM   18  O4  UNK     1      17.450   2.291  28.518  1.00  0.00    -0.266 OA
HETATM   19  N2  UNK     1      18.811   0.443  28.302  1.00  0.00    -0.332 N 
HETATM   20  C15 UNK     1      19.733  -0.424  28.833  1.00  0.00     0.091 A 
HETATM   21  H8  UNK     1      18.514   0.283  27.344  1.00  0.00     0.168 HD
HETATM   22  C14 UNK     1      20.172  -0.274  30.088  1.00  0.00     0.020 A 
HETATM   23  C13 UNK     1      19.670   0.813  30.893  1.00  0.00     0.037 A 
ENDBRANCH   2  16
TORSDOF 2
ENDMDL
MODEL 9
REMARK VINA RESULT:      -9.0      2.175      7.478
REMARK  2 active torsions:
REMARK  status: ('A' for Active; 'I' for Inactive)
REMARK       I    between atoms: C5_11  and  N1_5 
REMARK    1  A    between atoms: C8_14  and  N1_5 
REMARK    2  A    between atoms: C2_8  and  C5_11 
ROOT
HETATM    1  O2  UNK     1      18.544   4.645  30.298  1.00  0.00    -0.267 OA
HETATM    2  N1  UNK     1      17.823   4.571  32.519  1.00  0.00    -0.318 N 
HETATM    3  C5  UNK     1      18.341   4.040  31.350  1.00  0.00     0.262 C 
HETATM    4  H4  UNK     1      17.710   3.983  33.340  1.00  0.00     0.169 HD
ENDROOT
BRANCH   3   5
HETATM    5  C2  UNK     1      18.650   2.610  31.464  1.00  0.00     0.108 A 
HETATM    6  C4  UNK     1      19.205   2.037  30.389  1.00  0.00     0.037 A 
HETATM    7  C1  UNK     1      19.547   0.623  30.406  1.00  0.00    -0.001 A 
HETATM    8  C3  UNK     1      19.286  -0.119  31.553  1.00  0.00     0.089 A 
HETATM    9  C6  UNK     1      20.129  -0.016  29.308  1.00  0.00     0.014 A 
HETATM   10  O1  UNK     1      18.700   0.490  32.681  1.00  0.00    -0.274 OA
HETATM   11  C9  UNK     1      19.588  -1.477  31.633  1.00  0.00     0.038 A 
HETATM   12  C7  UNK     1      18.363   1.840  32.695  1.00  0.00     0.304 A 
HETATM   13  O3  UNK     1      17.853   2.361  33.681  1.00  0.00    -0.259 OA
HETATM   14  C11 UNK     1      20.168  -2.106  30.534  1.00  0.00     0.003 A 
HETATM   15  C10 UNK     1      20.438  -1.378  29.374  1.00  0.00     0.001 A 
ENDBRANCH   3   5
BRANCH   2  16
HETATM   16  C8  UNK     1      17.457   5.878  32.662  1.00  0.00     0.103 A 
HETATM   17  C12 UNK     1      18.445   6.822  33.280  1.00  0.00     0.272 A 
HETATM   18  O4  UNK     1      19.552   6.437  33.647  1.00  0.00    -0.266 OA
HETATM   19  N2  UNK     1      18.015   8.137  33.398  1.00  0.00    -0.332 N 
HETATM   20  C15 UNK     1      16.780   8.572  32.987  1.00  0.00     0.091 A 
HETATM   21  H8  UNK     1      18.642   8.822  33.809  1.00  0.00     0.168 HD
HETATM   22  C14 UNK     1      15.902   7.727  32.436  1.00  0.00     0.020 A 
HETATM   23  C13 UNK     1      16.258   6.339  32.272  1.00  0.00     0.037 A 
ENDBRANCH   2  16
TORSDOF 2
ENDMDL
MODEL 10
REMARK VINA RESULT:      -8.8      1.876      2.742
REMARK  2 active torsions:
REMARK  status: ('A' for Active; 'I' for Inactive)
REMARK       I    between atoms: C5_11  and  N1_5 
REMARK    1  A    between atoms: C8_14  and  N1_5 
REMARK    2  A    between atoms: C2_8  and  C5_11 
ROOT
HETATM    1  O2  UNK     1      17.556   2.107  30.190  1.00  0.00    -0.267 OA
HETATM    2  N1  UNK     1      19.342   1.435  31.537  1.00  0.00    -0.318 N 
HETATM    3  C5  UNK     1      18.302   2.265  31.155  1.00  0.00     0.262 C 
HETATM    4  H4  UNK     1      19.889   1.651  32.366  1.00  0.00     0.169 HD
ENDROOT
BRANCH   3   5
HETATM    5  C2  UNK     1      18.145   3.423  32.043  1.00  0.00     0.108 A 
HETATM    6  C4  UNK     1      17.945   4.604  31.445  1.00  0.00     0.037 A 
HETATM    7  C1  UNK     1      17.778   5.810  32.241  1.00  0.00    -0.001 A 
HETATM    8  C3  UNK     1      17.832   5.714  33.628  1.00  0.00     0.089 A 
HETATM    9  C6  UNK     1      17.566   7.063  31.660  1.00  0.00     0.014 A 
HETATM   10  O1  UNK     1      18.043   4.468  34.251  1.00  0.00    -0.274 OA
HETATM   11  C9  UNK     1      17.680   6.831  34.448  1.00  0.00     0.038 A 
HETATM   12  C7  UNK     1      18.205   3.298  33.517  1.00  0.00     0.304 A 
HETATM   13  O3  UNK     1      18.390   2.218  34.067  1.00  0.00    -0.259 OA
HETATM   14  C11 UNK     1      17.470   8.076  33.860  1.00  0.00     0.003 A 
HETATM   15  C10 UNK     1      17.413   8.193  32.470  1.00  0.00     0.001 A 
ENDBRANCH   3   5
BRANCH   2  16
HETATM   16  C8  UNK     1      19.687   0.295  30.871  1.00  0.00     0.103 A 
HETATM   17  C12 UNK     1      19.398  -1.021  31.529  1.00  0.00     0.272 A 
HETATM   18  O4  UNK     1      18.866  -1.079  32.635  1.00  0.00    -0.266 OA
HETATM   19  N2  UNK     1      19.772  -2.143  30.802  1.00  0.00    -0.332 N 
HETATM   20  C15 UNK     1      20.365  -2.084  29.565  1.00  0.00     0.091 A 
HETATM   21  H8  UNK     1      19.600  -3.062  31.197  1.00  0.00     0.168 HD
HETATM   22  C14 UNK     1      20.621  -0.908  28.982  1.00  0.00     0.020 A 
HETATM   23  C13 UNK     1      20.269   0.315  29.661  1.00  0.00     0.037 A 
ENDBRANCH   2  16
TORSDOF 2
ENDMDL
