MODEL 1
REMARK VINA RESULT:     -10.2      0.000      0.000
REMARK  4 active torsions:
REMARK  status: ('A' for Active; 'I' for Inactive)
REMARK    1  A    between atoms: C3_13  and  N1_8 
REMARK       I    between atoms: C7_17  and  N1_8 
REMARK    2  A    between atoms: C6_16  and  N2_9 
REMARK    3  A    between atoms: C12_22  and  N3_10 
REMARK    4  A    between atoms: C2_12  and  C7_17 
ROOT
HETATM    1  O2  UNK     1      21.372  -4.517  37.076  1.00  0.00    -0.267 OA
HETATM    2  N1  UNK     1      19.122  -5.209  37.005  1.00  0.00    -0.321 N 
HETATM    3  C7  UNK     1      20.176  -4.314  36.875  1.00  0.00     0.262 C 
HETATM    4  H2  UNK     1      18.202  -4.841  36.789  1.00  0.00     0.169 HD
ENDROOT
BRANCH   2   5
HETATM    5  C3  UNK     1      19.187  -6.567  37.402  1.00  0.00     0.068 A 
HETATM    6  C8  UNK     1      19.574  -6.851  38.702  1.00  0.00     0.034 A 
HETATM    7  C14 UNK     1      19.646  -8.180  39.120  1.00  0.00     0.038 A 
HETATM    8  C12 UNK     1      19.328  -9.208  38.232  1.00  0.00     0.105 A 
HETATM    9  C11 UNK     1      18.940  -8.906  36.926  1.00  0.00     0.074 A 
HETATM   10  C6  UNK     1      18.868  -7.577  36.509  1.00  0.00     0.132 A 
BRANCH   8  11
HETATM   11  N3  UNK     1      19.402 -10.560  38.657  1.00  0.00    -0.116 N 
HETATM   12  O6  UNK     1      19.420 -10.811  39.886  1.00  0.00    -0.532 OA
HETATM   13  O7  UNK     1      19.448 -11.468  37.791  1.00  0.00    -0.532 OA
ENDBRANCH   8  11
BRANCH  10  14
HETATM   14  N2  UNK     1      18.468  -7.298  35.171  1.00  0.00    -0.113 N 
HETATM   15  O4  UNK     1      19.338  -6.944  34.342  1.00  0.00    -0.532 OA
HETATM   16  O5  UNK     1      17.259  -7.416  34.865  1.00  0.00    -0.532 OA
ENDBRANCH  10  14
ENDBRANCH   2   5
BRANCH   3  17
HETATM   17  C2  UNK     1      19.725  -2.987  36.440  1.00  0.00     0.108 A 
HETATM   18  C10 UNK     1      20.027  -2.458  35.090  1.00  0.00     0.304 A 
HETATM   19  O1  UNK     1      19.544  -1.187  34.795  1.00  0.00    -0.274 OA
HETATM   20  O3  UNK     1      20.670  -3.104  34.270  1.00  0.00    -0.259 OA
HETATM   21  C4  UNK     1      18.805  -0.436  35.729  1.00  0.00     0.089 A 
HETATM   22  C1  UNK     1      18.532  -0.952  36.992  1.00  0.00    -0.001 A 
HETATM   23  C13 UNK     1      18.363   0.827  35.341  1.00  0.00     0.038 A 
HETATM   24  C5  UNK     1      19.022  -2.279  37.331  1.00  0.00     0.037 A 
HETATM   25  C9  UNK     1      17.795  -0.177  37.892  1.00  0.00     0.014 A 
HETATM   26  C15 UNK     1      17.346   1.092  37.517  1.00  0.00     0.001 A 
HETATM   27  C16 UNK     1      17.629   1.593  36.245  1.00  0.00     0.003 A 
ENDBRANCH   3  17
TORSDOF 4
ENDMDL
MODEL 2
REMARK VINA RESULT:     -10.1     19.503     22.188
REMARK  4 active torsions:
REMARK  status: ('A' for Active; 'I' for Inactive)
REMARK    1  A    between atoms: C3_13  and  N1_8 
REMARK       I    between atoms: C7_17  and  N1_8 
REMARK    2  A    between atoms: C6_16  and  N2_9 
REMARK    3  A    between atoms: C12_22  and  N3_10 
REMARK    4  A    between atoms: C2_12  and  C7_17 
ROOT
HETATM    1  O2  UNK     1      17.096  -1.920  16.752  1.00  0.00    -0.267 OA
HETATM    2  N1  UNK     1      19.188  -0.860  16.532  1.00  0.00    -0.321 N 
HETATM    3  C7  UNK     1      18.153  -1.708  16.160  1.00  0.00     0.262 C 
HETATM    4  H2  UNK     1      19.980  -0.827  15.900  1.00  0.00     0.169 HD
ENDROOT
BRANCH   2   5
HETATM    5  C3  UNK     1      19.261  -0.042  17.686  1.00  0.00     0.068 A 
HETATM    6  C8  UNK     1      19.292  -0.660  18.926  1.00  0.00     0.034 A 
HETATM    7  C14 UNK     1      19.363   0.123  20.079  1.00  0.00     0.038 A 
HETATM    8  C12 UNK     1      19.404   1.513  19.976  1.00  0.00     0.105 A 
HETATM    9  C11 UNK     1      19.373   2.121  18.721  1.00  0.00     0.074 A 
HETATM   10  C6  UNK     1      19.301   1.339  17.569  1.00  0.00     0.132 A 
BRANCH   8  11
HETATM   11  N3  UNK     1      19.477   2.309  21.150  1.00  0.00    -0.116 N 
HETATM   12  O6  UNK     1      18.414   2.742  21.657  1.00  0.00    -0.532 OA
HETATM   13  O7  UNK     1      20.602   2.557  21.648  1.00  0.00    -0.532 OA
ENDBRANCH   8  11
BRANCH  10  14
HETATM   14  N2  UNK     1      19.271   1.985  16.300  1.00  0.00    -0.113 N 
HETATM   15  O4  UNK     1      18.395   2.855  16.086  1.00  0.00    -0.532 OA
HETATM   16  O5  UNK     1      20.123   1.665  15.439  1.00  0.00    -0.532 OA
ENDBRANCH  10  14
ENDBRANCH   2   5
BRANCH   3  17
HETATM   17  C2  UNK     1      18.431  -2.398  14.895  1.00  0.00     0.108 A 
HETATM   18  C10 UNK     1      18.890  -1.671  13.689  1.00  0.00     0.304 A 
HETATM   19  O1  UNK     1      19.120  -2.436  12.549  1.00  0.00    -0.274 OA
HETATM   20  O3  UNK     1      19.060  -0.457  13.689  1.00  0.00    -0.259 OA
HETATM   21  C4  UNK     1      18.928  -3.832  12.538  1.00  0.00     0.089 A 
HETATM   22  C1  UNK     1      18.496  -4.494  13.682  1.00  0.00    -0.001 A 
HETATM   23  C13 UNK     1      19.186  -4.511  11.349  1.00  0.00     0.038 A 
HETATM   24  C5  UNK     1      18.247  -3.723  14.890  1.00  0.00     0.037 A 
HETATM   25  C9  UNK     1      18.317  -5.879  13.632  1.00  0.00     0.014 A 
HETATM   26  C15 UNK     1      18.572  -6.574  12.447  1.00  0.00     0.001 A 
HETATM   27  C16 UNK     1      19.004  -5.892  11.308  1.00  0.00     0.003 A 
ENDBRANCH   3  17
TORSDOF 4
ENDMDL
MODEL 3
REMARK VINA RESULT:     -10.1     19.659     22.310
REMARK  4 active torsions:
REMARK  status: ('A' for Active; 'I' for Inactive)
REMARK    1  A    between atoms: C3_13  and  N1_8 
REMARK       I    between atoms: C7_17  and  N1_8 
REMARK    2  A    between atoms: C6_16  and  N2_9 
REMARK    3  A    between atoms: C12_22  and  N3_10 
REMARK    4  A    between atoms: C2_12  and  C7_17 
ROOT
HETATM    1  O2  UNK     1      17.246  -2.090  16.705  1.00  0.00    -0.267 OA
HETATM    2  N1  UNK     1      19.249  -0.872  16.486  1.00  0.00    -0.321 N 
HETATM    3  C7  UNK     1      18.280  -1.793  16.111  1.00  0.00     0.262 C 
HETATM    4  H2  UNK     1      20.034  -0.773  15.851  1.00  0.00     0.169 HD
ENDROOT
BRANCH   2   5
HETATM    5  C3  UNK     1      19.265  -0.060  17.647  1.00  0.00     0.068 A 
HETATM    6  C8  UNK     1      19.281  -0.686  18.883  1.00  0.00     0.034 A 
HETATM    7  C14 UNK     1      19.296   0.090  20.042  1.00  0.00     0.038 A 
HETATM    8  C12 UNK     1      19.297   1.482  19.950  1.00  0.00     0.105 A 
HETATM    9  C11 UNK     1      19.281   2.098  18.698  1.00  0.00     0.074 A 
HETATM   10  C6  UNK     1      19.265   1.322  17.540  1.00  0.00     0.132 A 
BRANCH   8  11
HETATM   11  N3  UNK     1      19.312   2.271  21.130  1.00  0.00    -0.116 N 
HETATM   12  O6  UNK     1      20.404   2.469  21.715  1.00  0.00    -0.532 OA
HETATM   13  O7  UNK     1      18.232   2.749  21.556  1.00  0.00    -0.532 OA
ENDBRANCH   8  11
BRANCH  10  14
HETATM   14  N2  UNK     1      19.250   1.976  16.275  1.00  0.00    -0.113 N 
HETATM   15  O4  UNK     1      20.019   1.568  15.374  1.00  0.00    -0.532 OA
HETATM   16  O5  UNK     1      18.467   2.939  16.103  1.00  0.00    -0.532 OA
ENDBRANCH  10  14
ENDBRANCH   2   5
BRANCH   3  17
HETATM   17  C2  UNK     1      18.604  -2.449  14.838  1.00  0.00     0.108 A 
HETATM   18  C10 UNK     1      18.130  -3.814  14.515  1.00  0.00     0.304 A 
HETATM   19  O1  UNK     1      18.503  -4.328  13.277  1.00  0.00    -0.274 OA
HETATM   20  O3  UNK     1      17.443  -4.462  15.296  1.00  0.00    -0.259 OA
HETATM   21  C4  UNK     1      19.292  -3.590  12.373  1.00  0.00     0.089 A 
HETATM   22  C1  UNK     1      19.728  -2.310  12.697  1.00  0.00    -0.001 A 
HETATM   23  C13 UNK     1      19.614  -4.190  11.156  1.00  0.00     0.038 A 
HETATM   24  C5  UNK     1      19.354  -1.744  13.984  1.00  0.00     0.037 A 
HETATM   25  C9  UNK     1      20.509  -1.610  11.773  1.00  0.00     0.014 A 
HETATM   26  C15 UNK     1      20.840  -2.198  10.549  1.00  0.00     0.001 A 
HETATM   27  C16 UNK     1      20.394  -3.485  10.242  1.00  0.00     0.003 A 
ENDBRANCH   3  17
TORSDOF 4
ENDMDL
MODEL 4
REMARK VINA RESULT:      -9.8      1.309      1.472
REMARK  4 active torsions:
REMARK  status: ('A' for Active; 'I' for Inactive)
REMARK    1  A    between atoms: C3_13  and  N1_8 
REMARK       I    between atoms: C7_17  and  N1_8 
REMARK    2  A    between atoms: C6_16  and  N2_9 
REMARK    3  A    between atoms: C12_22  and  N3_10 
REMARK    4  A    between atoms: C2_12  and  C7_17 
ROOT
HETATM    1  O2  UNK     1      20.574  -4.187  37.951  1.00  0.00    -0.267 OA
HETATM    2  N1  UNK     1      19.559  -5.158  36.061  1.00  0.00    -0.321 N 
HETATM    3  C7  UNK     1      19.961  -4.118  36.888  1.00  0.00     0.262 C 
HETATM    4  H2  UNK     1      19.060  -4.887  35.221  1.00  0.00     0.169 HD
ENDROOT
BRANCH   2   5
HETATM    5  C3  UNK     1      19.767  -6.545  36.256  1.00  0.00     0.068 A 
HETATM    6  C8  UNK     1      21.050  -6.979  36.548  1.00  0.00     0.034 A 
HETATM    7  C14 UNK     1      21.284  -8.341  36.745  1.00  0.00     0.038 A 
HETATM    8  C12 UNK     1      20.231  -9.250  36.648  1.00  0.00     0.105 A 
HETATM    9  C11 UNK     1      18.944  -8.798  36.354  1.00  0.00     0.074 A 
HETATM   10  C6  UNK     1      18.711  -7.437  36.156  1.00  0.00     0.132 A 
BRANCH   8  11
HETATM   11  N3  UNK     1      20.469 -10.635  36.848  1.00  0.00    -0.116 N 
HETATM   12  O6  UNK     1      19.508 -11.377  37.165  1.00  0.00    -0.532 OA
HETATM   13  O7  UNK     1      21.634 -11.079  36.702  1.00  0.00    -0.532 OA
ENDBRANCH   8  11
BRANCH  10  14
HETATM   14  N2  UNK     1      17.388  -7.003  35.857  1.00  0.00    -0.113 N 
HETATM   15  O4  UNK     1      16.820  -7.454  34.836  1.00  0.00    -0.532 OA
HETATM   16  O5  UNK     1      16.833  -6.184  36.626  1.00  0.00    -0.532 OA
ENDBRANCH  10  14
ENDBRANCH   2   5
BRANCH   3  17
HETATM   17  C2  UNK     1      19.567  -2.806  36.358  1.00  0.00     0.108 A 
HETATM   18  C10 UNK     1      19.919  -2.375  34.986  1.00  0.00     0.304 A 
HETATM   19  O1  UNK     1      19.489  -1.110  34.599  1.00  0.00    -0.274 OA
HETATM   20  O3  UNK     1      20.558  -3.094  34.225  1.00  0.00    -0.259 OA
HETATM   21  C4  UNK     1      18.755  -0.276  35.465  1.00  0.00     0.089 A 
HETATM   22  C1  UNK     1      18.435  -0.701  36.751  1.00  0.00    -0.001 A 
HETATM   23  C13 UNK     1      18.368   0.974  34.987  1.00  0.00     0.038 A 
HETATM   24  C5  UNK     1      18.870  -2.019  37.185  1.00  0.00     0.037 A 
HETATM   25  C9  UNK     1      17.705   0.155  37.581  1.00  0.00     0.014 A 
HETATM   26  C15 UNK     1      17.310   1.412  37.115  1.00  0.00     0.001 A 
HETATM   27  C16 UNK     1      17.641   1.821  35.821  1.00  0.00     0.003 A 
ENDBRANCH   3  17
TORSDOF 4
ENDMDL
MODEL 5
REMARK VINA RESULT:      -9.6      2.342      8.080
REMARK  4 active torsions:
REMARK  status: ('A' for Active; 'I' for Inactive)
REMARK    1  A    between atoms: C3_13  and  N1_8 
REMARK       I    between atoms: C7_17  and  N1_8 
REMARK    2  A    between atoms: C6_16  and  N2_9 
REMARK    3  A    between atoms: C12_22  and  N3_10 
REMARK    4  A    between atoms: C2_12  and  C7_17 
ROOT
HETATM    1  O2  UNK     1      21.011  -4.054  37.877  1.00  0.00    -0.267 OA
HETATM    2  N1  UNK     1      19.060  -3.929  36.563  1.00  0.00    -0.321 N 
HETATM    3  C7  UNK     1      20.107  -4.564  37.218  1.00  0.00     0.262 C 
HETATM    4  H2  UNK     1      18.414  -4.536  36.071  1.00  0.00     0.169 HD
ENDROOT
BRANCH   2   5
HETATM    5  C3  UNK     1      18.795  -2.539  36.506  1.00  0.00     0.068 A 
HETATM    6  C8  UNK     1      17.727  -2.046  37.238  1.00  0.00     0.034 A 
HETATM    7  C14 UNK     1      17.443  -0.680  37.200  1.00  0.00     0.038 A 
HETATM    8  C12 UNK     1      18.232   0.174  36.431  1.00  0.00     0.105 A 
HETATM    9  C11 UNK     1      19.305  -0.337  35.699  1.00  0.00     0.074 A 
HETATM   10  C6  UNK     1      19.588  -1.702  35.737  1.00  0.00     0.132 A 
BRANCH   8  11
HETATM   11  N3  UNK     1      17.943   1.564  36.391  1.00  0.00    -0.116 N 
HETATM   12  O6  UNK     1      18.632   2.307  35.652  1.00  0.00    -0.532 OA
HETATM   13  O7  UNK     1      17.006   2.010  37.097  1.00  0.00    -0.532 OA
ENDBRANCH   8  11
BRANCH  10  14
HETATM   14  N2  UNK     1      20.689  -2.196  34.981  1.00  0.00    -0.113 N 
HETATM   15  O4  UNK     1      20.460  -2.915  33.980  1.00  0.00    -0.532 OA
HETATM   16  O5  UNK     1      21.851  -1.897  35.340  1.00  0.00    -0.532 OA
ENDBRANCH  10  14
ENDBRANCH   2   5
BRANCH   3  17
HETATM   17  C2  UNK     1      20.056  -6.022  37.057  1.00  0.00     0.108 A 
HETATM   18  C10 UNK     1      20.187  -6.670  35.732  1.00  0.00     0.304 A 
HETATM   19  O1  UNK     1      20.123  -8.060  35.708  1.00  0.00    -0.274 OA
HETATM   20  O3  UNK     1      20.343  -6.020  34.705  1.00  0.00    -0.259 OA
HETATM   21  C4  UNK     1      19.944  -8.818  36.882  1.00  0.00     0.089 A 
HETATM   22  C1  UNK     1      19.823  -8.188  38.116  1.00  0.00    -0.001 A 
HETATM   23  C13 UNK     1      19.893 -10.205  36.756  1.00  0.00     0.038 A 
HETATM   24  C5  UNK     1      19.886  -6.736  38.175  1.00  0.00     0.037 A 
HETATM   25  C9  UNK     1      19.646  -8.973  39.259  1.00  0.00     0.014 A 
HETATM   26  C15 UNK     1      19.594 -10.366  39.149  1.00  0.00     0.001 A 
HETATM   27  C16 UNK     1      19.716 -10.980  37.900  1.00  0.00     0.003 A 
ENDBRANCH   3  17
TORSDOF 4
ENDMDL
MODEL 6
REMARK VINA RESULT:      -9.5      9.150     12.951
REMARK  4 active torsions:
REMARK  status: ('A' for Active; 'I' for Inactive)
REMARK    1  A    between atoms: C3_13  and  N1_8 
REMARK       I    between atoms: C7_17  and  N1_8 
REMARK    2  A    between atoms: C6_16  and  N2_9 
REMARK    3  A    between atoms: C12_22  and  N3_10 
REMARK    4  A    between atoms: C2_12  and  C7_17 
ROOT
HETATM    1  O2  UNK     1      17.617   2.891  33.024  1.00  0.00    -0.267 OA
HETATM    2  N1  UNK     1      18.492   4.452  31.493  1.00  0.00    -0.321 N 
HETATM    3  C7  UNK     1      18.202   3.186  31.984  1.00  0.00     0.262 C 
HETATM    4  H2  UNK     1      18.986   4.481  30.608  1.00  0.00     0.169 HD
ENDROOT
BRANCH   2   5
HETATM    5  C3  UNK     1      18.177   5.700  32.086  1.00  0.00     0.068 A 
HETATM    6  C8  UNK     1      16.845   5.984  32.342  1.00  0.00     0.034 A 
HETATM    7  C14 UNK     1      16.507   7.206  32.925  1.00  0.00     0.038 A 
HETATM    8  C12 UNK     1      17.505   8.126  33.245  1.00  0.00     0.105 A 
HETATM    9  C11 UNK     1      18.842   7.825  32.981  1.00  0.00     0.074 A 
HETATM   10  C6  UNK     1      19.180   6.604  32.398  1.00  0.00     0.132 A 
BRANCH   8  11
HETATM   11  N3  UNK     1      17.160   9.369  33.837  1.00  0.00    -0.116 N 
HETATM   12  O6  UNK     1      16.263   9.397  34.714  1.00  0.00    -0.532 OA
HETATM   13  O7  UNK     1      17.763  10.407  33.468  1.00  0.00    -0.532 OA
ENDBRANCH   8  11
BRANCH  10  14
HETATM   14  N2  UNK     1      20.552   6.322  32.140  1.00  0.00    -0.113 N 
HETATM   15  O4  UNK     1      20.873   5.853  31.024  1.00  0.00    -0.532 OA
HETATM   16  O5  UNK     1      21.394   6.553  33.038  1.00  0.00    -0.532 OA
ENDBRANCH  10  14
ENDBRANCH   2   5
BRANCH   3  17
HETATM   17  C2  UNK     1      18.685   2.124  31.092  1.00  0.00     0.108 A 
HETATM   18  C10 UNK     1      18.686   2.275  29.620  1.00  0.00     0.304 A 
HETATM   19  O1  UNK     1      19.169   1.198  28.882  1.00  0.00    -0.274 OA
HETATM   20  O3  UNK     1      18.284   3.295  29.073  1.00  0.00    -0.259 OA
HETATM   21  C4  UNK     1      19.635   0.021  29.500  1.00  0.00     0.089 A 
HETATM   22  C1  UNK     1      19.624  -0.100  30.886  1.00  0.00    -0.001 A 
HETATM   23  C13 UNK     1      20.100  -1.002  28.678  1.00  0.00     0.038 A 
HETATM   24  C5  UNK     1      19.126   1.009  31.686  1.00  0.00     0.037 A 
HETATM   25  C9  UNK     1      20.094  -1.282  31.463  1.00  0.00     0.014 A 
HETATM   26  C15 UNK     1      20.563  -2.318  30.650  1.00  0.00     0.001 A 
HETATM   27  C16 UNK     1      20.566  -2.178  29.261  1.00  0.00     0.003 A 
ENDBRANCH   3  17
TORSDOF 4
ENDMDL
MODEL 7
REMARK VINA RESULT:      -9.5      8.406     13.187
REMARK  4 active torsions:
REMARK  status: ('A' for Active; 'I' for Inactive)
REMARK    1  A    between atoms: C3_13  and  N1_8 
REMARK       I    between atoms: C7_17  and  N1_8 
REMARK    2  A    between atoms: C6_16  and  N2_9 
REMARK    3  A    between atoms: C12_22  and  N3_10 
REMARK    4  A    between atoms: C2_12  and  C7_17 
ROOT
HETATM    1  O2  UNK     1      18.638   4.690  30.198  1.00  0.00    -0.267 OA
HETATM    2  N1  UNK     1      17.773   4.622  32.388  1.00  0.00    -0.321 N 
HETATM    3  C7  UNK     1      18.362   4.103  31.243  1.00  0.00     0.262 C 
HETATM    4  H2  UNK     1      17.630   3.966  33.148  1.00  0.00     0.169 HD
ENDROOT
BRANCH   2   5
HETATM    5  C3  UNK     1      17.354   5.956  32.614  1.00  0.00     0.068 A 
HETATM    6  C8  UNK     1      16.072   6.313  32.225  1.00  0.00     0.034 A 
HETATM    7  C14 UNK     1      15.634   7.621  32.435  1.00  0.00     0.038 A 
HETATM    8  C12 UNK     1      16.481   8.553  33.033  1.00  0.00     0.105 A 
HETATM    9  C11 UNK     1      17.768   8.178  33.420  1.00  0.00     0.074 A 
HETATM   10  C6  UNK     1      18.207   6.871  33.209  1.00  0.00     0.132 A 
BRANCH   8  11
HETATM   11  N3  UNK     1      16.034   9.883  33.246  1.00  0.00    -0.116 N 
HETATM   12  O6  UNK     1      14.846  10.177  32.972  1.00  0.00    -0.532 OA
HETATM   13  O7  UNK     1      16.840  10.730  33.705  1.00  0.00    -0.532 OA
ENDBRANCH   8  11
BRANCH  10  14
HETATM   14  N2  UNK     1      19.525   6.516  33.614  1.00  0.00    -0.113 N 
HETATM   15  O4  UNK     1      20.479   7.259  33.286  1.00  0.00    -0.532 OA
HETATM   16  O5  UNK     1      19.689   5.471  34.285  1.00  0.00    -0.532 OA
ENDBRANCH  10  14
ENDBRANCH   2   5
BRANCH   3  17
HETATM   17  C2  UNK     1      18.663   2.672  31.376  1.00  0.00     0.108 A 
HETATM   18  C10 UNK     1      18.389   1.925  32.625  1.00  0.00     0.304 A 
HETATM   19  O1  UNK     1      18.718   0.573  32.628  1.00  0.00    -0.274 OA
HETATM   20  O3  UNK     1      17.898   2.466  33.609  1.00  0.00    -0.259 OA
HETATM   21  C4  UNK     1      19.282  -0.059  31.503  1.00  0.00     0.089 A 
HETATM   22  C1  UNK     1      19.531   0.662  30.339  1.00  0.00    -0.001 A 
HETATM   23  C13 UNK     1      19.577  -1.417  31.602  1.00  0.00     0.038 A 
HETATM   24  C5  UNK     1      19.198   2.077  30.304  1.00  0.00     0.037 A 
HETATM   25  C9  UNK     1      20.092   0.000  29.244  1.00  0.00     0.014 A 
HETATM   26  C15 UNK     1      20.393  -1.362  29.329  1.00  0.00     0.001 A 
HETATM   27  C16 UNK     1      20.136  -2.069  30.505  1.00  0.00     0.003 A 
ENDBRANCH   3  17
TORSDOF 4
ENDMDL
MODEL 8
REMARK VINA RESULT:      -9.3     20.057     21.935
REMARK  4 active torsions:
REMARK  status: ('A' for Active; 'I' for Inactive)
REMARK    1  A    between atoms: C3_13  and  N1_8 
REMARK       I    between atoms: C7_17  and  N1_8 
REMARK    2  A    between atoms: C6_16  and  N2_9 
REMARK    3  A    between atoms: C12_22  and  N3_10 
REMARK    4  A    between atoms: C2_12  and  C7_17 
ROOT
HETATM    1  O2  UNK     1      17.847  -3.111  15.687  1.00  0.00    -0.267 OA
HETATM    2  N1  UNK     1      20.127  -2.987  15.110  1.00  0.00    -0.321 N 
HETATM    3  C7  UNK     1      18.917  -2.512  15.598  1.00  0.00     0.262 C 
HETATM    4  H2  UNK     1      20.898  -2.328  15.122  1.00  0.00     0.169 HD
ENDROOT
BRANCH   2   5
HETATM    5  C3  UNK     1      20.405  -4.280  14.602  1.00  0.00     0.068 A 
HETATM    6  C8  UNK     1      20.860  -5.246  15.485  1.00  0.00     0.034 A 
HETATM    7  C14 UNK     1      21.141  -6.528  15.011  1.00  0.00     0.038 A 
HETATM    8  C12 UNK     1      20.962  -6.827  13.661  1.00  0.00     0.105 A 
HETATM    9  C11 UNK     1      20.502  -5.844  12.784  1.00  0.00     0.074 A 
HETATM   10  C6  UNK     1      20.221  -4.563  13.257  1.00  0.00     0.132 A 
BRANCH   8  11
HETATM   11  N3  UNK     1      21.248  -8.131  13.179  1.00  0.00    -0.116 N 
HETATM   12  O6  UNK     1      20.421  -8.695  12.423  1.00  0.00    -0.532 OA
HETATM   13  O7  UNK     1      22.322  -8.684  13.522  1.00  0.00    -0.532 OA
ENDBRANCH   8  11
BRANCH  10  14
HETATM   14  N2  UNK     1      19.752  -3.579  12.341  1.00  0.00    -0.113 N 
HETATM   15  O4  UNK     1      18.580  -3.666  11.908  1.00  0.00    -0.532 OA
HETATM   16  O5  UNK     1      20.527  -2.656  11.997  1.00  0.00    -0.532 OA
ENDBRANCH  10  14
ENDBRANCH   2   5
BRANCH   3  17
HETATM   17  C2  UNK     1      19.010  -1.115  16.041  1.00  0.00     0.108 A 
HETATM   18  C10 UNK     1      19.290  -0.009  15.097  1.00  0.00     0.304 A 
HETATM   19  O1  UNK     1      19.353   1.272  15.638  1.00  0.00    -0.274 OA
HETATM   20  O3  UNK     1      19.457  -0.206  13.899  1.00  0.00    -0.259 OA
HETATM   21  C4  UNK     1      19.162   1.509  17.013  1.00  0.00     0.089 A 
HETATM   22  C1  UNK     1      18.901   0.455  17.882  1.00  0.00    -0.001 A 
HETATM   23  C13 UNK     1      19.244   2.826  17.461  1.00  0.00     0.038 A 
HETATM   24  C5  UNK     1      18.827  -0.896  17.348  1.00  0.00     0.037 A 
HETATM   25  C9  UNK     1      18.717   0.730  19.240  1.00  0.00     0.014 A 
HETATM   26  C15 UNK     1      18.797   2.046  19.703  1.00  0.00     0.001 A 
HETATM   27  C16 UNK     1      19.060   3.092  18.815  1.00  0.00     0.003 A 
ENDBRANCH   3  17
TORSDOF 4
ENDMDL
MODEL 9
REMARK VINA RESULT:      -9.2      2.592      8.240
REMARK  4 active torsions:
REMARK  status: ('A' for Active; 'I' for Inactive)
REMARK    1  A    between atoms: C3_13  and  N1_8 
REMARK       I    between atoms: C7_17  and  N1_8 
REMARK    2  A    between atoms: C6_16  and  N2_9 
REMARK    3  A    between atoms: C12_22  and  N3_10 
REMARK    4  A    between atoms: C2_12  and  C7_17 
ROOT
HETATM    1  O2  UNK     1      20.898  -4.144  37.982  1.00  0.00    -0.267 OA
HETATM    2  N1  UNK     1      19.026  -4.018  36.558  1.00  0.00    -0.321 N 
HETATM    3  C7  UNK     1      20.031  -4.654  37.275  1.00  0.00     0.262 C 
HETATM    4  H2  UNK     1      18.406  -4.624  36.033  1.00  0.00     0.169 HD
ENDROOT
BRANCH   2   5
HETATM    5  C3  UNK     1      18.770  -2.627  36.480  1.00  0.00     0.068 A 
HETATM    6  C8  UNK     1      17.710  -2.114  37.211  1.00  0.00     0.034 A 
HETATM    7  C14 UNK     1      17.436  -0.748  37.152  1.00  0.00     0.038 A 
HETATM    8  C12 UNK     1      18.227   0.089  36.364  1.00  0.00     0.105 A 
HETATM    9  C11 UNK     1      19.291  -0.442  35.634  1.00  0.00     0.074 A 
HETATM   10  C6  UNK     1      19.564  -1.808  35.693  1.00  0.00     0.132 A 
BRANCH   8  11
HETATM   11  N3  UNK     1      17.947   1.479  36.304  1.00  0.00    -0.116 N 
HETATM   12  O6  UNK     1      18.556   2.186  35.465  1.00  0.00    -0.532 OA
HETATM   13  O7  UNK     1      17.098   1.963  37.092  1.00  0.00    -0.532 OA
ENDBRANCH   8  11
BRANCH  10  14
HETATM   14  N2  UNK     1      20.657  -2.323  34.938  1.00  0.00    -0.113 N 
HETATM   15  O4  UNK     1      20.428  -3.170  34.044  1.00  0.00    -0.532 OA
HETATM   16  O5  UNK     1      21.813  -1.911  35.192  1.00  0.00    -0.532 OA
ENDBRANCH  10  14
ENDBRANCH   2   5
BRANCH   3  17
HETATM   17  C2  UNK     1      19.984  -6.113  37.117  1.00  0.00     0.108 A 
HETATM   18  C10 UNK     1      18.712  -6.868  37.169  1.00  0.00     0.304 A 
HETATM   19  O1  UNK     1      18.797  -8.247  37.006  1.00  0.00    -0.274 OA
HETATM   20  O3  UNK     1      17.634  -6.310  37.347  1.00  0.00    -0.259 OA
HETATM   21  C4  UNK     1      20.029  -8.898  36.800  1.00  0.00     0.089 A 
HETATM   22  C1  UNK     1      21.213  -8.169  36.755  1.00  0.00    -0.001 A 
HETATM   23  C13 UNK     1      20.013 -10.282  36.647  1.00  0.00     0.038 A 
HETATM   24  C5  UNK     1      21.158  -6.725  36.922  1.00  0.00     0.037 A 
HETATM   25  C9  UNK     1      22.416  -8.850  36.550  1.00  0.00     0.014 A 
HETATM   26  C15 UNK     1      22.415 -10.238  36.394  1.00  0.00     0.001 A 
HETATM   27  C16 UNK     1      21.216 -10.953  36.443  1.00  0.00     0.003 A 
ENDBRANCH   3  17
TORSDOF 4
ENDMDL
MODEL 10
REMARK VINA RESULT:      -8.9     20.097     21.923
REMARK  4 active torsions:
REMARK  status: ('A' for Active; 'I' for Inactive)
REMARK    1  A    between atoms: C3_13  and  N1_8 
REMARK       I    between atoms: C7_17  and  N1_8 
REMARK    2  A    between atoms: C6_16  and  N2_9 
REMARK    3  A    between atoms: C12_22  and  N3_10 
REMARK    4  A    between atoms: C2_12  and  C7_17 
ROOT
HETATM    1  O2  UNK     1      20.386  -3.504  16.038  1.00  0.00    -0.267 OA
HETATM    2  N1  UNK     1      18.275  -3.307  15.012  1.00  0.00    -0.321 N 
HETATM    3  C7  UNK     1      19.392  -2.861  15.707  1.00  0.00     0.262 C 
HETATM    4  H2  UNK     1      17.558  -2.612  14.836  1.00  0.00     0.169 HD
ENDROOT
BRANCH   2   5
HETATM    5  C3  UNK     1      18.028  -4.613  14.522  1.00  0.00     0.068 A 
HETATM    6  C8  UNK     1      17.273  -5.472  15.305  1.00  0.00     0.034 A 
HETATM    7  C14 UNK     1      17.015  -6.765  14.846  1.00  0.00     0.038 A 
HETATM    8  C12 UNK     1      17.513  -7.180  13.612  1.00  0.00     0.105 A 
HETATM    9  C11 UNK     1      18.271  -6.302  12.835  1.00  0.00     0.074 A 
HETATM   10  C6  UNK     1      18.530  -5.011  13.293  1.00  0.00     0.132 A 
BRANCH   8  11
HETATM   11  N3  UNK     1      17.250  -8.495  13.146  1.00  0.00    -0.116 N 
HETATM   12  O6  UNK     1      18.207  -9.203  12.754  1.00  0.00    -0.532 OA
HETATM   13  O7  UNK     1      16.066  -8.912  13.141  1.00  0.00    -0.532 OA
ENDBRANCH   8  11
BRANCH  10  14
HETATM   14  N2  UNK     1      19.305  -4.136  12.480  1.00  0.00    -0.113 N 
HETATM   15  O4  UNK     1      18.724  -3.224  11.848  1.00  0.00    -0.532 OA
HETATM   16  O5  UNK     1      20.545  -4.306  12.424  1.00  0.00    -0.532 OA
ENDBRANCH  10  14
ENDBRANCH   2   5
BRANCH   3  17
HETATM   17  C2  UNK     1      19.296  -1.438  16.052  1.00  0.00     0.108 A 
HETATM   18  C10 UNK     1      19.358  -0.374  15.024  1.00  0.00     0.304 A 
HETATM   19  O1  UNK     1      19.256   0.938  15.475  1.00  0.00    -0.274 OA
HETATM   20  O3  UNK     1      19.492  -0.632  13.833  1.00  0.00    -0.259 OA
HETATM   21  C4  UNK     1      19.102   1.245  16.841  1.00  0.00     0.089 A 
HETATM   22  C1  UNK     1      19.047   0.230  17.791  1.00  0.00    -0.001 A 
HETATM   23  C13 UNK     1      19.008   2.589  17.197  1.00  0.00     0.038 A 
HETATM   24  C5  UNK     1      19.149  -1.152  17.351  1.00  0.00     0.037 A 
HETATM   25  C9  UNK     1      18.892   0.574  19.137  1.00  0.00     0.014 A 
HETATM   26  C15 UNK     1      18.797   1.918  19.508  1.00  0.00     0.001 A 
HETATM   27  C16 UNK     1      18.855   2.924  18.540  1.00  0.00     0.003 A 
ENDBRANCH   3  17
TORSDOF 4
ENDMDL
