MODEL 1
REMARK VINA RESULT:      -8.1      0.000      0.000
REMARK  3 active torsions:
REMARK  status: ('A' for Active; 'I' for Inactive)
REMARK    1  A    between atoms: C10_15  and  O3_3 
REMARK    2  A    between atoms: C5_10  and  N1_5 
REMARK    3  A    between atoms: C5_10  and  C6_11 
ROOT
HETATM    1  O2  UNK     1      13.282   7.957  10.879  1.00  0.00    -0.274 OA
HETATM    2  O4  UNK     1      11.696   9.439  11.597  1.00  0.00    -0.260 OA
HETATM    3  C6  UNK     1      14.942   6.413  10.130  1.00  0.00     0.038 A 
HETATM    4  C9  UNK     1      14.625   7.709  10.527  1.00  0.00     0.101 A 
HETATM    5  C10 UNK     1      16.246   6.103   9.771  1.00  0.00     0.076 A 
HETATM    6  C11 UNK     1      15.583   8.723  10.577  1.00  0.00     0.005 A 
HETATM    7  C12 UNK     1      17.223   7.095   9.812  1.00  0.00     0.038 A 
HETATM    8  C13 UNK     1      16.895   8.396  10.212  1.00  0.00     0.017 A 
HETATM    9  C14 UNK     1      15.166  10.065  11.007  1.00  0.00    -0.043 A 
HETATM   10  C15 UNK     1      13.883  10.271  11.336  1.00  0.00     0.090 A 
HETATM   11  C16 UNK     1      12.861   9.212  11.288  1.00  0.00     0.288 A 
HETATM   12  C17 UNK     1      16.172  11.176  11.072  1.00  0.00     0.049 C 
ENDROOT
BRANCH   3  13
HETATM   13  C5  UNK     1      13.881   5.351  10.089  1.00  0.00     0.317 C 
BRANCH  13  14
HETATM   14  N1  UNK     1      12.742   5.747   9.265  1.00  0.00     0.097 N 
HETATM   15  C1  UNK     1      12.888   5.239   7.894  1.00  0.00     0.304 C 
HETATM   16  C3  UNK     1      11.695   5.657   7.027  1.00  0.00     0.146 C 
HETATM   17  O1  UNK     1      10.465   5.238   7.630  1.00  0.00    -0.378 OA
HETATM   18  C7  UNK     1      11.676   7.149   6.697  1.00  0.00     0.041 C 
HETATM   19  C4  UNK     1      10.302   5.697   8.975  1.00  0.00     0.146 C 
HETATM   20  C2  UNK     1      11.485   5.250   9.842  1.00  0.00     0.304 C 
HETATM   21  C8  UNK     1       8.994   5.118   9.502  1.00  0.00     0.041 C 
ENDBRANCH  13  14
ENDBRANCH   3  13
BRANCH   5  22
HETATM   22  O3  UNK     1      16.589   4.845   9.379  1.00  0.00    -0.360 OA
HETATM   23  H21 UNK     1      16.582   4.257  10.154  1.00  0.00     0.217 HD
ENDBRANCH   5  22
TORSDOF 3
ENDMDL
MODEL 2
REMARK VINA RESULT:      -8.0     22.351     23.611
REMARK  3 active torsions:
REMARK  status: ('A' for Active; 'I' for Inactive)
REMARK    1  A    between atoms: C10_15  and  O3_3 
REMARK    2  A    between atoms: C5_10  and  N1_5 
REMARK    3  A    between atoms: C5_10  and  C6_11 
ROOT
HETATM    1  O2  UNK     1      18.433   0.917  32.755  1.00  0.00    -0.274 OA
HETATM    2  O4  UNK     1      18.343   0.249  34.940  1.00  0.00    -0.260 OA
HETATM    3  C6  UNK     1      18.530   1.610  30.473  1.00  0.00     0.038 A 
HETATM    4  C9  UNK     1      18.869   0.665  31.437  1.00  0.00     0.101 A 
HETATM    5  C10 UNK     1      18.927   1.422  29.157  1.00  0.00     0.076 A 
HETATM    6  C11 UNK     1      19.605  -0.479  31.127  1.00  0.00     0.005 A 
HETATM    7  C12 UNK     1      19.663   0.288  28.817  1.00  0.00     0.038 A 
HETATM    8  C13 UNK     1      20.000  -0.656  29.794  1.00  0.00     0.017 A 
HETATM    9  C14 UNK     1      19.921  -1.427  32.204  1.00  0.00    -0.043 A 
HETATM   10  C15 UNK     1      19.494  -1.162  33.447  1.00  0.00     0.090 A 
HETATM   11  C16 UNK     1      18.717   0.040  33.791  1.00  0.00     0.288 A 
HETATM   12  C17 UNK     1      20.711  -2.667  31.903  1.00  0.00     0.049 C 
ENDROOT
BRANCH   3  13
HETATM   13  C5  UNK     1      17.737   2.828  30.848  1.00  0.00     0.317 C 
BRANCH  13  14
HETATM   14  N1  UNK     1      18.594   3.919  31.305  1.00  0.00     0.097 N 
HETATM   15  C1  UNK     1      18.821   4.891  30.226  1.00  0.00     0.304 C 
HETATM   16  C3  UNK     1      19.724   6.035  30.702  1.00  0.00     0.146 C 
HETATM   17  O1  UNK     1      19.179   6.649  31.875  1.00  0.00    -0.378 OA
HETATM   18  C7  UNK     1      21.177   5.614  30.914  1.00  0.00     0.041 C 
HETATM   19  C4  UNK     1      18.925   5.725  32.939  1.00  0.00     0.146 C 
HETATM   20  C2  UNK     1      17.998   4.601  32.463  1.00  0.00     0.304 C 
HETATM   21  C8  UNK     1      18.288   6.507  34.082  1.00  0.00     0.041 C 
ENDBRANCH  13  14
ENDBRANCH   3  13
BRANCH   5  22
HETATM   22  O3  UNK     1      18.611   2.327  28.189  1.00  0.00    -0.360 OA
HETATM   23  H21 UNK     1      18.610   3.219  28.576  1.00  0.00     0.217 HD
ENDBRANCH   5  22
TORSDOF 3
ENDMDL
MODEL 3
REMARK VINA RESULT:      -7.8     27.912     29.030
REMARK  3 active torsions:
REMARK  status: ('A' for Active; 'I' for Inactive)
REMARK    1  A    between atoms: C10_15  and  O3_3 
REMARK    2  A    between atoms: C5_10  and  N1_5 
REMARK    3  A    between atoms: C5_10  and  C6_11 
ROOT
HETATM    1  O2  UNK     1      20.734  -3.214  34.077  1.00  0.00    -0.274 OA
HETATM    2  O4  UNK     1      21.617  -3.732  32.033  1.00  0.00    -0.260 OA
HETATM    3  C6  UNK     1      19.809  -2.671  36.209  1.00  0.00     0.038 A 
HETATM    4  C9  UNK     1      19.888  -2.391  34.848  1.00  0.00     0.101 A 
HETATM    5  C10 UNK     1      18.994  -1.898  37.024  1.00  0.00     0.076 A 
HETATM    6  C11 UNK     1      19.170  -1.346  34.264  1.00  0.00     0.005 A 
HETATM    7  C12 UNK     1      18.265  -0.848  36.468  1.00  0.00     0.038 A 
HETATM    8  C13 UNK     1      18.351  -0.574  35.098  1.00  0.00     0.017 A 
HETATM    9  C14 UNK     1      19.310  -1.117  32.819  1.00  0.00    -0.043 A 
HETATM   10  C15 UNK     1      20.121  -1.916  32.111  1.00  0.00     0.090 A 
HETATM   11  C16 UNK     1      20.885  -3.022  32.713  1.00  0.00     0.288 A 
HETATM   12  C17 UNK     1      18.551  -0.003  32.161  1.00  0.00     0.049 C 
ENDROOT
BRANCH   3  13
HETATM   13  C5  UNK     1      20.599  -3.803  36.799  1.00  0.00     0.317 C 
BRANCH  13  14
HETATM   14  N1  UNK     1      19.778  -4.995  37.003  1.00  0.00     0.097 N 
HETATM   15  C1  UNK     1      19.750  -5.822  35.789  1.00  0.00     0.304 C 
HETATM   16  C3  UNK     1      18.886  -7.071  35.998  1.00  0.00     0.146 C 
HETATM   17  O1  UNK     1      19.337  -7.806  37.142  1.00  0.00    -0.378 OA
HETATM   18  C7  UNK     1      17.390  -6.769  36.082  1.00  0.00     0.041 C 
HETATM   19  C4  UNK     1      19.398  -7.023  38.338  1.00  0.00     0.146 C 
HETATM   20  C2  UNK     1      20.287  -5.791  38.128  1.00  0.00     0.304 C 
HETATM   21  C8  UNK     1      19.956  -7.914  39.441  1.00  0.00     0.041 C 
ENDBRANCH  13  14
ENDBRANCH   3  13
BRANCH   5  22
HETATM   22  O3  UNK     1      18.893  -2.146  38.359  1.00  0.00    -0.360 OA
HETATM   23  H21 UNK     1      18.256  -2.867  38.501  1.00  0.00     0.217 HD
ENDBRANCH   5  22
TORSDOF 3
ENDMDL
MODEL 4
REMARK VINA RESULT:      -7.7     22.750     24.179
REMARK  3 active torsions:
REMARK  status: ('A' for Active; 'I' for Inactive)
REMARK    1  A    between atoms: C10_15  and  O3_3 
REMARK    2  A    between atoms: C5_10  and  N1_5 
REMARK    3  A    between atoms: C5_10  and  C6_11 
ROOT
HETATM    1  O2  UNK     1      16.133   7.810  34.092  1.00  0.00    -0.274 OA
HETATM    2  O4  UNK     1      13.961   7.117  33.920  1.00  0.00    -0.260 OA
HETATM    3  C6  UNK     1      18.399   8.538  34.272  1.00  0.00     0.038 A 
HETATM    4  C9  UNK     1      17.058   8.874  34.107  1.00  0.00     0.101 A 
HETATM    5  C10 UNK     1      19.360   9.538  34.296  1.00  0.00     0.076 A 
HETATM    6  C11 UNK     1      16.638  10.197  33.962  1.00  0.00     0.005 A 
HETATM    7  C12 UNK     1      18.971  10.869  34.154  1.00  0.00     0.038 A 
HETATM    8  C13 UNK     1      17.620  11.197  33.989  1.00  0.00     0.017 A 
HETATM    9  C14 UNK     1      15.204  10.466  33.793  1.00  0.00    -0.043 A 
HETATM   10  C15 UNK     1      14.347   9.435  33.782  1.00  0.00     0.090 A 
HETATM   11  C16 UNK     1      14.774   8.034  33.934  1.00  0.00     0.288 A 
HETATM   12  C17 UNK     1      14.721  11.878  33.634  1.00  0.00     0.049 C 
ENDROOT
BRANCH   3  13
HETATM   13  C5  UNK     1      18.809   7.102  34.424  1.00  0.00     0.317 C 
BRANCH  13  14
HETATM   14  N1  UNK     1      18.649   6.353  33.180  1.00  0.00     0.097 N 
HETATM   15  C1  UNK     1      19.825   6.522  32.315  1.00  0.00     0.304 C 
HETATM   16  C3  UNK     1      19.658   5.740  31.007  1.00  0.00     0.146 C 
HETATM   17  O1  UNK     1      19.381   4.361  31.279  1.00  0.00    -0.378 OA
HETATM   18  C7  UNK     1      18.617   6.344  30.066  1.00  0.00     0.041 C 
HETATM   19  C4  UNK     1      18.255   4.162  32.139  1.00  0.00     0.146 C 
HETATM   20  C2  UNK     1      18.443   4.924  33.456  1.00  0.00     0.304 C 
HETATM   21  C8  UNK     1      18.130   2.664  32.391  1.00  0.00     0.041 C 
ENDBRANCH  13  14
ENDBRANCH   3  13
BRANCH   5  22
HETATM   22  O3  UNK     1      20.680   9.243  34.457  1.00  0.00    -0.360 OA
HETATM   23  H21 UNK     1      21.162   9.494  33.650  1.00  0.00     0.217 HD
ENDBRANCH   5  22
TORSDOF 3
ENDMDL
MODEL 5
REMARK VINA RESULT:      -7.7      2.071      5.738
REMARK  3 active torsions:
REMARK  status: ('A' for Active; 'I' for Inactive)
REMARK    1  A    between atoms: C10_15  and  O3_3 
REMARK    2  A    between atoms: C5_10  and  N1_5 
REMARK    3  A    between atoms: C5_10  and  C6_11 
ROOT
HETATM    1  O2  UNK     1      11.001   8.731   9.362  1.00  0.00    -0.274 OA
HETATM    2  O4  UNK     1      10.447  10.015  11.171  1.00  0.00    -0.260 OA
HETATM    3  C6  UNK     1      11.576   7.390   7.473  1.00  0.00     0.038 A 
HETATM    4  C9  UNK     1      10.597   7.823   8.362  1.00  0.00     0.101 A 
HETATM    5  C10 UNK     1      11.243   6.496   6.465  1.00  0.00     0.076 A 
HETATM    6  C11 UNK     1       9.274   7.384   8.280  1.00  0.00     0.005 A 
HETATM    7  C12 UNK     1       9.930   6.041   6.357  1.00  0.00     0.038 A 
HETATM    8  C13 UNK     1       8.952   6.482   7.257  1.00  0.00     0.017 A 
HETATM    9  C14 UNK     1       8.302   7.890   9.258  1.00  0.00    -0.043 A 
HETATM   10  C15 UNK     1       8.715   8.753  10.197  1.00  0.00     0.090 A 
HETATM   11  C16 UNK     1      10.106   9.225  10.298  1.00  0.00     0.288 A 
HETATM   12  C17 UNK     1       6.873   7.437   9.195  1.00  0.00     0.049 C 
ENDROOT
BRANCH   3  13
HETATM   13  C5  UNK     1      12.988   7.886   7.597  1.00  0.00     0.317 C 
BRANCH  13  14
HETATM   14  N1  UNK     1      13.709   7.217   8.677  1.00  0.00     0.097 N 
HETATM   15  C1  UNK     1      14.671   6.246   8.139  1.00  0.00     0.304 C 
HETATM   16  C3  UNK     1      15.426   5.540   9.271  1.00  0.00     0.146 C 
HETATM   17  O1  UNK     1      16.052   6.499  10.131  1.00  0.00    -0.378 OA
HETATM   18  C7  UNK     1      14.560   4.560  10.061  1.00  0.00     0.041 C 
HETATM   19  C4  UNK     1      15.145   7.474  10.655  1.00  0.00     0.146 C 
HETATM   20  C2  UNK     1      14.416   8.195   9.516  1.00  0.00     0.304 C 
HETATM   21  C8  UNK     1      15.960   8.457  11.486  1.00  0.00     0.041 C 
ENDBRANCH  13  14
ENDBRANCH   3  13
BRANCH   5  22
HETATM   22  O3  UNK     1      12.177   6.054   5.578  1.00  0.00    -0.360 OA
HETATM   23  H21 UNK     1      11.775   6.001   4.694  1.00  0.00     0.217 HD
ENDBRANCH   5  22
TORSDOF 3
ENDMDL
MODEL 6
REMARK VINA RESULT:      -7.6     30.858     32.500
REMARK  3 active torsions:
REMARK  status: ('A' for Active; 'I' for Inactive)
REMARK    1  A    between atoms: C10_15  and  O3_3 
REMARK    2  A    between atoms: C5_10  and  N1_5 
REMARK    3  A    between atoms: C5_10  and  C6_11 
ROOT
HETATM    1  O2  UNK     1      28.858  -6.676  36.132  1.00  0.00    -0.274 OA
HETATM    2  O4  UNK     1      26.900  -7.330  37.116  1.00  0.00    -0.260 OA
HETATM    3  C6  UNK     1      30.902  -5.990  35.110  1.00  0.00     0.038 A 
HETATM    4  C9  UNK     1      30.013  -5.868  36.173  1.00  0.00     0.101 A 
HETATM    5  C10 UNK     1      32.058  -5.223  35.089  1.00  0.00     0.076 A 
HETATM    6  C11 UNK     1      30.242  -4.990  37.234  1.00  0.00     0.005 A 
HETATM    7  C12 UNK     1      32.314  -4.338  36.135  1.00  0.00     0.038 A 
HETATM    8  C13 UNK     1      31.414  -4.222  37.200  1.00  0.00     0.017 A 
HETATM    9  C14 UNK     1      29.252  -4.921  38.318  1.00  0.00    -0.043 A 
HETATM   10  C15 UNK     1      28.164  -5.702  38.253  1.00  0.00     0.090 A 
HETATM   11  C16 UNK     1      27.908  -6.632  37.141  1.00  0.00     0.288 A 
HETATM   12  C17 UNK     1      29.471  -3.988  39.472  1.00  0.00     0.049 C 
ENDROOT
BRANCH   3  13
HETATM   13  C5  UNK     1      30.618  -6.945  33.987  1.00  0.00     0.317 C 
BRANCH  13  14
HETATM   14  N1  UNK     1      29.956  -6.287  32.863  1.00  0.00     0.097 N 
HETATM   15  C1  UNK     1      30.828  -6.272  31.681  1.00  0.00     0.304 C 
HETATM   16  C3  UNK     1      30.137  -5.578  30.501  1.00  0.00     0.146 C 
HETATM   17  O1  UNK     1      28.871  -6.192  30.230  1.00  0.00    -0.378 OA
HETATM   18  C7  UNK     1      29.999  -4.067  30.680  1.00  0.00     0.041 C 
HETATM   19  C4  UNK     1      28.005  -6.244  31.368  1.00  0.00     0.146 C 
HETATM   20  C2  UNK     1      28.694  -6.964  32.534  1.00  0.00     0.304 C 
HETATM   21  C8  UNK     1      26.739  -6.979  30.947  1.00  0.00     0.041 C 
ENDBRANCH  13  14
ENDBRANCH   3  13
BRANCH   5  22
HETATM   22  O3  UNK     1      32.950  -5.319  34.064  1.00  0.00    -0.360 OA
HETATM   23  H21 UNK     1      32.736  -4.648  33.393  1.00  0.00     0.217 HD
ENDBRANCH   5  22
TORSDOF 3
ENDMDL
MODEL 7
REMARK VINA RESULT:      -7.4     29.217     31.458
REMARK  3 active torsions:
REMARK  status: ('A' for Active; 'I' for Inactive)
REMARK    1  A    between atoms: C10_15  and  O3_3 
REMARK    2  A    between atoms: C5_10  and  N1_5 
REMARK    3  A    between atoms: C5_10  and  C6_11 
ROOT
HETATM    1  O2  UNK     1      30.445  -6.599  30.098  1.00  0.00    -0.274 OA
HETATM    2  O4  UNK     1      30.266  -4.587  31.170  1.00  0.00    -0.260 OA
HETATM    3  C6  UNK     1      30.627  -8.699  28.979  1.00  0.00     0.038 A 
HETATM    4  C9  UNK     1      29.810  -7.747  29.581  1.00  0.00     0.101 A 
HETATM    5  C10 UNK     1      30.065  -9.852  28.450  1.00  0.00     0.076 A 
HETATM    6  C11 UNK     1      28.427  -7.910  29.675  1.00  0.00     0.005 A 
HETATM    7  C12 UNK     1      28.687 -10.042  28.529  1.00  0.00     0.038 A 
HETATM    8  C13 UNK     1      27.873  -9.079  29.136  1.00  0.00     0.017 A 
HETATM    9  C14 UNK     1      27.636  -6.857  30.326  1.00  0.00    -0.043 A 
HETATM   10  C15 UNK     1      28.267  -5.776  30.808  1.00  0.00     0.090 A 
HETATM   11  C16 UNK     1      29.725  -5.590  30.717  1.00  0.00     0.288 A 
HETATM   12  C17 UNK     1      26.148  -7.003  30.442  1.00  0.00     0.049 C 
ENDROOT
BRANCH   3  13
HETATM   13  C5  UNK     1      32.112  -8.486  28.899  1.00  0.00     0.317 C 
BRANCH  13  14
HETATM   14  N1  UNK     1      32.763  -8.688  30.191  1.00  0.00     0.097 N 
HETATM   15  C1  UNK     1      33.364 -10.027  30.268  1.00  0.00     0.304 C 
HETATM   16  C3  UNK     1      34.045 -10.243  31.624  1.00  0.00     0.146 C 
HETATM   17  O1  UNK     1      35.002  -9.207  31.875  1.00  0.00    -0.378 OA
HETATM   18  C7  UNK     1      33.060 -10.388  32.783  1.00  0.00     0.041 C 
HETATM   19  C4  UNK     1      34.454  -7.888  31.785  1.00  0.00     0.146 C 
HETATM   20  C2  UNK     1      33.800  -7.671  30.416  1.00  0.00     0.304 C 
HETATM   21  C8  UNK     1      35.595  -6.902  32.005  1.00  0.00     0.041 C 
ENDBRANCH  13  14
ENDBRANCH   3  13
BRANCH   5  22
HETATM   22  O3  UNK     1      30.836 -10.803  27.854  1.00  0.00    -0.360 OA
HETATM   23  H21 UNK     1      30.445 -11.678  28.017  1.00  0.00     0.217 HD
ENDBRANCH   5  22
TORSDOF 3
ENDMDL
MODEL 8
REMARK VINA RESULT:      -7.4     30.934     32.608
REMARK  3 active torsions:
REMARK  status: ('A' for Active; 'I' for Inactive)
REMARK    1  A    between atoms: C10_15  and  O3_3 
REMARK    2  A    between atoms: C5_10  and  N1_5 
REMARK    3  A    between atoms: C5_10  and  C6_11 
ROOT
HETATM    1  O2  UNK     1      30.940  -5.563  35.502  1.00  0.00    -0.274 OA
HETATM    2  O4  UNK     1      32.534  -3.924  35.506  1.00  0.00    -0.260 OA
HETATM    3  C6  UNK     1      29.274  -7.272  35.501  1.00  0.00     0.038 A 
HETATM    4  C9  UNK     1      29.854  -6.186  36.150  1.00  0.00     0.101 A 
HETATM    5  C10 UNK     1      28.201  -7.929  36.085  1.00  0.00     0.076 A 
HETATM    6  C11 UNK     1      29.393  -5.729  37.385  1.00  0.00     0.005 A 
HETATM    7  C12 UNK     1      27.718  -7.495  37.318  1.00  0.00     0.038 A 
HETATM    8  C13 UNK     1      28.309  -6.403  37.964  1.00  0.00     0.017 A 
HETATM    9  C14 UNK     1      30.062  -4.576  38.004  1.00  0.00    -0.043 A 
HETATM   10  C15 UNK     1      31.091  -4.003  37.364  1.00  0.00     0.090 A 
HETATM   11  C16 UNK     1      31.589  -4.474  36.061  1.00  0.00     0.288 A 
HETATM   12  C17 UNK     1      29.589  -4.060  39.331  1.00  0.00     0.049 C 
ENDROOT
BRANCH   3  13
HETATM   13  C5  UNK     1      29.801  -7.733  34.173  1.00  0.00     0.317 C 
BRANCH  13  14
HETATM   14  N1  UNK     1      29.381  -6.856  33.082  1.00  0.00     0.097 N 
HETATM   15  C1  UNK     1      30.476  -6.656  32.124  1.00  0.00     0.304 C 
HETATM   16  C3  UNK     1      30.039  -5.732  30.981  1.00  0.00     0.146 C 
HETATM   17  O1  UNK     1      28.856  -6.238  30.351  1.00  0.00    -0.378 OA
HETATM   18  C7  UNK     1      29.865  -4.276  31.408  1.00  0.00     0.041 C 
HETATM   19  C4  UNK     1      27.776  -6.467  31.262  1.00  0.00     0.146 C 
HETATM   20  C2  UNK     1      28.214  -7.414  32.385  1.00  0.00     0.304 C 
HETATM   21  C8  UNK     1      26.624  -7.065  30.465  1.00  0.00     0.041 C 
ENDBRANCH  13  14
ENDBRANCH   3  13
BRANCH   5  22
HETATM   22  O3  UNK     1      27.610  -8.994  35.476  1.00  0.00    -0.360 OA
HETATM   23  H21 UNK     1      28.268  -9.701  35.362  1.00  0.00     0.217 HD
ENDBRANCH   5  22
TORSDOF 3
ENDMDL
MODEL 9
REMARK VINA RESULT:      -7.3     33.774     35.693
REMARK  3 active torsions:
REMARK  status: ('A' for Active; 'I' for Inactive)
REMARK    1  A    between atoms: C10_15  and  O3_3 
REMARK    2  A    between atoms: C5_10  and  N1_5 
REMARK    3  A    between atoms: C5_10  and  C6_11 
ROOT
HETATM    1  O2  UNK     1      30.702  -8.333  38.300  1.00  0.00    -0.274 OA
HETATM    2  O4  UNK     1      31.013 -10.597  38.384  1.00  0.00    -0.260 OA
HETATM    3  C6  UNK     1      30.374  -5.971  38.215  1.00  0.00     0.038 A 
HETATM    4  C9  UNK     1      29.835  -7.232  38.452  1.00  0.00     0.101 A 
HETATM    5  C10 UNK     1      29.574  -4.845  38.347  1.00  0.00     0.076 A 
HETATM    6  C11 UNK     1      28.502  -7.410  38.822  1.00  0.00     0.005 A 
HETATM    7  C12 UNK     1      28.239  -4.992  38.716  1.00  0.00     0.038 A 
HETATM    8  C13 UNK     1      27.705  -6.264  38.952  1.00  0.00     0.017 A 
HETATM    9  C14 UNK     1      28.011  -8.775  39.054  1.00  0.00    -0.043 A 
HETATM   10  C15 UNK     1      28.858  -9.803  38.903  1.00  0.00     0.090 A 
HETATM   11  C16 UNK     1      30.267  -9.632  38.513  1.00  0.00     0.288 A 
HETATM   12  C17 UNK     1      26.582  -8.999  39.453  1.00  0.00     0.049 C 
ENDROOT
BRANCH   3  13
HETATM   13  C5  UNK     1      31.815  -5.823  37.817  1.00  0.00     0.317 C 
BRANCH  13  14
HETATM   14  N1  UNK     1      32.017  -6.066  36.391  1.00  0.00     0.097 N 
HETATM   15  C1  UNK     1      32.160  -4.799  35.661  1.00  0.00     0.304 C 
HETATM   16  C3  UNK     1      32.368  -5.052  34.163  1.00  0.00     0.146 C 
HETATM   17  O1  UNK     1      33.483  -5.926  33.952  1.00  0.00    -0.378 OA
HETATM   18  C7  UNK     1      31.115  -5.562  33.453  1.00  0.00     0.041 C 
HETATM   19  C4  UNK     1      33.385  -7.161  34.668  1.00  0.00     0.146 C 
HETATM   20  C2  UNK     1      33.207  -6.899  36.168  1.00  0.00     0.304 C 
HETATM   21  C8  UNK     1      34.664  -7.947  34.402  1.00  0.00     0.041 C 
ENDBRANCH  13  14
ENDBRANCH   3  13
BRANCH   5  22
HETATM   22  O3  UNK     1      30.071  -3.597  38.123  1.00  0.00    -0.360 OA
HETATM   23  H21 UNK     1      30.062  -3.096  38.957  1.00  0.00     0.217 HD
ENDBRANCH   5  22
TORSDOF 3
ENDMDL
MODEL 10
REMARK VINA RESULT:      -7.2      2.754      6.031
REMARK  3 active torsions:
REMARK  status: ('A' for Active; 'I' for Inactive)
REMARK    1  A    between atoms: C10_15  and  O3_3 
REMARK    2  A    between atoms: C5_10  and  N1_5 
REMARK    3  A    between atoms: C5_10  and  C6_11 
ROOT
HETATM    1  O2  UNK     1      13.431   8.654   9.833  1.00  0.00    -0.274 OA
HETATM    2  O4  UNK     1      11.280   9.362   9.520  1.00  0.00    -0.260 OA
HETATM    3  C6  UNK     1      15.676   7.910  10.158  1.00  0.00     0.038 A 
HETATM    4  C9  UNK     1      14.388   7.624   9.717  1.00  0.00     0.101 A 
HETATM    5  C10 UNK     1      16.664   6.940  10.070  1.00  0.00     0.076 A 
HETATM    6  C11 UNK     1      14.046   6.380   9.185  1.00  0.00     0.005 A 
HETATM    7  C12 UNK     1      16.353   5.689   9.543  1.00  0.00     0.038 A 
HETATM    8  C13 UNK     1      15.054   5.410   9.103  1.00  0.00     0.017 A 
HETATM    9  C14 UNK     1      12.662   6.158   8.742  1.00  0.00    -0.043 A 
HETATM   10  C15 UNK     1      11.775   7.156   8.865  1.00  0.00     0.090 A 
HETATM   11  C16 UNK     1      12.120   8.474   9.424  1.00  0.00     0.288 A 
HETATM   12  C17 UNK     1      12.264   4.832   8.165  1.00  0.00     0.049 C 
ENDROOT
BRANCH   3  13
HETATM   13  C5  UNK     1      16.002   9.262  10.725  1.00  0.00     0.317 C 
BRANCH  13  14
HETATM   14  N1  UNK     1      16.392  10.212   9.686  1.00  0.00     0.097 N 
HETATM   15  C1  UNK     1      15.570  11.428   9.758  1.00  0.00     0.304 C 
HETATM   16  C3  UNK     1      15.974  12.425   8.665  1.00  0.00     0.146 C 
HETATM   17  O1  UNK     1      17.374  12.715   8.744  1.00  0.00    -0.378 OA
HETATM   18  C7  UNK     1      15.572  11.983   7.259  1.00  0.00     0.041 C 
HETATM   19  C4  UNK     1      18.203  11.549   8.701  1.00  0.00     0.146 C 
HETATM   20  C2  UNK     1      17.811  10.571   9.814  1.00  0.00     0.304 C 
HETATM   21  C8  UNK     1      19.647  12.008   8.864  1.00  0.00     0.041 C 
ENDBRANCH  13  14
ENDBRANCH   3  13
BRANCH   5  22
HETATM   22  O3  UNK     1      17.935   7.189  10.492  1.00  0.00    -0.360 OA
HETATM   23  H21 UNK     1      18.352   7.825   9.887  1.00  0.00     0.217 HD
ENDBRANCH   5  22
TORSDOF 3
ENDMDL
