MODEL 1
REMARK VINA RESULT:      -8.7      0.000      0.000
REMARK  2 active torsions:
REMARK  status: ('A' for Active; 'I' for Inactive)
REMARK    1  A    between atoms: N1_6  and  O4_4 
REMARK    2  A    between atoms: C11_17  and  C2_8 
ROOT
HETATM    1  O1  UNK     1      18.407  -1.305  34.606  1.00  0.00    -0.333 OA
HETATM    2  O2  UNK     1      18.054   3.248  32.944  1.00  0.00    -0.274 OA
HETATM    3  O3  UNK     1      17.672   0.621  37.435  1.00  0.00    -0.293 OA
HETATM    4  O5  UNK     1      17.859   5.362  32.088  1.00  0.00    -0.260 OA
HETATM    5  C1  UNK     1      17.495  -1.020  35.666  1.00  0.00     0.121 C 
HETATM    6  C2  UNK     1      17.831   1.512  35.218  1.00  0.00     0.140 C 
HETATM    7  C3  UNK     1      18.263   1.014  33.861  1.00  0.00     0.027 A 
HETATM    8  C4  UNK     1      17.693   0.389  36.225  1.00  0.00     0.174 C 
HETATM    9  C5  UNK     1      18.545  -0.339  33.647  1.00  0.00     0.080 A 
HETATM   10  C6  UNK     1      17.801  -2.055  36.757  1.00  0.00     0.055 C 
HETATM   11  C7  UNK     1      16.048  -1.204  35.196  1.00  0.00     0.055 C 
HETATM   12  C8  UNK     1      18.392   1.883  32.763  1.00  0.00     0.100 A 
HETATM   13  C9  UNK     1      18.832   1.449  31.512  1.00  0.00    -0.001 A 
HETATM   14  C10 UNK     1      19.008  -0.787  32.403  1.00  0.00     0.038 A 
HETATM   15  C12 UNK     1      19.151   0.104  31.339  1.00  0.00     0.017 A 
HETATM   16  C13 UNK     1      18.948   2.409  30.426  1.00  0.00     0.020 A 
HETATM   17  C14 UNK     1      18.630   3.691  30.619  1.00  0.00     0.083 A 
HETATM   18  C15 UNK     1      18.153   4.184  31.922  1.00  0.00     0.288 A 
ENDROOT
BRANCH   6  19
HETATM   19  C11 UNK     1      18.771   2.568  35.727  1.00  0.00     0.136 C 
HETATM   20  N1  UNK     1      19.956   2.257  36.132  1.00  0.00    -0.152 NA
BRANCH  20  21
HETATM   21  O4  UNK     1      20.603   3.426  36.545  1.00  0.00    -0.267 OA
HETATM   22  H13 UNK     1      20.475   3.389  37.508  1.00  0.00     0.247 HD
ENDBRANCH  20  21
ENDBRANCH   6  19
TORSDOF 2
ENDMDL
MODEL 2
REMARK VINA RESULT:      -8.1      1.707      2.282
REMARK  2 active torsions:
REMARK  status: ('A' for Active; 'I' for Inactive)
REMARK    1  A    between atoms: N1_6  and  O4_4 
REMARK    2  A    between atoms: C11_17  and  C2_8 
ROOT
HETATM    1  O1  UNK     1      18.689  -1.262  35.197  1.00  0.00    -0.333 OA
HETATM    2  O2  UNK     1      18.516   1.483  31.191  1.00  0.00    -0.274 OA
HETATM    3  O3  UNK     1      17.162   1.716  36.224  1.00  0.00    -0.293 OA
HETATM    4  O5  UNK     1      18.427   2.707  29.258  1.00  0.00    -0.260 OA
HETATM    5  C1  UNK     1      17.525  -0.622  35.721  1.00  0.00     0.121 C 
HETATM    6  C2  UNK     1      17.825   1.265  33.967  1.00  0.00     0.140 C 
HETATM    7  C3  UNK     1      18.610   0.198  33.244  1.00  0.00     0.027 A 
HETATM    8  C4  UNK     1      17.500   0.870  35.393  1.00  0.00     0.174 C 
HETATM    9  C5  UNK     1      19.010  -0.970  33.899  1.00  0.00     0.080 A 
HETATM   10  C6  UNK     1      17.604  -0.816  37.241  1.00  0.00     0.055 C 
HETATM   11  C7  UNK     1      16.255  -1.301  35.197  1.00  0.00     0.055 C 
HETATM   12  C8  UNK     1      18.963   0.334  31.889  1.00  0.00     0.100 A 
HETATM   13  C9  UNK     1      19.726  -0.620  31.216  1.00  0.00    -0.001 A 
HETATM   14  C10 UNK     1      19.794  -1.927  33.243  1.00  0.00     0.038 A 
HETATM   15  C12 UNK     1      20.152  -1.753  31.906  1.00  0.00     0.017 A 
HETATM   16  C13 UNK     1      20.058  -0.407  29.816  1.00  0.00     0.020 A 
HETATM   17  C14 UNK     1      19.633   0.686  29.178  1.00  0.00     0.083 A 
HETATM   18  C15 UNK     1      18.817   1.710  29.853  1.00  0.00     0.288 A 
ENDROOT
BRANCH   6  19
HETATM   19  C11 UNK     1      18.548   2.581  33.933  1.00  0.00     0.136 C 
HETATM   20  N1  UNK     1      17.942   3.657  33.556  1.00  0.00    -0.152 NA
BRANCH  20  21
HETATM   21  O4  UNK     1      18.848   4.720  33.622  1.00  0.00    -0.267 OA
HETATM   22  H13 UNK     1      19.636   4.282  33.983  1.00  0.00     0.247 HD
ENDBRANCH  20  21
ENDBRANCH   6  19
TORSDOF 2
ENDMDL
MODEL 3
REMARK VINA RESULT:      -8.0      2.360      5.209
REMARK  2 active torsions:
REMARK  status: ('A' for Active; 'I' for Inactive)
REMARK    1  A    between atoms: N1_6  and  O4_4 
REMARK    2  A    between atoms: C11_17  and  C2_8 
ROOT
HETATM    1  O1  UNK     1      17.610   4.019  30.824  1.00  0.00    -0.333 OA
HETATM    2  O2  UNK     1      20.017  -0.090  31.789  1.00  0.00    -0.274 OA
HETATM    3  O3  UNK     1      17.935   3.975  34.310  1.00  0.00    -0.293 OA
HETATM    4  O5  UNK     1      21.192  -2.018  32.171  1.00  0.00    -0.260 OA
HETATM    5  C1  UNK     1      18.143   4.641  31.993  1.00  0.00     0.121 C 
HETATM    6  C2  UNK     1      18.852   2.302  32.862  1.00  0.00     0.140 C 
HETATM    7  C3  UNK     1      18.770   1.951  31.397  1.00  0.00     0.027 A 
HETATM    8  C4  UNK     1      18.252   3.661  33.161  1.00  0.00     0.174 C 
HETATM    9  C5  UNK     1      18.141   2.804  30.486  1.00  0.00     0.080 A 
HETATM   10  C6  UNK     1      17.154   5.759  32.348  1.00  0.00     0.055 C 
HETATM   11  C7  UNK     1      19.512   5.262  31.695  1.00  0.00     0.055 C 
HETATM   12  C8  UNK     1      19.324   0.760  30.893  1.00  0.00     0.100 A 
HETATM   13  C9  UNK     1      19.220   0.397  29.550  1.00  0.00    -0.001 A 
HETATM   14  C10 UNK     1      18.009   2.443  29.139  1.00  0.00     0.038 A 
HETATM   15  C12 UNK     1      18.546   1.244  28.672  1.00  0.00     0.017 A 
HETATM   16  C13 UNK     1      19.812  -0.854  29.103  1.00  0.00     0.020 A 
HETATM   17  C14 UNK     1      20.456  -1.644  29.965  1.00  0.00     0.083 A 
HETATM   18  C15 UNK     1      20.595  -1.289  31.388  1.00  0.00     0.288 A 
ENDROOT
BRANCH   6  19
HETATM   19  C11 UNK     1      18.208   1.240  33.707  1.00  0.00     0.136 C 
HETATM   20  N1  UNK     1      16.924   1.169  33.813  1.00  0.00    -0.152 NA
BRANCH  20  21
HETATM   21  O4  UNK     1      16.608   0.097  34.652  1.00  0.00    -0.267 OA
HETATM   22  H13 UNK     1      17.466  -0.080  35.073  1.00  0.00     0.247 HD
ENDBRANCH  20  21
ENDBRANCH   6  19
TORSDOF 2
ENDMDL
MODEL 4
REMARK VINA RESULT:      -7.9     13.284     14.765
REMARK  2 active torsions:
REMARK  status: ('A' for Active; 'I' for Inactive)
REMARK    1  A    between atoms: N1_6  and  O4_4 
REMARK    2  A    between atoms: C11_17  and  C2_8 
ROOT
HETATM    1  O1  UNK     1      28.603  -8.507  38.547  1.00  0.00    -0.333 OA
HETATM    2  O2  UNK     1      31.460  -4.967  36.838  1.00  0.00    -0.274 OA
HETATM    3  O3  UNK     1      26.519  -5.701  38.343  1.00  0.00    -0.293 OA
HETATM    4  O5  UNK     1      32.850  -3.357  35.990  1.00  0.00    -0.260 OA
HETATM    5  C1  UNK     1      27.452  -7.901  37.960  1.00  0.00     0.121 C 
HETATM    6  C2  UNK     1      28.812  -5.714  37.651  1.00  0.00     0.140 C 
HETATM    7  C3  UNK     1      29.982  -6.663  37.741  1.00  0.00     0.027 A 
HETATM    8  C4  UNK     1      27.506  -6.375  38.043  1.00  0.00     0.174 C 
HETATM    9  C5  UNK     1      29.814  -7.972  38.201  1.00  0.00     0.080 A 
HETATM   10  C6  UNK     1      26.259  -8.419  38.775  1.00  0.00     0.055 C 
HETATM   11  C7  UNK     1      27.292  -8.347  36.503  1.00  0.00     0.055 C 
HETATM   12  C8  UNK     1      31.279  -6.271  37.362  1.00  0.00     0.100 A 
HETATM   13  C9  UNK     1      32.380  -7.119  37.479  1.00  0.00    -0.001 A 
HETATM   14  C10 UNK     1      30.913  -8.829  38.344  1.00  0.00     0.038 A 
HETATM   15  C12 UNK     1      32.193  -8.404  37.985  1.00  0.00     0.017 A 
HETATM   16  C13 UNK     1      33.693  -6.640  37.075  1.00  0.00     0.020 A 
HETATM   17  C14 UNK     1      33.843  -5.406  36.589  1.00  0.00     0.083 A 
HETATM   18  C15 UNK     1      32.703  -4.487  36.441  1.00  0.00     0.288 A 
ENDROOT
BRANCH   6  19
HETATM   19  C11 UNK     1      29.053  -4.484  38.479  1.00  0.00     0.136 C 
HETATM   20  N1  UNK     1      29.226  -4.570  39.755  1.00  0.00    -0.152 NA
BRANCH  20  21
HETATM   21  O4  UNK     1      29.427  -3.282  40.261  1.00  0.00    -0.267 OA
HETATM   22  H13 UNK     1      29.259  -2.736  39.476  1.00  0.00     0.247 HD
ENDBRANCH  20  21
ENDBRANCH   6  19
TORSDOF 2
ENDMDL
MODEL 5
REMARK VINA RESULT:      -7.5     24.513     25.801
REMARK  2 active torsions:
REMARK  status: ('A' for Active; 'I' for Inactive)
REMARK    1  A    between atoms: N1_6  and  O4_4 
REMARK    2  A    between atoms: C11_17  and  C2_8 
ROOT
HETATM    1  O1  UNK     1      11.956   5.532   9.112  1.00  0.00    -0.333 OA
HETATM    2  O2  UNK     1      15.202   9.101   9.694  1.00  0.00    -0.274 OA
HETATM    3  O3  UNK     1      10.051   8.468   9.168  1.00  0.00    -0.293 OA
HETATM    4  O5  UNK     1      16.787  10.737   9.925  1.00  0.00    -0.260 OA
HETATM    5  C1  UNK     1      11.073   6.409   8.413  1.00  0.00     0.121 C 
HETATM    6  C2  UNK     1      12.441   8.425   9.302  1.00  0.00     0.140 C 
HETATM    7  C3  UNK     1      13.516   7.377   9.453  1.00  0.00     0.027 A 
HETATM    8  C4  UNK     1      11.085   7.819   9.004  1.00  0.00     0.174 C 
HETATM    9  C5  UNK     1      13.208   6.015   9.376  1.00  0.00     0.080 A 
HETATM   10  C6  UNK     1       9.677   5.794   8.574  1.00  0.00     0.055 C 
HETATM   11  C7  UNK     1      11.428   6.456   6.923  1.00  0.00     0.055 C 
HETATM   12  C8  UNK     1      14.861   7.726   9.671  1.00  0.00     0.100 A 
HETATM   13  C9  UNK     1      15.860   6.771   9.858  1.00  0.00    -0.001 A 
HETATM   14  C10 UNK     1      14.197   5.044   9.583  1.00  0.00     0.038 A 
HETATM   15  C12 UNK     1      15.519   5.421   9.823  1.00  0.00     0.017 A 
HETATM   16  C13 UNK     1      17.228   7.209  10.086  1.00  0.00     0.020 A 
HETATM   17  C14 UNK     1      17.528   8.509  10.110  1.00  0.00     0.083 A 
HETATM   18  C15 UNK     1      16.502   9.545   9.907  1.00  0.00     0.288 A 
ENDROOT
BRANCH   6  19
HETATM   19  C11 UNK     1      12.373   9.305  10.517  1.00  0.00     0.136 C 
HETATM   20  N1  UNK     1      12.279   8.794  11.698  1.00  0.00    -0.152 NA
BRANCH  20  21
HETATM   21  O4  UNK     1      12.235   9.836  12.629  1.00  0.00    -0.267 OA
HETATM   22  H13 UNK     1      11.428   9.620  13.125  1.00  0.00     0.247 HD
ENDBRANCH  20  21
ENDBRANCH   6  19
TORSDOF 2
ENDMDL
MODEL 6
REMARK VINA RESULT:      -7.5     24.617     25.968
REMARK  2 active torsions:
REMARK  status: ('A' for Active; 'I' for Inactive)
REMARK    1  A    between atoms: N1_6  and  O4_4 
REMARK    2  A    between atoms: C11_17  and  C2_8 
ROOT
HETATM    1  O1  UNK     1      13.030   5.470  10.050  1.00  0.00    -0.333 OA
HETATM    2  O2  UNK     1      14.547   9.906   8.773  1.00  0.00    -0.274 OA
HETATM    3  O3  UNK     1      10.112   7.186   9.158  1.00  0.00    -0.293 OA
HETATM    4  O5  UNK     1      15.333  11.963   8.143  1.00  0.00    -0.260 OA
HETATM    5  C1  UNK     1      11.911   5.568   9.170  1.00  0.00     0.121 C 
HETATM    6  C2  UNK     1      12.311   8.125   9.013  1.00  0.00     0.140 C 
HETATM    7  C3  UNK     1      13.704   7.734   9.440  1.00  0.00     0.027 A 
HETATM    8  C4  UNK     1      11.327   6.980   9.144  1.00  0.00     0.174 C 
HETATM    9  C5  UNK     1      13.970   6.460   9.949  1.00  0.00     0.080 A 
HETATM   10  C6  UNK     1      10.868   4.589   9.727  1.00  0.00     0.055 C 
HETATM   11  C7  UNK     1      12.299   5.130   7.753  1.00  0.00     0.055 C 
HETATM   12  C8  UNK     1      14.784   8.630   9.340  1.00  0.00     0.100 A 
HETATM   13  C9  UNK     1      16.069   8.302   9.771  1.00  0.00    -0.001 A 
HETATM   14  C10 UNK     1      15.250   6.123  10.406  1.00  0.00     0.038 A 
HETATM   15  C12 UNK     1      16.297   7.041  10.318  1.00  0.00     0.017 A 
HETATM   16  C13 UNK     1      17.135   9.284   9.643  1.00  0.00     0.020 A 
HETATM   17  C14 UNK     1      16.890  10.483   9.110  1.00  0.00     0.083 A 
HETATM   18  C15 UNK     1      15.548  10.861   8.635  1.00  0.00     0.288 A 
ENDROOT
BRANCH   6  19
HETATM   19  C11 UNK     1      11.831   9.327   9.776  1.00  0.00     0.136 C 
HETATM   20  N1  UNK     1      11.790   9.317  11.065  1.00  0.00    -0.152 NA
BRANCH  20  21
HETATM   21  O4  UNK     1      11.308  10.555  11.503  1.00  0.00    -0.267 OA
HETATM   22  H13 UNK     1      11.100  10.991  10.660  1.00  0.00     0.247 HD
ENDBRANCH  20  21
ENDBRANCH   6  19
TORSDOF 2
ENDMDL
MODEL 7
REMARK VINA RESULT:      -7.5      9.076     11.967
REMARK  2 active torsions:
REMARK  status: ('A' for Active; 'I' for Inactive)
REMARK    1  A    between atoms: N1_6  and  O4_4 
REMARK    2  A    between atoms: C11_17  and  C2_8 
ROOT
HETATM    1  O1  UNK     1      19.909  -9.034  35.889  1.00  0.00    -0.333 OA
HETATM    2  O2  UNK     1      24.589  -8.731  37.160  1.00  0.00    -0.274 OA
HETATM    3  O3  UNK     1      20.129  -6.096  37.779  1.00  0.00    -0.293 OA
HETATM    4  O5  UNK     1      26.815  -8.626  37.687  1.00  0.00    -0.260 OA
HETATM    5  C1  UNK     1      19.776  -7.614  35.928  1.00  0.00     0.121 C 
HETATM    6  C2  UNK     1      22.007  -7.484  37.244  1.00  0.00     0.140 C 
HETATM    7  C3  UNK     1      22.230  -8.835  36.611  1.00  0.00     0.027 A 
HETATM    8  C4  UNK     1      20.582  -6.998  37.071  1.00  0.00     0.174 C 
HETATM    9  C5  UNK     1      21.179  -9.529  36.005  1.00  0.00     0.080 A 
HETATM   10  C6  UNK     1      18.281  -7.351  36.151  1.00  0.00     0.055 C 
HETATM   11  C7  UNK     1      20.196  -6.996  34.590  1.00  0.00     0.055 C 
HETATM   12  C8  UNK     1      23.499  -9.444  36.602  1.00  0.00     0.100 A 
HETATM   13  C9  UNK     1      23.716 -10.711  36.062  1.00  0.00    -0.001 A 
HETATM   14  C10 UNK     1      21.377 -10.811  35.477  1.00  0.00     0.038 A 
HETATM   15  C12 UNK     1      22.641 -11.401  35.505  1.00  0.00     0.017 A 
HETATM   16  C13 UNK     1      25.054 -11.279  36.096  1.00  0.00     0.020 A 
HETATM   17  C14 UNK     1      26.067 -10.594  36.631  1.00  0.00     0.083 A 
HETATM   18  C15 UNK     1      25.878  -9.249  37.202  1.00  0.00     0.288 A 
ENDROOT
BRANCH   6  19
HETATM   19  C11 UNK     1      22.388  -7.500  38.697  1.00  0.00     0.136 C 
HETATM   20  N1  UNK     1      22.003  -8.459  39.470  1.00  0.00    -0.152 NA
BRANCH  20  21
HETATM   21  O4  UNK     1      22.500  -8.218  40.755  1.00  0.00    -0.267 OA
HETATM   22  H13 UNK     1      23.459  -8.243  40.600  1.00  0.00     0.247 HD
ENDBRANCH  20  21
ENDBRANCH   6  19
TORSDOF 2
ENDMDL
MODEL 8
REMARK VINA RESULT:      -7.5     18.887     21.132
REMARK  2 active torsions:
REMARK  status: ('A' for Active; 'I' for Inactive)
REMARK    1  A    between atoms: N1_6  and  O4_4 
REMARK    2  A    between atoms: C11_17  and  C2_8 
ROOT
HETATM    1  O1  UNK     1      17.713  -3.996  15.286  1.00  0.00    -0.333 OA
HETATM    2  O2  UNK     1      21.197  -6.834  13.436  1.00  0.00    -0.274 OA
HETATM    3  O3  UNK     1      20.703  -2.642  16.502  1.00  0.00    -0.293 OA
HETATM    4  O5  UNK     1      22.791  -8.183  12.497  1.00  0.00    -0.260 OA
HETATM    5  C1  UNK     1      18.602  -2.881  15.326  1.00  0.00     0.121 C 
HETATM    6  C2  UNK     1      20.594  -4.510  15.008  1.00  0.00     0.140 C 
HETATM    7  C3  UNK     1      19.518  -5.402  14.439  1.00  0.00     0.027 A 
HETATM    8  C4  UNK     1      20.021  -3.297  15.711  1.00  0.00     0.174 C 
HETATM    9  C5  UNK     1      18.164  -5.110  14.632  1.00  0.00     0.080 A 
HETATM   10  C6  UNK     1      18.031  -1.943  16.398  1.00  0.00     0.055 C 
HETATM   11  C7  UNK     1      18.611  -2.150  13.978  1.00  0.00     0.055 C 
HETATM   12  C8  UNK     1      19.832  -6.552  13.692  1.00  0.00     0.100 A 
HETATM   13  C9  UNK     1      18.852  -7.412  13.196  1.00  0.00    -0.001 A 
HETATM   14  C10 UNK     1      17.170  -5.975  14.157  1.00  0.00     0.038 A 
HETATM   15  C12 UNK     1      17.512  -7.123  13.442  1.00  0.00     0.017 A 
HETATM   16  C13 UNK     1      19.255  -8.587  12.439  1.00  0.00     0.020 A 
HETATM   17  C14 UNK     1      20.546  -8.837  12.213  1.00  0.00     0.083 A 
HETATM   18  C15 UNK     1      21.608  -7.947  12.713  1.00  0.00     0.288 A 
ENDROOT
BRANCH   6  19
HETATM   19  C11 UNK     1      21.498  -5.279  15.929  1.00  0.00     0.136 C 
HETATM   20  N1  UNK     1      22.758  -5.010  15.994  1.00  0.00    -0.152 NA
BRANCH  20  21
HETATM   21  O4  UNK     1      23.348  -5.872  16.923  1.00  0.00    -0.267 OA
HETATM   22  H13 UNK     1      22.800  -5.714  17.709  1.00  0.00     0.247 HD
ENDBRANCH  20  21
ENDBRANCH   6  19
TORSDOF 2
ENDMDL
MODEL 9
REMARK VINA RESULT:      -7.4     24.450     26.622
REMARK  2 active torsions:
REMARK  status: ('A' for Active; 'I' for Inactive)
REMARK    1  A    between atoms: N1_6  and  O4_4 
REMARK    2  A    between atoms: C11_17  and  C2_8 
ROOT
HETATM    1  O1  UNK     1      14.480   6.576   8.236  1.00  0.00    -0.333 OA
HETATM    2  O2  UNK     1       9.839   7.481   9.359  1.00  0.00    -0.274 OA
HETATM    3  O3  UNK     1      14.619   8.279  11.291  1.00  0.00    -0.293 OA
HETATM    4  O5  UNK     1       7.631   7.836   9.850  1.00  0.00    -0.260 OA
HETATM    5  C1  UNK     1      14.839   6.547   9.617  1.00  0.00     0.121 C 
HETATM    6  C2  UNK     1      12.579   7.686  10.185  1.00  0.00     0.140 C 
HETATM    7  C3  UNK     1      12.180   7.114   8.847  1.00  0.00     0.027 A 
HETATM    8  C4  UNK     1      14.072   7.591  10.428  1.00  0.00     0.174 C 
HETATM    9  C5  UNK     1      13.141   6.626   7.957  1.00  0.00     0.080 A 
HETATM   10  C6  UNK     1      16.339   6.865   9.655  1.00  0.00     0.055 C 
HETATM   11  C7  UNK     1      14.610   5.149  10.203  1.00  0.00     0.055 C 
HETATM   12  C8  UNK     1      10.833   7.045   8.448  1.00  0.00     0.100 A 
HETATM   13  C9  UNK     1      10.448   6.561   7.197  1.00  0.00    -0.001 A 
HETATM   14  C10 UNK     1      12.772   6.156   6.690  1.00  0.00     0.038 A 
HETATM   15  C12 UNK     1      11.430   6.124   6.311  1.00  0.00     0.017 A 
HETATM   16  C13 UNK     1       9.036   6.528   6.852  1.00  0.00     0.020 A 
HETATM   17  C14 UNK     1       8.116   6.948   7.722  1.00  0.00     0.083 A 
HETATM   18  C15 UNK     1       8.483   7.456   9.055  1.00  0.00     0.288 A 
ENDROOT
BRANCH   6  19
HETATM   19  C11 UNK     1      12.108   9.105  10.326  1.00  0.00     0.136 C 
HETATM   20  N1  UNK     1      11.550   9.511  11.417  1.00  0.00    -0.152 NA
BRANCH  20  21
HETATM   21  O4  UNK     1      11.217  10.860  11.269  1.00  0.00    -0.267 OA
HETATM   22  H13 UNK     1      11.364  10.993  10.317  1.00  0.00     0.247 HD
ENDBRANCH  20  21
ENDBRANCH   6  19
TORSDOF 2
ENDMDL
MODEL 10
REMARK VINA RESULT:      -7.4     13.970     16.020
REMARK  2 active torsions:
REMARK  status: ('A' for Active; 'I' for Inactive)
REMARK    1  A    between atoms: N1_6  and  O4_4 
REMARK    2  A    between atoms: C11_17  and  C2_8 
ROOT
HETATM    1  O1  UNK     1      32.335  -5.085  37.534  1.00  0.00    -0.333 OA
HETATM    2  O2  UNK     1      28.589  -8.171  37.765  1.00  0.00    -0.274 OA
HETATM    3  O3  UNK     1      33.693  -8.198  36.687  1.00  0.00    -0.293 OA
HETATM    4  O5  UNK     1      26.773  -9.564  37.849  1.00  0.00    -0.260 OA
HETATM    5  C1  UNK     1      32.977  -5.892  36.547  1.00  0.00     0.121 C 
HETATM    6  C2  UNK     1      31.373  -7.837  37.154  1.00  0.00     0.140 C 
HETATM    7  C3  UNK     1      30.519  -6.707  37.676  1.00  0.00     0.027 A 
HETATM    8  C4  UNK     1      32.777  -7.384  36.812  1.00  0.00     0.174 C 
HETATM    9  C5  UNK     1      31.050  -5.427  37.857  1.00  0.00     0.080 A 
HETATM   10  C6  UNK     1      34.469  -5.546  36.645  1.00  0.00     0.055 C 
HETATM   11  C7  UNK     1      32.473  -5.531  35.146  1.00  0.00     0.055 C 
HETATM   12  C8  UNK     1      29.162  -6.896  37.995  1.00  0.00     0.100 A 
HETATM   13  C9  UNK     1      28.369  -5.876  38.521  1.00  0.00    -0.001 A 
HETATM   14  C10 UNK     1      30.272  -4.398  38.403  1.00  0.00     0.038 A 
HETATM   15  C12 UNK     1      28.936  -4.622  38.735  1.00  0.00     0.017 A 
HETATM   16  C13 UNK     1      26.975  -6.149  38.834  1.00  0.00     0.020 A 
HETATM   17  C14 UNK     1      26.456  -7.359  38.614  1.00  0.00     0.083 A 
HETATM   18  C15 UNK     1      27.260  -8.457  38.052  1.00  0.00     0.288 A 
ENDROOT
BRANCH   6  19
HETATM   19  C11 UNK     1      31.406  -8.980  38.127  1.00  0.00     0.136 C 
HETATM   20  N1  UNK     1      31.132 -10.182  37.744  1.00  0.00    -0.152 NA
BRANCH  20  21
HETATM   21  O4  UNK     1      31.241 -11.034  38.847  1.00  0.00    -0.267 OA
HETATM   22  H13 UNK     1      30.966 -10.449  39.572  1.00  0.00     0.247 HD
ENDBRANCH  20  21
ENDBRANCH   6  19
TORSDOF 2
ENDMDL
