MODEL 1
REMARK VINA RESULT:      -9.3      0.000      0.000
REMARK  2 active torsions:
REMARK  status: ('A' for Active; 'I' for Inactive)
REMARK       I    between atoms: C5_11  and  N1_6 
REMARK    1  A    between atoms: C7_13  and  N1_6 
REMARK    2  A    between atoms: C2_8  and  C5_11 
ROOT
HETATM    1  O2  UNK     1      17.584   3.191  32.787  1.00  0.00    -0.267 OA
HETATM    2  N1  UNK     1      18.826   4.653  31.422  1.00  0.00    -0.323 N 
HETATM    3  C5  UNK     1      18.313   3.428  31.826  1.00  0.00     0.262 C 
HETATM    4  H3  UNK     1      19.402   4.684  30.584  1.00  0.00     0.169 HD
ENDROOT
BRANCH   3   5
HETATM    5  C2  UNK     1      18.741   2.333  30.946  1.00  0.00     0.108 A 
HETATM    6  C4  UNK     1      19.161   1.217  31.554  1.00  0.00     0.037 A 
HETATM    7  C1  UNK     1      19.606   0.077  30.770  1.00  0.00    -0.001 A 
HETATM    8  C3  UNK     1      19.585   0.167  29.381  1.00  0.00     0.089 A 
HETATM    9  C6  UNK     1      20.053  -1.107  31.362  1.00  0.00     0.014 A 
HETATM   10  O1  UNK     1      19.141   1.343  28.747  1.00  0.00    -0.274 OA
HETATM   11  C9  UNK     1      19.999  -0.889  28.571  1.00  0.00     0.038 A 
HETATM   12  C8  UNK     1      18.710   2.451  29.471  1.00  0.00     0.304 A 
HETATM   13  O3  UNK     1      18.327   3.472  28.911  1.00  0.00    -0.259 OA
HETATM   14  C11 UNK     1      20.443  -2.065  29.170  1.00  0.00     0.003 A 
HETATM   15  C10 UNK     1      20.470  -2.175  30.561  1.00  0.00     0.001 A 
ENDBRANCH   3   5
BRANCH   2  16
HETATM   16  C7  UNK     1      18.621   5.917  32.028  1.00  0.00     0.036 A 
HETATM   17  C12 UNK     1      17.400   6.552  31.874  1.00  0.00     0.050 A 
HETATM   18  C14 UNK     1      17.200   7.797  32.471  1.00  0.00     0.030 A 
HETATM   19 Br1  UNK     1      15.501   8.612  32.220  1.00  0.00    -0.050 Br
HETATM   20  C16 UNK     1      18.223   8.387  33.212  1.00  0.00     0.028 A 
HETATM   21 Br2  UNK     1      18.042  10.079  34.060  1.00  0.00    -0.050 Br
HETATM   22  C15 UNK     1      19.447   7.735  33.356  1.00  0.00     0.023 A 
HETATM   23  C13 UNK     1      19.648   6.490  32.760  1.00  0.00     0.031 A 
ENDBRANCH   2  16
TORSDOF 2
ENDMDL
MODEL 2
REMARK VINA RESULT:      -9.2      9.115     12.095
REMARK  2 active torsions:
REMARK  status: ('A' for Active; 'I' for Inactive)
REMARK       I    between atoms: C5_11  and  N1_6 
REMARK    1  A    between atoms: C7_13  and  N1_6 
REMARK    2  A    between atoms: C2_8  and  C5_11 
ROOT
HETATM    1  O2  UNK     1      21.272  -4.227  37.237  1.00  0.00    -0.267 OA
HETATM    2  N1  UNK     1      19.286  -5.159  36.383  1.00  0.00    -0.323 N 
HETATM    3  C5  UNK     1      20.184  -4.140  36.671  1.00  0.00     0.262 C 
HETATM    4  H3  UNK     1      18.430  -4.923  35.886  1.00  0.00     0.169 HD
ENDROOT
BRANCH   3   5
HETATM    5  C2  UNK     1      19.701  -2.832  36.214  1.00  0.00     0.108 A 
HETATM    6  C4  UNK     1      19.005  -2.115  37.105  1.00  0.00     0.037 A 
HETATM    7  C1  UNK     1      18.484  -0.806  36.747  1.00  0.00    -0.001 A 
HETATM    8  C3  UNK     1      18.722  -0.314  35.467  1.00  0.00     0.089 A 
HETATM    9  C6  UNK     1      17.754  -0.023  37.645  1.00  0.00     0.014 A 
HETATM   10  O1  UNK     1      19.455  -1.073  34.534  1.00  0.00    -0.274 OA
HETATM   11  C9  UNK     1      18.250   0.933  35.060  1.00  0.00     0.038 A 
HETATM   12  C8  UNK     1      19.965  -2.330  34.848  1.00  0.00     0.304 A 
HETATM   13  O3  UNK     1      20.601  -2.984  34.028  1.00  0.00    -0.259 OA
HETATM   14  C11 UNK     1      17.522   1.706  35.961  1.00  0.00     0.003 A 
HETATM   15  C10 UNK     1      17.275   1.231  37.250  1.00  0.00     0.001 A 
ENDBRANCH   3   5
BRANCH   2  16
HETATM   16  C7  UNK     1      19.422  -6.539  36.674  1.00  0.00     0.036 A 
HETATM   17  C12 UNK     1      20.286  -7.308  35.914  1.00  0.00     0.050 A 
HETATM   18  C14 UNK     1      20.420  -8.667  36.200  1.00  0.00     0.030 A 
HETATM   19 Br1  UNK     1      21.623  -9.665  35.119  1.00  0.00    -0.050 Br
HETATM   20  C16 UNK     1      19.687  -9.235  37.243  1.00  0.00     0.028 A 
HETATM   21 Br2  UNK     1      19.803 -11.075  37.705  1.00  0.00    -0.050 Br
HETATM   22  C15 UNK     1      18.820  -8.445  37.997  1.00  0.00     0.023 A 
HETATM   23  C13 UNK     1      18.687  -7.087  37.711  1.00  0.00     0.031 A 
ENDBRANCH   2  16
TORSDOF 2
ENDMDL
MODEL 3
REMARK VINA RESULT:      -8.9      1.448      2.604
REMARK  2 active torsions:
REMARK  status: ('A' for Active; 'I' for Inactive)
REMARK       I    between atoms: C5_11  and  N1_6 
REMARK    1  A    between atoms: C7_13  and  N1_6 
REMARK    2  A    between atoms: C2_8  and  C5_11 
ROOT
HETATM    1  O2  UNK     1      18.247   4.618  30.397  1.00  0.00    -0.267 OA
HETATM    2  N1  UNK     1      18.213   4.625  32.751  1.00  0.00    -0.323 N 
HETATM    3  C5  UNK     1      18.350   4.063  31.489  1.00  0.00     0.262 C 
HETATM    4  H3  UNK     1      18.350   4.028  33.564  1.00  0.00     0.169 HD
ENDROOT
BRANCH   3   5
HETATM    5  C2  UNK     1      18.650   2.627  31.553  1.00  0.00     0.108 A 
HETATM    6  C4  UNK     1      19.218   2.094  30.464  1.00  0.00     0.037 A 
HETATM    7  C1  UNK     1      19.553   0.680  30.430  1.00  0.00    -0.001 A 
HETATM    8  C3  UNK     1      19.276  -0.105  31.546  1.00  0.00     0.089 A 
HETATM    9  C6  UNK     1      20.147   0.081  29.316  1.00  0.00     0.014 A 
HETATM   10  O1  UNK     1      18.679   0.462  32.688  1.00  0.00    -0.274 OA
HETATM   11  C9  UNK     1      19.572  -1.466  31.577  1.00  0.00     0.038 A 
HETATM   12  C8  UNK     1      18.345   1.813  32.750  1.00  0.00     0.304 A 
HETATM   13  O3  UNK     1      17.825   2.297  33.749  1.00  0.00    -0.259 OA
HETATM   14  C11 UNK     1      20.162  -2.055  30.462  1.00  0.00     0.003 A 
HETATM   15  C10 UNK     1      20.450  -1.284  29.334  1.00  0.00     0.001 A 
ENDBRANCH   3   5
BRANCH   2  16
HETATM   16  C7  UNK     1      17.926   5.975  33.069  1.00  0.00     0.036 A 
HETATM   17  C12 UNK     1      18.949   6.799  33.507  1.00  0.00     0.050 A 
HETATM   18  C14 UNK     1      18.667   8.129  33.820  1.00  0.00     0.030 A 
HETATM   19 Br1  UNK     1      20.116   9.205  34.415  1.00  0.00    -0.050 Br
HETATM   20  C16 UNK     1      17.365   8.614  33.691  1.00  0.00     0.028 A 
HETATM   21 Br2  UNK     1      16.886  10.408  34.094  1.00  0.00    -0.050 Br
HETATM   22  C15 UNK     1      16.347   7.770  33.249  1.00  0.00     0.023 A 
HETATM   23  C13 UNK     1      16.629   6.441  32.936  1.00  0.00     0.031 A 
ENDBRANCH   2  16
TORSDOF 2
ENDMDL
MODEL 4
REMARK VINA RESULT:      -8.7     14.777     16.188
REMARK  2 active torsions:
REMARK  status: ('A' for Active; 'I' for Inactive)
REMARK       I    between atoms: C5_11  and  N1_6 
REMARK    1  A    between atoms: C7_13  and  N1_6 
REMARK    2  A    between atoms: C2_8  and  C5_11 
ROOT
HETATM    1  O2  UNK     1      26.231  -9.119  39.386  1.00  0.00    -0.267 OA
HETATM    2  N1  UNK     1      24.826  -7.479  38.448  1.00  0.00    -0.323 N 
HETATM    3  C5  UNK     1      26.024  -8.003  38.914  1.00  0.00     0.262 C 
HETATM    4  H3  UNK     1      24.827  -6.537  38.065  1.00  0.00     0.169 HD
ENDROOT
BRANCH   3   5
HETATM    5  C2  UNK     1      27.130  -7.045  38.795  1.00  0.00     0.108 A 
HETATM    6  C4  UNK     1      28.355  -7.570  38.674  1.00  0.00     0.037 A 
HETATM    7  C1  UNK     1      29.516  -6.703  38.551  1.00  0.00    -0.001 A 
HETATM    8  C3  UNK     1      29.329  -5.324  38.559  1.00  0.00     0.089 A 
HETATM    9  C6  UNK     1      30.813  -7.206  38.422  1.00  0.00     0.014 A 
HETATM   10  O1  UNK     1      28.037  -4.777  38.686  1.00  0.00    -0.274 OA
HETATM   11  C9  UNK     1      30.399  -4.437  38.445  1.00  0.00     0.038 A 
HETATM   12  C8  UNK     1      26.908  -5.582  38.807  1.00  0.00     0.304 A 
HETATM   13  O3  UNK     1      25.787  -5.098  38.918  1.00  0.00    -0.259 OA
HETATM   14  C11 UNK     1      31.688  -4.948  38.318  1.00  0.00     0.003 A 
HETATM   15  C10 UNK     1      31.895  -6.329  38.306  1.00  0.00     0.001 A 
ENDBRANCH   3   5
BRANCH   2  16
HETATM   16  C7  UNK     1      23.562  -8.116  38.408  1.00  0.00     0.036 A 
HETATM   17  C12 UNK     1      23.181  -8.794  37.262  1.00  0.00     0.050 A 
HETATM   18  C14 UNK     1      21.936  -9.421  37.223  1.00  0.00     0.030 A 
HETATM   19 Br1  UNK     1      21.476 -10.333  35.620  1.00  0.00    -0.050 Br
HETATM   20  C16 UNK     1      21.090  -9.361  38.331  1.00  0.00     0.028 A 
HETATM   21 Br2  UNK     1      19.378 -10.184  38.369  1.00  0.00    -0.050 Br
HETATM   22  C15 UNK     1      21.489  -8.674  39.477  1.00  0.00     0.023 A 
HETATM   23  C13 UNK     1      22.734  -8.047  39.516  1.00  0.00     0.031 A 
ENDBRANCH   2  16
TORSDOF 2
ENDMDL
MODEL 5
REMARK VINA RESULT:      -8.6      1.412      2.161
REMARK  2 active torsions:
REMARK  status: ('A' for Active; 'I' for Inactive)
REMARK       I    between atoms: C5_11  and  N1_6 
REMARK    1  A    between atoms: C7_13  and  N1_6 
REMARK    2  A    between atoms: C2_8  and  C5_11 
ROOT
HETATM    1  O2  UNK     1      17.170   4.154  31.044  1.00  0.00    -0.267 OA
HETATM    2  N1  UNK     1      18.645   4.492  32.849  1.00  0.00    -0.323 N 
HETATM    3  C5  UNK     1      18.012   3.763  31.851  1.00  0.00     0.262 C 
HETATM    4  H3  UNK     1      19.339   4.021  33.425  1.00  0.00     0.169 HD
ENDROOT
BRANCH   3   5
HETATM    5  C2  UNK     1      18.455   2.364  31.823  1.00  0.00     0.108 A 
HETATM    6  C4  UNK     1      19.027   1.948  30.686  1.00  0.00     0.037 A 
HETATM    7  C1  UNK     1      19.498   0.579  30.560  1.00  0.00    -0.001 A 
HETATM    8  C3  UNK     1      19.345  -0.287  31.639  1.00  0.00     0.089 A 
HETATM    9  C6  UNK     1      20.101   0.102  29.394  1.00  0.00     0.014 A 
HETATM   10  O1  UNK     1      18.742   0.156  32.832  1.00  0.00    -0.274 OA
HETATM   11  C9  UNK     1      19.774  -1.612  31.583  1.00  0.00     0.038 A 
HETATM   12  C8  UNK     1      18.280   1.460  32.982  1.00  0.00     0.304 A 
HETATM   13  O3  UNK     1      17.756   1.837  34.024  1.00  0.00    -0.259 OA
HETATM   14  C11 UNK     1      20.373  -2.079  30.416  1.00  0.00     0.003 A 
HETATM   15  C10 UNK     1      20.538  -1.225  29.324  1.00  0.00     0.001 A 
ENDBRANCH   3   5
BRANCH   2  16
HETATM   16  C7  UNK     1      18.466   5.861  33.164  1.00  0.00     0.036 A 
HETATM   17  C12 UNK     1      17.182   6.357  33.321  1.00  0.00     0.050 A 
HETATM   18  C14 UNK     1      17.006   7.706  33.630  1.00  0.00     0.030 A 
HETATM   19 Br1  UNK     1      15.219   8.321  33.832  1.00  0.00    -0.050 Br
HETATM   20  C16 UNK     1      18.116   8.538  33.778  1.00  0.00     0.028 A 
HETATM   21 Br2  UNK     1      17.974  10.386  34.198  1.00  0.00    -0.050 Br
HETATM   22  C15 UNK     1      19.402   8.022  33.615  1.00  0.00     0.023 A 
HETATM   23  C13 UNK     1      19.578   6.673  33.306  1.00  0.00     0.031 A 
ENDBRANCH   2  16
TORSDOF 2
ENDMDL
MODEL 6
REMARK VINA RESULT:      -8.4      8.563     10.338
REMARK  2 active torsions:
REMARK  status: ('A' for Active; 'I' for Inactive)
REMARK       I    between atoms: C5_11  and  N1_6 
REMARK    1  A    between atoms: C7_13  and  N1_6 
REMARK    2  A    between atoms: C2_8  and  C5_11 
ROOT
HETATM    1  O2  UNK     1      21.269  -3.891  36.804  1.00  0.00    -0.267 OA
HETATM    2  N1  UNK     1      18.918  -3.874  36.687  1.00  0.00    -0.323 N 
HETATM    3  C5  UNK     1      20.178  -4.454  36.748  1.00  0.00     0.262 C 
HETATM    4  H3  UNK     1      18.105  -4.486  36.666  1.00  0.00     0.169 HD
ENDROOT
BRANCH   3   5
HETATM    5  C2  UNK     1      20.113  -5.921  36.738  1.00  0.00     0.108 A 
HETATM    6  C4  UNK     1      19.951  -6.512  37.928  1.00  0.00     0.037 A 
HETATM    7  C1  UNK     1      19.875  -7.961  38.022  1.00  0.00    -0.001 A 
HETATM    8  C3  UNK     1      19.973  -8.717  36.858  1.00  0.00     0.089 A 
HETATM    9  C6  UNK     1      19.706  -8.621  39.242  1.00  0.00     0.014 A 
HETATM   10  O1  UNK     1      20.144  -8.089  35.609  1.00  0.00    -0.274 OA
HETATM   11  C9  UNK     1      19.910 -10.109  36.879  1.00  0.00     0.038 A 
HETATM   12  C8  UNK     1      20.220  -6.704  35.487  1.00  0.00     0.304 A 
HETATM   13  O3  UNK     1      20.370  -6.166  34.396  1.00  0.00    -0.259 OA
HETATM   14  C11 UNK     1      19.742 -10.759  38.100  1.00  0.00     0.003 A 
HETATM   15  C10 UNK     1      19.640 -10.017  39.278  1.00  0.00     0.001 A 
ENDBRANCH   3   5
BRANCH   2  16
HETATM   16  C7  UNK     1      18.602  -2.494  36.678  1.00  0.00     0.036 A 
HETATM   17  C12 UNK     1      18.635  -1.799  35.481  1.00  0.00     0.050 A 
HETATM   18  C14 UNK     1      18.325  -0.440  35.473  1.00  0.00     0.030 A 
HETATM   19 Br1  UNK     1      18.389   0.453  33.795  1.00  0.00    -0.050 Br
HETATM   20  C16 UNK     1      17.986   0.205  36.662  1.00  0.00     0.028 A 
HETATM   21 Br2  UNK     1      17.549   2.053  36.749  1.00  0.00    -0.050 Br
HETATM   22  C15 UNK     1      17.959  -0.509  37.860  1.00  0.00     0.023 A 
HETATM   23  C13 UNK     1      18.269  -1.869  37.868  1.00  0.00     0.031 A 
ENDBRANCH   2  16
TORSDOF 2
ENDMDL
MODEL 7
REMARK VINA RESULT:      -8.3     15.198     18.524
REMARK  2 active torsions:
REMARK  status: ('A' for Active; 'I' for Inactive)
REMARK       I    between atoms: C5_11  and  N1_6 
REMARK    1  A    between atoms: C7_13  and  N1_6 
REMARK    2  A    between atoms: C2_8  and  C5_11 
ROOT
HETATM    1  O2  UNK     1      17.833  -3.246  15.769  1.00  0.00    -0.267 OA
HETATM    2  N1  UNK     1      20.047  -3.061  14.991  1.00  0.00    -0.323 N 
HETATM    3  C5  UNK     1      18.875  -2.620  15.589  1.00  0.00     0.262 C 
HETATM    4  H3  UNK     1      20.834  -2.419  14.938  1.00  0.00     0.169 HD
ENDROOT
BRANCH   3   5
HETATM    5  C2  UNK     1      18.972  -1.223  16.032  1.00  0.00     0.108 A 
HETATM    6  C4  UNK     1      18.793  -1.005  17.340  1.00  0.00     0.037 A 
HETATM    7  C1  UNK     1      18.869   0.344  17.876  1.00  0.00    -0.001 A 
HETATM    8  C3  UNK     1      19.132   1.399  17.007  1.00  0.00     0.089 A 
HETATM    9  C6  UNK     1      18.689   0.619  19.234  1.00  0.00     0.014 A 
HETATM   10  O1  UNK     1      19.320   1.163  15.632  1.00  0.00    -0.274 OA
HETATM   11  C9  UNK     1      19.218   2.716  17.456  1.00  0.00     0.038 A 
HETATM   12  C8  UNK     1      19.252  -0.117  15.089  1.00  0.00     0.304 A 
HETATM   13  O3  UNK     1      19.416  -0.313  13.890  1.00  0.00    -0.259 OA
HETATM   14  C11 UNK     1      19.036   2.980  18.811  1.00  0.00     0.003 A 
HETATM   15  C10 UNK     1      18.773   1.935  19.699  1.00  0.00     0.001 A 
ENDBRANCH   3   5
BRANCH   2  16
HETATM   16  C7  UNK     1      20.311  -4.344  14.451  1.00  0.00     0.036 A 
HETATM   17  C12 UNK     1      20.034  -4.586  13.116  1.00  0.00     0.050 A 
HETATM   18  C14 UNK     1      20.293  -5.850  12.585  1.00  0.00     0.030 A 
HETATM   19 Br1  UNK     1      19.889  -6.115  10.747  1.00  0.00    -0.050 Br
HETATM   20  C16 UNK     1      20.826  -6.851  13.397  1.00  0.00     0.028 A 
HETATM   21 Br2  UNK     1      21.211  -8.601  12.762  1.00  0.00    -0.050 Br
HETATM   22  C15 UNK     1      21.099  -6.590  14.739  1.00  0.00     0.023 A 
HETATM   23  C13 UNK     1      20.840  -5.327  15.270  1.00  0.00     0.031 A 
ENDBRANCH   2  16
TORSDOF 2
ENDMDL
MODEL 8
REMARK VINA RESULT:      -8.2      8.359     10.177
REMARK  2 active torsions:
REMARK  status: ('A' for Active; 'I' for Inactive)
REMARK       I    between atoms: C5_11  and  N1_6 
REMARK    1  A    between atoms: C7_13  and  N1_6 
REMARK    2  A    between atoms: C2_8  and  C5_11 
ROOT
HETATM    1  O2  UNK     1      21.029  -3.698  37.557  1.00  0.00    -0.267 OA
HETATM    2  N1  UNK     1      19.214  -3.686  36.056  1.00  0.00    -0.323 N 
HETATM    3  C5  UNK     1      20.178  -4.263  36.872  1.00  0.00     0.262 C 
HETATM    4  H3  UNK     1      18.566  -4.298  35.567  1.00  0.00     0.169 HD
ENDROOT
BRANCH   3   5
HETATM    5  C2  UNK     1      20.108  -5.729  36.859  1.00  0.00     0.108 A 
HETATM    6  C4  UNK     1      19.981  -6.325  38.051  1.00  0.00     0.037 A 
HETATM    7  C1  UNK     1      19.904  -7.774  38.142  1.00  0.00    -0.001 A 
HETATM    8  C3  UNK     1      19.962  -8.526  36.973  1.00  0.00     0.089 A 
HETATM    9  C6  UNK     1      19.771  -8.438  39.365  1.00  0.00     0.014 A 
HETATM   10  O1  UNK     1      20.095  -7.893  35.722  1.00  0.00    -0.274 OA
HETATM   11  C9  UNK     1      19.894  -9.918  36.991  1.00  0.00     0.038 A 
HETATM   12  C8  UNK     1      20.173  -6.508  35.602  1.00  0.00     0.304 A 
HETATM   13  O3  UNK     1      20.290  -5.966  34.509  1.00  0.00    -0.259 OA
HETATM   14  C11 UNK     1      19.763 -10.571  38.214  1.00  0.00     0.003 A 
HETATM   15  C10 UNK     1      19.701  -9.834  39.398  1.00  0.00     0.001 A 
ENDBRANCH   3   5
BRANCH   2  16
HETATM   16  C7  UNK     1      18.989  -2.306  35.828  1.00  0.00     0.036 A 
HETATM   17  C12 UNK     1      18.496  -1.523  36.858  1.00  0.00     0.050 A 
HETATM   18  C14 UNK     1      18.273  -0.164  36.634  1.00  0.00     0.030 A 
HETATM   19 Br1  UNK     1      17.594   0.853  38.089  1.00  0.00    -0.050 Br
HETATM   20  C16 UNK     1      18.547   0.390  35.383  1.00  0.00     0.028 A 
HETATM   21 Br2  UNK     1      18.275   2.228  34.985  1.00  0.00    -0.050 Br
HETATM   22  C15 UNK     1      19.043  -0.414  34.357  1.00  0.00     0.023 A 
HETATM   23  C13 UNK     1      19.266  -1.772  34.582  1.00  0.00     0.031 A 
ENDBRANCH   2  16
TORSDOF 2
ENDMDL
MODEL 9
REMARK VINA RESULT:      -8.0      3.865      8.368
REMARK  2 active torsions:
REMARK  status: ('A' for Active; 'I' for Inactive)
REMARK       I    between atoms: C5_11  and  N1_6 
REMARK    1  A    between atoms: C7_13  and  N1_6 
REMARK    2  A    between atoms: C2_8  and  C5_11 
ROOT
HETATM    1  O2  UNK     1      19.672   5.554  30.967  1.00  0.00    -0.267 OA
HETATM    2  N1  UNK     1      17.983   4.003  31.500  1.00  0.00    -0.323 N 
HETATM    3  C5  UNK     1      18.652   5.217  31.566  1.00  0.00     0.262 C 
HETATM    4  H3  UNK     1      17.133   3.890  32.048  1.00  0.00     0.169 HD
ENDROOT
BRANCH   3   5
HETATM    5  C2  UNK     1      18.001   6.159  32.484  1.00  0.00     0.108 A 
HETATM    6  C4  UNK     1      16.847   6.692  32.064  1.00  0.00     0.037 A 
HETATM    7  C1  UNK     1      16.126   7.636  32.903  1.00  0.00    -0.001 A 
HETATM    8  C3  UNK     1      16.656   7.973  34.145  1.00  0.00     0.089 A 
HETATM    9  C6  UNK     1      14.919   8.216  32.505  1.00  0.00     0.014 A 
HETATM   10  O1  UNK     1      17.870   7.409  34.582  1.00  0.00    -0.274 OA
HETATM   11  C9  UNK     1      16.015   8.871  34.996  1.00  0.00     0.038 A 
HETATM   12  C8  UNK     1      18.583   6.503  33.801  1.00  0.00     0.304 A 
HETATM   13  O3  UNK     1      19.640   6.018  34.189  1.00  0.00    -0.259 OA
HETATM   14  C11 UNK     1      14.813   9.445  34.591  1.00  0.00     0.003 A 
HETATM   15  C10 UNK     1      14.265   9.118  33.350  1.00  0.00     0.001 A 
ENDBRANCH   3   5
BRANCH   2  16
HETATM   16  C7  UNK     1      18.323   2.870  30.722  1.00  0.00     0.036 A 
HETATM   17  C12 UNK     1      19.011   1.824  31.313  1.00  0.00     0.050 A 
HETATM   18  C14 UNK     1      19.347   0.709  30.546  1.00  0.00     0.030 A 
HETATM   19 Br1  UNK     1      20.291  -0.690  31.420  1.00  0.00    -0.050 Br
HETATM   20  C16 UNK     1      18.990   0.657  29.199  1.00  0.00     0.028 A 
HETATM   21 Br2  UNK     1      19.405  -0.820  28.076  1.00  0.00    -0.050 Br
HETATM   22  C15 UNK     1      18.299   1.719  28.618  1.00  0.00     0.023 A 
HETATM   23  C13 UNK     1      17.962   2.834  29.386  1.00  0.00     0.031 A 
ENDBRANCH   2  16
TORSDOF 2
ENDMDL
MODEL 10
REMARK VINA RESULT:      -8.0      3.931      8.368
REMARK  2 active torsions:
REMARK  status: ('A' for Active; 'I' for Inactive)
REMARK       I    between atoms: C5_11  and  N1_6 
REMARK    1  A    between atoms: C7_13  and  N1_6 
REMARK    2  A    between atoms: C2_8  and  C5_11 
ROOT
HETATM    1  O2  UNK     1      19.313   5.606  33.037  1.00  0.00    -0.267 OA
HETATM    2  N1  UNK     1      17.491   4.372  32.199  1.00  0.00    -0.323 N 
HETATM    3  C5  UNK     1      18.156   5.511  32.635  1.00  0.00     0.262 C 
HETATM    4  H3  UNK     1      16.532   4.467  31.875  1.00  0.00     0.169 HD
ENDROOT
BRANCH   3   5
HETATM    5  C2  UNK     1      17.302   6.704  32.580  1.00  0.00     0.108 A 
HETATM    6  C4  UNK     1      16.833   7.150  33.751  1.00  0.00     0.037 A 
HETATM    7  C1  UNK     1      15.979   8.325  33.800  1.00  0.00    -0.001 A 
HETATM    8  C3  UNK     1      15.661   8.975  32.612  1.00  0.00     0.089 A 
HETATM    9  C6  UNK     1      15.467   8.825  35.000  1.00  0.00     0.014 A 
HETATM   10  O1  UNK     1      16.158   8.502  31.382  1.00  0.00    -0.274 OA
HETATM   11  C9  UNK     1      14.847  10.107  32.589  1.00  0.00     0.038 A 
HETATM   12  C8  UNK     1      16.977   7.379  31.303  1.00  0.00     0.304 A 
HETATM   13  O3  UNK     1      17.404   6.974  30.228  1.00  0.00    -0.259 OA
HETATM   14  C11 UNK     1      14.340  10.597  33.790  1.00  0.00     0.003 A 
HETATM   15  C10 UNK     1      14.649   9.959  34.993  1.00  0.00     0.001 A 
ENDBRANCH   3   5
BRANCH   2  16
HETATM   16  C7  UNK     1      18.002   3.054  32.115  1.00  0.00     0.036 A 
HETATM   17  C12 UNK     1      18.430   2.571  30.890  1.00  0.00     0.050 A 
HETATM   18  C14 UNK     1      18.932   1.272  30.807  1.00  0.00     0.030 A 
HETATM   19 Br1  UNK     1      19.502   0.671  29.097  1.00  0.00    -0.050 Br
HETATM   20  C16 UNK     1      18.997   0.476  31.951  1.00  0.00     0.028 A 
HETATM   21 Br2  UNK     1      19.665  -1.304  31.936  1.00  0.00    -0.050 Br
HETATM   22  C15 UNK     1      18.561   0.978  33.177  1.00  0.00     0.023 A 
HETATM   23  C13 UNK     1      18.059   2.277  33.259  1.00  0.00     0.031 A 
ENDBRANCH   2  16
TORSDOF 2
ENDMDL
