MODEL 1
REMARK VINA RESULT:      -9.4      0.000      0.000
REMARK  4 active torsions:
REMARK  status: ('A' for Active; 'I' for Inactive)
REMARK    1  A    between atoms: C16_21  and  O2_3 
REMARK    2  A    between atoms: C9_14  and  O2_3 
REMARK    3  A    between atoms: C3_8  and  C6_11 
REMARK    4  A    between atoms: C16_21  and  C17_22 
ROOT
HETATM    1  O1  UNK     1      19.215   2.861  30.413  1.00  0.00    -0.309 OA
HETATM    2  O3  UNK     1      17.678   3.097  34.178  1.00  0.00    -0.287 OA
HETATM    3  C1  UNK     1      18.328   4.232  32.211  1.00  0.00     0.051 A 
HETATM    4  C2  UNK     1      18.857   4.080  30.930  1.00  0.00     0.090 A 
HETATM    5  C3  UNK     1      19.047   1.733  31.201  1.00  0.00     0.090 A 
HETATM    6  C4  UNK     1      18.141   3.036  33.048  1.00  0.00     0.187 A 
HETATM    7  C5  UNK     1      17.981   5.498  32.686  1.00  0.00     0.055 A 
HETATM    8  C7  UNK     1      18.541   1.749  32.446  1.00  0.00     0.093 A 
HETATM    9  C8  UNK     1      19.043   5.197  30.115  1.00  0.00     0.041 A 
HETATM   10  C9  UNK     1      18.168   6.614  31.869  1.00  0.00     0.080 A 
HETATM   11  C10 UNK     1      18.698   6.464  30.587  1.00  0.00     0.040 A 
ENDROOT
BRANCH  10  12
HETATM   12  O2  UNK     1      17.831   7.854  32.323  1.00  0.00    -0.275 OA
BRANCH  12  13
HETATM   13  C16 UNK     1      16.567   8.290  31.918  1.00  0.00     0.305 C 
HETATM   14  O4  UNK     1      16.090   8.154  30.802  1.00  0.00    -0.258 OA
BRANCH  13  15
HETATM   15  C17 UNK     1      15.844   8.948  33.037  1.00  0.00     0.080 A 
HETATM   16  S1  UNK     1      16.727   9.992  34.021  1.00  0.00    -0.096 SA
HETATM   17  C20 UNK     1      15.324  10.298  34.956  1.00  0.00     0.050 A 
HETATM   18  C19 UNK     1      14.232   9.599  34.494  1.00  0.00     0.009 A 
HETATM   19  C18 UNK     1      14.549   8.802  33.357  1.00  0.00     0.025 A 
ENDBRANCH  13  15
ENDBRANCH  12  13
ENDBRANCH  10  12
BRANCH   5  20
HETATM   20  C6  UNK     1      19.456   0.475  30.545  1.00  0.00    -0.002 A 
HETATM   21  C11 UNK     1      19.568   0.413  29.154  1.00  0.00     0.014 A 
HETATM   22  C13 UNK     1      19.957  -0.775  28.534  1.00  0.00     0.001 A 
HETATM   23  C15 UNK     1      20.234  -1.903  29.303  1.00  0.00     0.000 A 
HETATM   24  C14 UNK     1      20.123  -1.846  30.692  1.00  0.00     0.001 A 
HETATM   25  C12 UNK     1      19.735  -0.658  31.312  1.00  0.00     0.014 A 
ENDBRANCH   5  20
TORSDOF 4
ENDMDL
MODEL 2
REMARK VINA RESULT:      -8.7      2.638      9.263
REMARK  4 active torsions:
REMARK  status: ('A' for Active; 'I' for Inactive)
REMARK    1  A    between atoms: C16_21  and  O2_3 
REMARK    2  A    between atoms: C9_14  and  O2_3 
REMARK    3  A    between atoms: C3_8  and  C6_11 
REMARK    4  A    between atoms: C16_21  and  C17_22 
ROOT
HETATM    1  O1  UNK     1      17.816   9.069  33.867  1.00  0.00    -0.309 OA
HETATM    2  O3  UNK     1      15.117   7.491  31.255  1.00  0.00    -0.287 OA
HETATM    3  C1  UNK     1      17.254   7.344  32.251  1.00  0.00     0.051 A 
HETATM    4  C2  UNK     1      18.130   7.935  33.162  1.00  0.00     0.090 A 
HETATM    5  C3  UNK     1      16.577   9.654  33.660  1.00  0.00     0.090 A 
HETATM    6  C4  UNK     1      15.935   7.958  32.035  1.00  0.00     0.187 A 
HETATM    7  C5  UNK     1      17.627   6.189  31.561  1.00  0.00     0.055 A 
HETATM    8  C7  UNK     1      15.647   9.177  32.818  1.00  0.00     0.093 A 
HETATM    9  C8  UNK     1      19.386   7.372  33.387  1.00  0.00     0.041 A 
HETATM   10  C9  UNK     1      18.884   5.627  31.788  1.00  0.00     0.080 A 
HETATM   11  C10 UNK     1      19.762   6.217  32.698  1.00  0.00     0.040 A 
ENDROOT
BRANCH  10  12
HETATM   12  O2  UNK     1      19.256   4.500  31.120  1.00  0.00    -0.275 OA
BRANCH  12  13
HETATM   13  C16 UNK     1      18.501   3.368  31.439  1.00  0.00     0.305 C 
HETATM   14  O4  UNK     1      17.869   3.202  32.471  1.00  0.00    -0.258 OA
BRANCH  13  15
HETATM   15  C17 UNK     1      18.548   2.367  30.342  1.00  0.00     0.080 A 
HETATM   16  S1  UNK     1      19.493   0.994  30.588  1.00  0.00    -0.096 SA
HETATM   17  C20 UNK     1      19.057   0.415  29.036  1.00  0.00     0.050 A 
HETATM   18  C19 UNK     1      18.210   1.280  28.380  1.00  0.00     0.009 A 
HETATM   19  C18 UNK     1      17.914   2.434  29.161  1.00  0.00     0.025 A 
ENDBRANCH  13  15
ENDBRANCH  12  13
ENDBRANCH  10  12
BRANCH   5  20
HETATM   20  C6  UNK     1      16.341  10.863  34.474  1.00  0.00    -0.002 A 
HETATM   21  C11 UNK     1      15.145  11.010  35.183  1.00  0.00     0.014 A 
HETATM   22  C13 UNK     1      14.922  12.152  35.953  1.00  0.00     0.001 A 
HETATM   23  C15 UNK     1      15.893  13.150  36.017  1.00  0.00     0.000 A 
HETATM   24  C14 UNK     1      17.088  13.007  35.311  1.00  0.00     0.001 A 
HETATM   25  C12 UNK     1      17.311  11.865  34.541  1.00  0.00     0.014 A 
ENDBRANCH   5  20
TORSDOF 4
ENDMDL
MODEL 3
REMARK VINA RESULT:      -8.6      6.048     10.295
REMARK  4 active torsions:
REMARK  status: ('A' for Active; 'I' for Inactive)
REMARK    1  A    between atoms: C16_21  and  O2_3 
REMARK    2  A    between atoms: C9_14  and  O2_3 
REMARK    3  A    between atoms: C3_8  and  C6_11 
REMARK    4  A    between atoms: C16_21  and  C17_22 
ROOT
HETATM    1  O1  UNK     1      18.841  -0.194  33.243  1.00  0.00    -0.309 OA
HETATM    2  O3  UNK     1      21.349  -3.336  32.583  1.00  0.00    -0.287 OA
HETATM    3  C1  UNK     1      19.981  -2.158  34.106  1.00  0.00     0.051 A 
HETATM    4  C2  UNK     1      19.130  -1.064  34.263  1.00  0.00     0.090 A 
HETATM    5  C3  UNK     1      19.426  -0.410  32.004  1.00  0.00     0.090 A 
HETATM    6  C4  UNK     1      20.597  -2.395  32.791  1.00  0.00     0.187 A 
HETATM    7  C5  UNK     1      20.239  -3.012  35.181  1.00  0.00     0.055 A 
HETATM    8  C7  UNK     1      20.255  -1.430  31.727  1.00  0.00     0.093 A 
HETATM    9  C8  UNK     1      18.532  -0.818  35.499  1.00  0.00     0.041 A 
HETATM   10  C9  UNK     1      19.639  -2.763  36.416  1.00  0.00     0.080 A 
HETATM   11  C10 UNK     1      18.787  -1.669  36.575  1.00  0.00     0.040 A 
ENDROOT
BRANCH  10  12
HETATM   12  O2  UNK     1      19.884  -3.591  37.470  1.00  0.00    -0.275 OA
BRANCH  12  13
HETATM   13  C16 UNK     1      20.487  -4.802  37.121  1.00  0.00     0.305 C 
HETATM   14  O4  UNK     1      21.670  -5.074  37.263  1.00  0.00    -0.258 OA
BRANCH  13  15
HETATM   15  C17 UNK     1      19.496  -5.750  36.550  1.00  0.00     0.080 A 
HETATM   16  S1  UNK     1      20.021  -6.767  35.314  1.00  0.00    -0.096 SA
HETATM   17  C20 UNK     1      18.459  -7.465  35.223  1.00  0.00     0.050 A 
HETATM   18  C19 UNK     1      17.589  -6.904  36.131  1.00  0.00     0.009 A 
HETATM   19  C18 UNK     1      18.212  -5.888  36.912  1.00  0.00     0.025 A 
ENDBRANCH  13  15
ENDBRANCH  12  13
ENDBRANCH  10  12
BRANCH   5  20
HETATM   20  C6  UNK     1      19.042   0.580  30.979  1.00  0.00    -0.002 A 
HETATM   21  C11 UNK     1      19.003   0.215  29.630  1.00  0.00     0.014 A 
HETATM   22  C13 UNK     1      18.639   1.150  28.661  1.00  0.00     0.001 A 
HETATM   23  C15 UNK     1      18.313   2.452  29.036  1.00  0.00     0.000 A 
HETATM   24  C14 UNK     1      18.350   2.820  30.381  1.00  0.00     0.001 A 
HETATM   25  C12 UNK     1      18.714   1.886  31.350  1.00  0.00     0.014 A 
ENDBRANCH   5  20
TORSDOF 4
ENDMDL
MODEL 4
REMARK VINA RESULT:      -8.5      2.455      8.696
REMARK  4 active torsions:
REMARK  status: ('A' for Active; 'I' for Inactive)
REMARK    1  A    between atoms: C16_21  and  O2_3 
REMARK    2  A    between atoms: C9_14  and  O2_3 
REMARK    3  A    between atoms: C3_8  and  C6_11 
REMARK    4  A    between atoms: C16_21  and  C17_22 
ROOT
HETATM    1  O1  UNK     1      17.608   7.625  32.120  1.00  0.00    -0.309 OA
HETATM    2  O3  UNK     1      18.038   4.302  34.437  1.00  0.00    -0.287 OA
HETATM    3  C1  UNK     1      18.233   5.284  32.297  1.00  0.00     0.051 A 
HETATM    4  C2  UNK     1      18.064   6.458  31.563  1.00  0.00     0.090 A 
HETATM    5  C3  UNK     1      17.297   7.635  33.471  1.00  0.00     0.090 A 
HETATM    6  C4  UNK     1      17.910   5.293  33.733  1.00  0.00     0.187 A 
HETATM    7  C5  UNK     1      18.701   4.124  31.677  1.00  0.00     0.055 A 
HETATM    8  C7  UNK     1      17.423   6.573  34.284  1.00  0.00     0.093 A 
HETATM    9  C8  UNK     1      18.364   6.476  30.200  1.00  0.00     0.041 A 
HETATM   10  C9  UNK     1      19.000   4.146  30.314  1.00  0.00     0.080 A 
HETATM   11  C10 UNK     1      18.832   5.319  29.577  1.00  0.00     0.040 A 
ENDROOT
BRANCH  10  12
HETATM   12  O2  UNK     1      19.459   3.019  29.700  1.00  0.00    -0.275 OA
BRANCH  12  13
HETATM   13  C16 UNK     1      18.571   1.941  29.741  1.00  0.00     0.305 C 
HETATM   14  O4  UNK     1      17.354   2.018  29.662  1.00  0.00    -0.258 OA
BRANCH  13  15
HETATM   15  C17 UNK     1      19.297   0.653  29.883  1.00  0.00     0.080 A 
HETATM   16  S1  UNK     1      19.417  -0.000  31.431  1.00  0.00    -0.096 SA
HETATM   17  C20 UNK     1      20.297  -1.330  30.803  1.00  0.00     0.050 A 
HETATM   18  C19 UNK     1      20.473  -1.235  29.441  1.00  0.00     0.009 A 
HETATM   19  C18 UNK     1      19.878  -0.057  28.904  1.00  0.00     0.025 A 
ENDBRANCH  13  15
ENDBRANCH  12  13
ENDBRANCH  10  12
BRANCH   5  20
HETATM   20  C6  UNK     1      16.823   8.942  33.968  1.00  0.00    -0.002 A 
HETATM   21  C11 UNK     1      15.558   9.055  34.550  1.00  0.00     0.014 A 
HETATM   22  C13 UNK     1      15.110  10.289  35.021  1.00  0.00     0.001 A 
HETATM   23  C15 UNK     1      15.926  11.414  34.912  1.00  0.00     0.000 A 
HETATM   24  C14 UNK     1      17.190  11.306  34.331  1.00  0.00     0.001 A 
HETATM   25  C12 UNK     1      17.637  10.072  33.860  1.00  0.00     0.014 A 
ENDBRANCH   5  20
TORSDOF 4
ENDMDL
MODEL 5
REMARK VINA RESULT:      -8.5      3.317      8.487
REMARK  4 active torsions:
REMARK  status: ('A' for Active; 'I' for Inactive)
REMARK    1  A    between atoms: C16_21  and  O2_3 
REMARK    2  A    between atoms: C9_14  and  O2_3 
REMARK    3  A    between atoms: C3_8  and  C6_11 
REMARK    4  A    between atoms: C16_21  and  C17_22 
ROOT
HETATM    1  O1  UNK     1      18.874   6.263  31.851  1.00  0.00    -0.309 OA
HETATM    2  O3  UNK     1      18.077   3.264  34.491  1.00  0.00    -0.287 OA
HETATM    3  C1  UNK     1      18.414   3.910  32.244  1.00  0.00     0.051 A 
HETATM    4  C2  UNK     1      18.692   4.982  31.396  1.00  0.00     0.090 A 
HETATM    5  C3  UNK     1      18.772   6.501  33.213  1.00  0.00     0.090 A 
HETATM    6  C4  UNK     1      18.313   4.157  33.691  1.00  0.00     0.187 A 
HETATM    7  C5  UNK     1      18.238   2.625  31.725  1.00  0.00     0.055 A 
HETATM    8  C7  UNK     1      18.517   5.552  34.129  1.00  0.00     0.093 A 
HETATM    9  C8  UNK     1      18.794   4.774  30.020  1.00  0.00     0.041 A 
HETATM   10  C9  UNK     1      18.342   2.420  30.348  1.00  0.00     0.080 A 
HETATM   11  C10 UNK     1      18.619   3.492  29.498  1.00  0.00     0.040 A 
ENDROOT
BRANCH  10  12
HETATM   12  O2  UNK     1      18.173   1.171  29.832  1.00  0.00    -0.275 OA
BRANCH  12  13
HETATM   13  C16 UNK     1      19.365   0.517  29.509  1.00  0.00     0.305 C 
HETATM   14  O4  UNK     1      20.082   0.775  28.554  1.00  0.00    -0.258 OA
BRANCH  13  15
HETATM   15  C17 UNK     1      19.674  -0.552  30.493  1.00  0.00     0.080 A 
HETATM   16  S1  UNK     1      20.527  -1.893  29.937  1.00  0.00    -0.096 SA
HETATM   17  C20 UNK     1      20.481  -2.576  31.508  1.00  0.00     0.050 A 
HETATM   18  C19 UNK     1      19.820  -1.766  32.404  1.00  0.00     0.009 A 
HETATM   19  C18 UNK     1      19.344  -0.569  31.794  1.00  0.00     0.025 A 
ENDBRANCH  13  15
ENDBRANCH  12  13
ENDBRANCH  10  12
BRANCH   5  20
HETATM   20  C6  UNK     1      18.992   7.910  33.594  1.00  0.00    -0.002 A 
HETATM   21  C11 UNK     1      20.226   8.312  34.113  1.00  0.00     0.014 A 
HETATM   22  C13 UNK     1      20.435   9.644  34.473  1.00  0.00     0.001 A 
HETATM   23  C15 UNK     1      19.412  10.577  34.314  1.00  0.00     0.000 A 
HETATM   24  C14 UNK     1      18.179  10.180  33.795  1.00  0.00     0.001 A 
HETATM   25  C12 UNK     1      17.970   8.848  33.436  1.00  0.00     0.014 A 
ENDBRANCH   5  20
TORSDOF 4
ENDMDL
MODEL 6
REMARK VINA RESULT:      -8.4      6.519     10.658
REMARK  4 active torsions:
REMARK  status: ('A' for Active; 'I' for Inactive)
REMARK    1  A    between atoms: C16_21  and  O2_3 
REMARK    2  A    between atoms: C9_14  and  O2_3 
REMARK    3  A    between atoms: C3_8  and  C6_11 
REMARK    4  A    between atoms: C16_21  and  C17_22 
ROOT
HETATM    1  O1  UNK     1      18.864  -0.232  33.228  1.00  0.00    -0.309 OA
HETATM    2  O3  UNK     1      21.412  -3.356  32.638  1.00  0.00    -0.287 OA
HETATM    3  C1  UNK     1      20.024  -2.165  34.134  1.00  0.00     0.051 A 
HETATM    4  C2  UNK     1      19.159  -1.079  34.266  1.00  0.00     0.090 A 
HETATM    5  C3  UNK     1      19.456  -0.465  31.997  1.00  0.00     0.090 A 
HETATM    6  C4  UNK     1      20.648  -2.420  32.826  1.00  0.00     0.187 A 
HETATM    7  C5  UNK     1      20.288  -2.995  35.226  1.00  0.00     0.055 A 
HETATM    8  C7  UNK     1      20.298  -1.480  31.743  1.00  0.00     0.093 A 
HETATM    9  C8  UNK     1      18.553  -0.816  35.495  1.00  0.00     0.041 A 
HETATM   10  C9  UNK     1      19.680  -2.730  36.454  1.00  0.00     0.080 A 
HETATM   11  C10 UNK     1      18.815  -1.643  36.588  1.00  0.00     0.040 A 
ENDROOT
BRANCH  10  12
HETATM   12  O2  UNK     1      19.931  -3.534  37.524  1.00  0.00    -0.275 OA
BRANCH  12  13
HETATM   13  C16 UNK     1      19.741  -4.896  37.276  1.00  0.00     0.305 C 
HETATM   14  O4  UNK     1      18.916  -5.372  36.512  1.00  0.00    -0.258 OA
BRANCH  13  15
HETATM   15  C17 UNK     1      20.693  -5.722  38.063  1.00  0.00     0.080 A 
HETATM   16  S1  UNK     1      20.063  -7.037  38.906  1.00  0.00    -0.096 SA
HETATM   17  C20 UNK     1      21.629  -7.419  39.485  1.00  0.00     0.050 A 
HETATM   18  C19 UNK     1      22.580  -6.537  39.022  1.00  0.00     0.009 A 
HETATM   19  C18 UNK     1      22.016  -5.534  38.181  1.00  0.00     0.025 A 
ENDBRANCH  13  15
ENDBRANCH  12  13
ENDBRANCH  10  12
BRANCH   5  20
HETATM   20  C6  UNK     1      19.064   0.500  30.950  1.00  0.00    -0.002 A 
HETATM   21  C11 UNK     1      18.660   1.790  31.302  1.00  0.00     0.014 A 
HETATM   22  C13 UNK     1      18.291   2.703  30.313  1.00  0.00     0.001 A 
HETATM   23  C15 UNK     1      18.325   2.329  28.971  1.00  0.00     0.000 A 
HETATM   24  C14 UNK     1      18.729   1.042  28.616  1.00  0.00     0.001 A 
HETATM   25  C12 UNK     1      19.098   0.129  29.604  1.00  0.00     0.014 A 
ENDBRANCH   5  20
TORSDOF 4
ENDMDL
MODEL 7
REMARK VINA RESULT:      -8.3      6.307     11.052
REMARK  4 active torsions:
REMARK  status: ('A' for Active; 'I' for Inactive)
REMARK    1  A    between atoms: C16_21  and  O2_3 
REMARK    2  A    between atoms: C9_14  and  O2_3 
REMARK    3  A    between atoms: C3_8  and  C6_11 
REMARK    4  A    between atoms: C16_21  and  C17_22 
ROOT
HETATM    1  O1  UNK     1      19.076  -0.037  34.119  1.00  0.00    -0.309 OA
HETATM    2  O3  UNK     1      17.103  -0.175  37.680  1.00  0.00    -0.287 OA
HETATM    3  C1  UNK     1      18.531  -1.263  36.144  1.00  0.00     0.051 A 
HETATM    4  C2  UNK     1      19.181  -1.149  34.915  1.00  0.00     0.090 A 
HETATM    5  C3  UNK     1      18.286   1.015  34.553  1.00  0.00     0.090 A 
HETATM    6  C4  UNK     1      17.697  -0.145  36.612  1.00  0.00     0.187 A 
HETATM    7  C5  UNK     1      18.673  -2.419  36.914  1.00  0.00     0.055 A 
HETATM    8  C7  UNK     1      17.618   1.028  35.718  1.00  0.00     0.093 A 
HETATM    9  C8  UNK     1      19.979  -2.194  34.450  1.00  0.00     0.041 A 
HETATM   10  C9  UNK     1      19.473  -3.463  36.446  1.00  0.00     0.080 A 
HETATM   11  C10 UNK     1      20.123  -3.351  35.216  1.00  0.00     0.040 A 
ENDROOT
BRANCH  10  12
HETATM   12  O2  UNK     1      19.618  -4.594  37.190  1.00  0.00    -0.275 OA
BRANCH  12  13
HETATM   13  C16 UNK     1      18.937  -5.705  36.687  1.00  0.00     0.305 C 
HETATM   14  O4  UNK     1      17.723  -5.839  36.650  1.00  0.00    -0.258 OA
BRANCH  13  15
HETATM   15  C17 UNK     1      19.884  -6.730  36.178  1.00  0.00     0.080 A 
HETATM   16  S1  UNK     1      20.902  -7.468  37.299  1.00  0.00    -0.096 SA
HETATM   17  C20 UNK     1      21.597  -8.412  36.049  1.00  0.00     0.050 A 
HETATM   18  C19 UNK     1      21.037  -8.136  34.822  1.00  0.00     0.009 A 
HETATM   19  C18 UNK     1      20.023  -7.139  34.907  1.00  0.00     0.025 A 
ENDBRANCH  13  15
ENDBRANCH  12  13
ENDBRANCH  10  12
BRANCH   5  20
HETATM   20  C6  UNK     1      18.250   2.162  33.624  1.00  0.00    -0.002 A 
HETATM   21  C11 UNK     1      18.205   3.467  34.121  1.00  0.00     0.014 A 
HETATM   22  C13 UNK     1      18.172   4.551  33.243  1.00  0.00     0.001 A 
HETATM   23  C15 UNK     1      18.184   4.333  31.867  1.00  0.00     0.000 A 
HETATM   24  C14 UNK     1      18.229   3.032  31.366  1.00  0.00     0.001 A 
HETATM   25  C12 UNK     1      18.262   1.948  32.244  1.00  0.00     0.014 A 
ENDBRANCH   5  20
TORSDOF 4
ENDMDL
MODEL 8
REMARK VINA RESULT:      -8.3      8.955     12.265
REMARK  4 active torsions:
REMARK  status: ('A' for Active; 'I' for Inactive)
REMARK    1  A    between atoms: C16_21  and  O2_3 
REMARK    2  A    between atoms: C9_14  and  O2_3 
REMARK    3  A    between atoms: C3_8  and  C6_11 
REMARK    4  A    between atoms: C16_21  and  C17_22 
ROOT
HETATM    1  O1  UNK     1      22.454  -8.077  37.021  1.00  0.00    -0.309 OA
HETATM    2  O3  UNK     1      19.681  -7.643  34.068  1.00  0.00    -0.287 OA
HETATM    3  C1  UNK     1      20.642  -6.784  36.049  1.00  0.00     0.051 A 
HETATM    4  C2  UNK     1      21.614  -6.993  37.027  1.00  0.00     0.090 A 
HETATM    5  C3  UNK     1      22.327  -9.007  36.001  1.00  0.00     0.090 A 
HETATM    6  C4  UNK     1      20.508  -7.765  34.960  1.00  0.00     0.187 A 
HETATM    7  C5  UNK     1      19.813  -5.662  36.104  1.00  0.00     0.055 A 
HETATM    8  C7  UNK     1      21.436  -8.913  35.000  1.00  0.00     0.093 A 
HETATM    9  C8  UNK     1      21.762  -6.077  38.068  1.00  0.00     0.041 A 
HETATM   10  C9  UNK     1      19.964  -4.747  37.148  1.00  0.00     0.080 A 
HETATM   11  C10 UNK     1      20.935  -4.954  38.127  1.00  0.00     0.040 A 
ENDROOT
BRANCH  10  12
HETATM   12  O2  UNK     1      19.161  -3.649  37.210  1.00  0.00    -0.275 OA
BRANCH  12  13
HETATM   13  C16 UNK     1      19.633  -2.550  36.487  1.00  0.00     0.305 C 
HETATM   14  O4  UNK     1      20.701  -2.492  35.898  1.00  0.00    -0.258 OA
BRANCH  13  15
HETATM   15  C17 UNK     1      18.654  -1.433  36.509  1.00  0.00     0.080 A 
HETATM   16  S1  UNK     1      18.319  -0.668  35.046  1.00  0.00    -0.096 SA
HETATM   17  C20 UNK     1      17.223   0.380  35.843  1.00  0.00     0.050 A 
HETATM   18  C19 UNK     1      17.147   0.118  37.193  1.00  0.00     0.009 A 
HETATM   19  C18 UNK     1      17.997  -0.957  37.579  1.00  0.00     0.025 A 
ENDBRANCH  13  15
ENDBRANCH  12  13
ENDBRANCH  10  12
BRANCH   5  20
HETATM   20  C6  UNK     1      23.284 -10.128  36.087  1.00  0.00    -0.002 A 
HETATM   21  C11 UNK     1      24.577  -9.911  36.570  1.00  0.00     0.014 A 
HETATM   22  C13 UNK     1      25.481 -10.970  36.653  1.00  0.00     0.001 A 
HETATM   23  C15 UNK     1      25.095 -12.248  36.254  1.00  0.00     0.000 A 
HETATM   24  C14 UNK     1      23.805 -12.469  35.771  1.00  0.00     0.001 A 
HETATM   25  C12 UNK     1      22.901 -11.410  35.688  1.00  0.00     0.014 A 
ENDBRANCH   5  20
TORSDOF 4
ENDMDL
MODEL 9
REMARK VINA RESULT:      -8.2      1.093      2.262
REMARK  4 active torsions:
REMARK  status: ('A' for Active; 'I' for Inactive)
REMARK    1  A    between atoms: C16_21  and  O2_3 
REMARK    2  A    between atoms: C9_14  and  O2_3 
REMARK    3  A    between atoms: C3_8  and  C6_11 
REMARK    4  A    between atoms: C16_21  and  C17_22 
ROOT
HETATM    1  O1  UNK     1      18.637   2.902  32.405  1.00  0.00    -0.309 OA
HETATM    2  O3  UNK     1      18.775   4.909  28.862  1.00  0.00    -0.287 OA
HETATM    3  C1  UNK     1      18.416   4.998  31.196  1.00  0.00     0.051 A 
HETATM    4  C2  UNK     1      18.387   4.250  32.373  1.00  0.00     0.090 A 
HETATM    5  C3  UNK     1      18.924   2.255  31.213  1.00  0.00     0.090 A 
HETATM    6  C4  UNK     1      18.729   4.316  29.930  1.00  0.00     0.187 A 
HETATM    7  C5  UNK     1      18.154   6.369  31.223  1.00  0.00     0.055 A 
HETATM    8  C7  UNK     1      18.989   2.865  30.018  1.00  0.00     0.093 A 
HETATM    9  C8  UNK     1      18.096   4.873  33.587  1.00  0.00     0.041 A 
HETATM   10  C9  UNK     1      17.863   6.990  32.439  1.00  0.00     0.080 A 
HETATM   11  C10 UNK     1      17.833   6.244  33.618  1.00  0.00     0.040 A 
ENDROOT
BRANCH  10  12
HETATM   12  O2  UNK     1      17.607   8.327  32.475  1.00  0.00    -0.275 OA
BRANCH  12  13
HETATM   13  C16 UNK     1      16.310   8.675  32.091  1.00  0.00     0.305 C 
HETATM   14  O4  UNK     1      15.787   8.402  31.021  1.00  0.00    -0.258 OA
BRANCH  13  15
HETATM   15  C17 UNK     1      15.615   9.425  33.168  1.00  0.00     0.080 A 
HETATM   16  S1  UNK     1      16.566  10.356  34.201  1.00  0.00    -0.096 SA
HETATM   17  C20 UNK     1      15.164  10.842  35.057  1.00  0.00     0.050 A 
HETATM   18  C19 UNK     1      14.020  10.284  34.533  1.00  0.00     0.009 A 
HETATM   19  C18 UNK     1      14.296   9.445  33.415  1.00  0.00     0.025 A 
ENDBRANCH  13  15
ENDBRANCH  12  13
ENDBRANCH  10  12
BRANCH   5  20
HETATM   20  C6  UNK     1      19.183   0.809  31.362  1.00  0.00    -0.002 A 
HETATM   21  C11 UNK     1      18.727   0.128  32.494  1.00  0.00     0.014 A 
HETATM   22  C13 UNK     1      18.970  -1.239  32.635  1.00  0.00     0.001 A 
HETATM   23  C15 UNK     1      19.668  -1.928  31.645  1.00  0.00     0.000 A 
HETATM   24  C14 UNK     1      20.125  -1.252  30.514  1.00  0.00     0.001 A 
HETATM   25  C12 UNK     1      19.882   0.115  30.373  1.00  0.00     0.014 A 
ENDBRANCH   5  20
TORSDOF 4
ENDMDL
MODEL 10
REMARK VINA RESULT:      -8.2      1.672      2.626
REMARK  4 active torsions:
REMARK  status: ('A' for Active; 'I' for Inactive)
REMARK    1  A    between atoms: C16_21  and  O2_3 
REMARK    2  A    between atoms: C9_14  and  O2_3 
REMARK    3  A    between atoms: C3_8  and  C6_11 
REMARK    4  A    between atoms: C16_21  and  C17_22 
ROOT
HETATM    1  O1  UNK     1      18.822   2.157  32.143  1.00  0.00    -0.309 OA
HETATM    2  O3  UNK     1      18.637   4.747  29.004  1.00  0.00    -0.287 OA
HETATM    3  C1  UNK     1      18.383   4.403  31.327  1.00  0.00     0.051 A 
HETATM    4  C2  UNK     1      18.468   3.464  32.356  1.00  0.00     0.090 A 
HETATM    5  C3  UNK     1      19.103   1.751  30.847  1.00  0.00     0.090 A 
HETATM    6  C4  UNK     1      18.688   3.977  29.952  1.00  0.00     0.187 A 
HETATM    7  C5  UNK     1      18.017   5.722  31.603  1.00  0.00     0.055 A 
HETATM    8  C7  UNK     1      19.063   2.560  29.776  1.00  0.00     0.093 A 
HETATM    9  C8  UNK     1      18.186   3.843  33.669  1.00  0.00     0.041 A 
HETATM   10  C9  UNK     1      17.736   6.097  32.918  1.00  0.00     0.080 A 
HETATM   11  C10 UNK     1      17.820   5.160  33.948  1.00  0.00     0.040 A 
ENDROOT
BRANCH  10  12
HETATM   12  O2  UNK     1      17.380   7.382  33.196  1.00  0.00    -0.275 OA
BRANCH  12  13
HETATM   13  C16 UNK     1      18.442   8.200  33.590  1.00  0.00     0.305 C 
HETATM   14  O4  UNK     1      19.604   7.846  33.719  1.00  0.00    -0.258 OA
BRANCH  13  15
HETATM   15  C17 UNK     1      17.984   9.593  33.832  1.00  0.00     0.080 A 
HETATM   16  S1  UNK     1      16.323   9.855  33.932  1.00  0.00    -0.096 SA
HETATM   17  C20 UNK     1      16.601  11.525  34.193  1.00  0.00     0.050 A 
HETATM   18  C19 UNK     1      17.944  11.831  34.195  1.00  0.00     0.009 A 
HETATM   19  C18 UNK     1      18.756  10.681  33.980  1.00  0.00     0.025 A 
ENDBRANCH  13  15
ENDBRANCH  12  13
ENDBRANCH  10  12
BRANCH   5  20
HETATM   20  C6  UNK     1      19.480   0.328  30.732  1.00  0.00    -0.002 A 
HETATM   21  C11 UNK     1      20.062  -0.152  29.556  1.00  0.00     0.014 A 
HETATM   22  C13 UNK     1      20.419  -1.496  29.448  1.00  0.00     0.001 A 
HETATM   23  C15 UNK     1      20.195  -2.364  30.514  1.00  0.00     0.000 A 
HETATM   24  C14 UNK     1      19.615  -1.890  31.691  1.00  0.00     0.001 A 
HETATM   25  C12 UNK     1      19.258  -0.546  31.799  1.00  0.00     0.014 A 
ENDBRANCH   5  20
TORSDOF 4
ENDMDL
