MODEL 1
REMARK VINA RESULT:     -10.0      0.000      0.000
REMARK  3 active torsions:
REMARK  status: ('A' for Active; 'I' for Inactive)
REMARK       I    between atoms: C18_23  and  N1_4 
REMARK    1  A    between atoms: N1_4  and  N2_5 
REMARK    2  A    between atoms: C14_19  and  C7_12 
REMARK    3  A    between atoms: C11_16  and  C18_23 
ROOT
HETATM    1  N2  UNK     1      18.910   4.669  30.705  1.00  0.00    -0.183 NA
HETATM    2  C14 UNK     1      19.000   4.982  31.957  1.00  0.00     0.156 C 
ENDROOT
BRANCH   2   3
HETATM    3  C7  UNK     1      18.535   6.265  32.481  1.00  0.00     0.056 A 
HETATM    4  C5  UNK     1      17.113   6.671  32.510  1.00  0.00     0.198 A 
HETATM    5  C1  UNK     1      16.833   8.004  33.075  1.00  0.00     0.049 A 
HETATM    6  O2  UNK     1      16.220   5.948  32.089  1.00  0.00    -0.286 OA
HETATM    7  C2  UNK     1      17.896   8.781  33.539  1.00  0.00     0.089 A 
HETATM    8  C4  UNK     1      15.524   8.487  33.148  1.00  0.00     0.025 A 
HETATM    9  O1  UNK     1      19.202   8.359  33.494  1.00  0.00    -0.321 OA
HETATM   10  C6  UNK     1      17.653  10.045  34.078  1.00  0.00     0.039 A 
HETATM   11  C9  UNK     1      19.449   7.114  32.962  1.00  0.00     0.159 A 
HETATM   12  C8  UNK     1      16.348  10.530  34.151  1.00  0.00     0.009 A 
HETATM   13  C3  UNK     1      15.285   9.752  33.687  1.00  0.00    -0.061 A 
HETATM   14  C10 UNK     1      13.891  10.275  33.767  1.00  0.00     0.048 C 
ENDBRANCH   2   3
BRANCH   1  15
HETATM   15  N1  UNK     1      19.392   3.439  30.407  1.00  0.00    -0.243 N 
HETATM   16  C18 UNK     1      18.517   2.369  30.403  1.00  0.00     0.271 C 
HETATM   17  O3  UNK     1      17.316   2.445  30.651  1.00  0.00    -0.266 OA
HETATM   18  H16 UNK     1      20.393   3.355  30.255  1.00  0.00     0.192 HD
BRANCH  16  19
HETATM   19  C11 UNK     1      19.114   1.045  30.089  1.00  0.00     0.034 A 
HETATM   20  C13 UNK     1      19.527   0.238  31.128  1.00  0.00     0.024 A 
HETATM   21  C12 UNK     1      20.087  -1.005  30.833  1.00  0.00    -0.061 A 
HETATM   22  C16 UNK     1      20.222  -1.412  29.506  1.00  0.00     0.007 A 
HETATM   23  C19 UNK     1      20.542  -1.899  31.937  1.00  0.00     0.048 C 
HETATM   24  C17 UNK     1      19.797  -0.577  28.474  1.00  0.00     0.002 A 
HETATM   25  C15 UNK     1      19.236   0.666  28.769  1.00  0.00     0.017 A 
ENDBRANCH  16  19
ENDBRANCH   1  15
TORSDOF 3
ENDMDL
MODEL 2
REMARK VINA RESULT:      -9.9      0.986      2.064
REMARK  3 active torsions:
REMARK  status: ('A' for Active; 'I' for Inactive)
REMARK       I    between atoms: C18_23  and  N1_4 
REMARK    1  A    between atoms: N1_4  and  N2_5 
REMARK    2  A    between atoms: C14_19  and  C7_12 
REMARK    3  A    between atoms: C11_16  and  C18_23 
ROOT
HETATM    1  N2  UNK     1      17.739   3.625  32.092  1.00  0.00    -0.183 NA
HETATM    2  C14 UNK     1      18.442   4.705  32.197  1.00  0.00     0.156 C 
ENDROOT
BRANCH   2   3
HETATM    3  C7  UNK     1      17.850   5.996  32.546  1.00  0.00     0.056 A 
HETATM    4  C5  UNK     1      18.640   7.163  32.998  1.00  0.00     0.198 A 
HETATM    5  C1  UNK     1      17.871   8.382  33.308  1.00  0.00     0.049 A 
HETATM    6  O2  UNK     1      19.858   7.121  33.111  1.00  0.00    -0.286 OA
HETATM    7  C2  UNK     1      16.482   8.365  33.159  1.00  0.00     0.089 A 
HETATM    8  C4  UNK     1      18.517   9.540  33.746  1.00  0.00     0.025 A 
HETATM    9  O1  UNK     1      15.794   7.256  32.733  1.00  0.00    -0.321 OA
HETATM   10  C6  UNK     1      15.736   9.508  33.447  1.00  0.00     0.039 A 
HETATM   11  C9  UNK     1      16.523   6.124  32.449  1.00  0.00     0.159 A 
HETATM   12  C8  UNK     1      16.379  10.666  33.884  1.00  0.00     0.009 A 
HETATM   13  C3  UNK     1      17.768  10.681  34.033  1.00  0.00    -0.061 A 
HETATM   14  C10 UNK     1      18.449  11.923  34.501  1.00  0.00     0.048 C 
ENDBRANCH   2   3
BRANCH   1  15
HETATM   15  N1  UNK     1      18.460   2.527  31.760  1.00  0.00    -0.243 N 
HETATM   16  C18 UNK     1      18.267   1.960  30.514  1.00  0.00     0.271 C 
HETATM   17  O3  UNK     1      17.481   2.379  29.668  1.00  0.00    -0.266 OA
HETATM   18  H16 UNK     1      19.070   2.138  32.473  1.00  0.00     0.192 HD
BRANCH  16  19
HETATM   19  C11 UNK     1      19.073   0.747  30.223  1.00  0.00     0.034 A 
HETATM   20  C13 UNK     1      19.473  -0.054  31.271  1.00  0.00     0.024 A 
HETATM   21  C12 UNK     1      20.230  -1.194  30.997  1.00  0.00    -0.061 A 
HETATM   22  C16 UNK     1      20.568  -1.506  29.681  1.00  0.00     0.007 A 
HETATM   23  C19 UNK     1      20.677  -2.079  32.112  1.00  0.00     0.048 C 
HETATM   24  C17 UNK     1      20.151  -0.680  28.639  1.00  0.00     0.002 A 
HETATM   25  C15 UNK     1      19.394   0.460  28.913  1.00  0.00     0.017 A 
ENDBRANCH  16  19
ENDBRANCH   1  15
TORSDOF 3
ENDMDL
MODEL 3
REMARK VINA RESULT:      -9.4      6.701     12.267
REMARK  3 active torsions:
REMARK  status: ('A' for Active; 'I' for Inactive)
REMARK       I    between atoms: C18_23  and  N1_4 
REMARK    1  A    between atoms: N1_4  and  N2_5 
REMARK    2  A    between atoms: C14_19  and  C7_12 
REMARK    3  A    between atoms: C11_16  and  C18_23 
ROOT
HETATM    1  N2  UNK     1      20.673  -2.835  34.733  1.00  0.00    -0.183 NA
HETATM    2  C14 UNK     1      19.803  -3.761  34.977  1.00  0.00     0.156 C 
ENDROOT
BRANCH   2   3
HETATM    3  C7  UNK     1      19.951  -4.706  36.083  1.00  0.00     0.056 A 
HETATM    4  C5  UNK     1      19.586  -6.137  35.991  1.00  0.00     0.198 A 
HETATM    5  C1  UNK     1      19.803  -6.938  37.210  1.00  0.00     0.049 A 
HETATM    6  O2  UNK     1      19.129  -6.628  34.968  1.00  0.00    -0.286 OA
HETATM    7  C2  UNK     1      20.328  -6.317  38.345  1.00  0.00     0.089 A 
HETATM    8  C4  UNK     1      19.490  -8.299  37.233  1.00  0.00     0.025 A 
HETATM    9  O1  UNK     1      20.654  -4.984  38.381  1.00  0.00    -0.321 OA
HETATM   10  C6  UNK     1      20.542  -7.057  39.509  1.00  0.00     0.039 A 
HETATM   11  C9  UNK     1      20.444  -4.247  37.237  1.00  0.00     0.159 A 
HETATM   12  C8  UNK     1      20.229  -8.416  39.534  1.00  0.00     0.009 A 
HETATM   13  C3  UNK     1      19.705  -9.036  38.398  1.00  0.00    -0.061 A 
HETATM   14  C10 UNK     1      19.373 -10.489  38.432  1.00  0.00     0.048 C 
ENDBRANCH   2   3
BRANCH   1  15
HETATM   15  N1  UNK     1      20.367  -2.056  33.668  1.00  0.00    -0.243 N 
HETATM   16  C18 UNK     1      20.755  -2.473  32.409  1.00  0.00     0.271 C 
HETATM   17  O3  UNK     1      21.367  -3.512  32.173  1.00  0.00    -0.266 OA
HETATM   18  H16 UNK     1      19.912  -1.168  33.857  1.00  0.00     0.192 HD
BRANCH  16  19
HETATM   19  C11 UNK     1      20.407  -1.561  31.289  1.00  0.00     0.034 A 
HETATM   20  C13 UNK     1      19.833  -0.342  31.576  1.00  0.00     0.024 A 
HETATM   21  C12 UNK     1      19.506   0.514  30.524  1.00  0.00    -0.061 A 
HETATM   22  C16 UNK     1      19.762   0.130  29.208  1.00  0.00     0.007 A 
HETATM   23  C19 UNK     1      18.884   1.840  30.806  1.00  0.00     0.048 C 
HETATM   24  C17 UNK     1      20.343  -1.109  28.944  1.00  0.00     0.002 A 
HETATM   25  C15 UNK     1      20.670  -1.965  29.996  1.00  0.00     0.017 A 
ENDBRANCH  16  19
ENDBRANCH   1  15
TORSDOF 3
ENDMDL
MODEL 4
REMARK VINA RESULT:      -9.3      1.174      1.591
REMARK  3 active torsions:
REMARK  status: ('A' for Active; 'I' for Inactive)
REMARK       I    between atoms: C18_23  and  N1_4 
REMARK    1  A    between atoms: N1_4  and  N2_5 
REMARK    2  A    between atoms: C14_19  and  C7_12 
REMARK    3  A    between atoms: C11_16  and  C18_23 
ROOT
HETATM    1  N2  UNK     1      18.581   5.347  31.868  1.00  0.00    -0.183 NA
HETATM    2  C14 UNK     1      17.726   6.207  31.418  1.00  0.00     0.156 C 
ENDROOT
BRANCH   2   3
HETATM    3  C7  UNK     1      17.322   7.387  32.181  1.00  0.00     0.056 A 
HETATM    4  C5  UNK     1      15.964   7.971  32.126  1.00  0.00     0.198 A 
HETATM    5  C1  UNK     1      15.740   9.164  32.965  1.00  0.00     0.049 A 
HETATM    6  O2  UNK     1      15.079   7.499  31.426  1.00  0.00    -0.286 OA
HETATM    7  C2  UNK     1      16.792   9.655  33.741  1.00  0.00     0.089 A 
HETATM    8  C4  UNK     1      14.495   9.797  32.986  1.00  0.00     0.025 A 
HETATM    9  O1  UNK     1      18.036   9.074  33.760  1.00  0.00    -0.321 OA
HETATM   10  C6  UNK     1      16.602  10.781  34.542  1.00  0.00     0.039 A 
HETATM   11  C9  UNK     1      18.233   7.964  32.972  1.00  0.00     0.159 A 
HETATM   12  C8  UNK     1      15.359  11.415  34.564  1.00  0.00     0.009 A 
HETATM   13  C3  UNK     1      14.308  10.923  33.787  1.00  0.00    -0.061 A 
HETATM   14  C10 UNK     1      12.982  11.606  33.816  1.00  0.00     0.048 C 
ENDBRANCH   2   3
BRANCH   1  15
HETATM   15  N1  UNK     1      18.831   4.321  31.020  1.00  0.00    -0.243 N 
HETATM   16  C18 UNK     1      18.315   3.074  31.321  1.00  0.00     0.271 C 
HETATM   17  O3  UNK     1      17.637   2.817  32.313  1.00  0.00    -0.266 OA
HETATM   18  H16 UNK     1      19.438   4.508  30.228  1.00  0.00     0.192 HD
BRANCH  16  19
HETATM   19  C11 UNK     1      18.645   1.988  30.362  1.00  0.00     0.034 A 
HETATM   20  C13 UNK     1      19.539   1.011  30.744  1.00  0.00     0.024 A 
HETATM   21  C12 UNK     1      19.848  -0.008  29.842  1.00  0.00    -0.061 A 
HETATM   22  C16 UNK     1      19.255  -0.026  28.580  1.00  0.00     0.007 A 
HETATM   23  C19 UNK     1      20.812  -1.079  30.229  1.00  0.00     0.048 C 
HETATM   24  C17 UNK     1      18.354   0.974  28.219  1.00  0.00     0.002 A 
HETATM   25  C15 UNK     1      18.045   1.993  29.120  1.00  0.00     0.017 A 
ENDBRANCH  16  19
ENDBRANCH   1  15
TORSDOF 3
ENDMDL
MODEL 5
REMARK VINA RESULT:      -9.1      1.468      9.443
REMARK  3 active torsions:
REMARK  status: ('A' for Active; 'I' for Inactive)
REMARK       I    between atoms: C18_23  and  N1_4 
REMARK    1  A    between atoms: N1_4  and  N2_5 
REMARK    2  A    between atoms: C14_19  and  C7_12 
REMARK    3  A    between atoms: C11_16  and  C18_23 
ROOT
HETATM    1  N2  UNK     1      18.037   4.369  32.136  1.00  0.00    -0.183 NA
HETATM    2  C14 UNK     1      17.596   3.664  31.145  1.00  0.00     0.156 C 
ENDROOT
BRANCH   2   3
HETATM    3  C7  UNK     1      18.290   2.473  30.658  1.00  0.00     0.056 A 
HETATM    4  C5  UNK     1      18.678   1.340  31.527  1.00  0.00     0.198 A 
HETATM    5  C1  UNK     1      19.372   0.223  30.859  1.00  0.00     0.049 A 
HETATM    6  O2  UNK     1      18.440   1.327  32.727  1.00  0.00    -0.286 OA
HETATM    7  C2  UNK     1      19.615   0.298  29.486  1.00  0.00     0.089 A 
HETATM    8  C4  UNK     1      19.785  -0.896  31.587  1.00  0.00     0.025 A 
HETATM    9  O1  UNK     1      19.232   1.372  28.721  1.00  0.00    -0.321 OA
HETATM   10  C6  UNK     1      20.270  -0.748  28.835  1.00  0.00     0.039 A 
HETATM   11  C9  UNK     1      18.587   2.408  29.356  1.00  0.00     0.159 A 
HETATM   12  C8  UNK     1      20.683  -1.866  29.560  1.00  0.00     0.009 A 
HETATM   13  C3  UNK     1      20.441  -1.939  30.933  1.00  0.00    -0.061 A 
HETATM   14  C10 UNK     1      20.885  -3.138  31.701  1.00  0.00     0.048 C 
ENDBRANCH   2   3
BRANCH   1  15
HETATM   15  N1  UNK     1      17.260   5.436  32.444  1.00  0.00    -0.243 N 
HETATM   16  C18 UNK     1      17.759   6.389  33.312  1.00  0.00     0.271 C 
HETATM   17  O3  UNK     1      18.870   6.346  33.836  1.00  0.00    -0.266 OA
HETATM   18  H16 UNK     1      16.319   5.453  32.061  1.00  0.00     0.192 HD
BRANCH  16  19
HETATM   19  C11 UNK     1      16.849   7.520  33.624  1.00  0.00     0.034 A 
HETATM   20  C13 UNK     1      17.380   8.784  33.762  1.00  0.00     0.024 A 
HETATM   21  C12 UNK     1      16.525   9.847  34.055  1.00  0.00    -0.061 A 
HETATM   22  C16 UNK     1      15.157   9.620  34.202  1.00  0.00     0.007 A 
HETATM   23  C19 UNK     1      17.073  11.225  34.210  1.00  0.00     0.048 C 
HETATM   24  C17 UNK     1      14.644   8.332  34.057  1.00  0.00     0.002 A 
HETATM   25  C15 UNK     1      15.500   7.270  33.764  1.00  0.00     0.017 A 
ENDBRANCH  16  19
ENDBRANCH   1  15
TORSDOF 3
ENDMDL
MODEL 6
REMARK VINA RESULT:      -8.9      1.673      2.885
REMARK  3 active torsions:
REMARK  status: ('A' for Active; 'I' for Inactive)
REMARK       I    between atoms: C18_23  and  N1_4 
REMARK    1  A    between atoms: N1_4  and  N2_5 
REMARK    2  A    between atoms: C14_19  and  C7_12 
REMARK    3  A    between atoms: C11_16  and  C18_23 
ROOT
HETATM    1  N2  UNK     1      17.142   5.359  32.501  1.00  0.00    -0.183 NA
HETATM    2  C14 UNK     1      16.539   6.392  32.007  1.00  0.00     0.156 C 
ENDROOT
BRANCH   2   3
HETATM    3  C7  UNK     1      16.024   7.475  32.843  1.00  0.00     0.056 A 
HETATM    4  C5  UNK     1      16.779   8.712  33.137  1.00  0.00     0.198 A 
HETATM    5  C1  UNK     1      16.098   9.694  34.002  1.00  0.00     0.049 A 
HETATM    6  O2  UNK     1      17.902   8.911  32.694  1.00  0.00    -0.286 OA
HETATM    7  C2  UNK     1      14.816   9.407  34.476  1.00  0.00     0.089 A 
HETATM    8  C4  UNK     1      16.722  10.896  34.345  1.00  0.00     0.025 A 
HETATM    9  O1  UNK     1      14.154   8.244  34.171  1.00  0.00    -0.321 OA
HETATM   10  C6  UNK     1      14.154  10.323  35.294  1.00  0.00     0.039 A 
HETATM   11  C9  UNK     1      14.801   7.335  33.366  1.00  0.00     0.159 A 
HETATM   12  C8  UNK     1      14.776  11.523  35.638  1.00  0.00     0.009 A 
HETATM   13  C3  UNK     1      16.058  11.809  35.164  1.00  0.00    -0.061 A 
HETATM   14  C10 UNK     1      16.717  13.094  35.536  1.00  0.00     0.048 C 
ENDBRANCH   2   3
BRANCH   1  15
HETATM   15  N1  UNK     1      17.550   4.461  31.572  1.00  0.00    -0.243 N 
HETATM   16  C18 UNK     1      17.918   3.197  31.992  1.00  0.00     0.271 C 
HETATM   17  O3  UNK     1      17.904   2.814  33.160  1.00  0.00    -0.266 OA
HETATM   18  H16 UNK     1      17.619   4.784  30.611  1.00  0.00     0.192 HD
BRANCH  16  19
HETATM   19  C11 UNK     1      18.376   2.268  30.926  1.00  0.00     0.034 A 
HETATM   20  C13 UNK     1      19.256   1.260  31.254  1.00  0.00     0.024 A 
HETATM   21  C12 UNK     1      19.685   0.389  30.253  1.00  0.00    -0.061 A 
HETATM   22  C16 UNK     1      19.224   0.546  28.946  1.00  0.00     0.007 A 
HETATM   23  C19 UNK     1      20.637  -0.712  30.580  1.00  0.00     0.048 C 
HETATM   24  C17 UNK     1      18.334   1.575  28.640  1.00  0.00     0.002 A 
HETATM   25  C15 UNK     1      17.905   2.446  29.642  1.00  0.00     0.017 A 
ENDBRANCH  16  19
ENDBRANCH   1  15
TORSDOF 3
ENDMDL
MODEL 7
REMARK VINA RESULT:      -8.9      8.117     14.193
REMARK  3 active torsions:
REMARK  status: ('A' for Active; 'I' for Inactive)
REMARK       I    between atoms: C18_23  and  N1_4 
REMARK    1  A    between atoms: N1_4  and  N2_5 
REMARK    2  A    between atoms: C14_19  and  C7_12 
REMARK    3  A    between atoms: C11_16  and  C18_23 
ROOT
HETATM    1  N2  UNK     1      19.678  -4.019  36.439  1.00  0.00    -0.183 NA
HETATM    2  C14 UNK     1      18.839  -5.000  36.357  1.00  0.00     0.156 C 
ENDROOT
BRANCH   2   3
HETATM    3  C7  UNK     1      19.217  -6.383  36.644  1.00  0.00     0.056 A 
HETATM    4  C5  UNK     1      20.284  -7.107  35.919  1.00  0.00     0.198 A 
HETATM    5  C1  UNK     1      20.525  -8.498  36.346  1.00  0.00     0.049 A 
HETATM    6  O2  UNK     1      20.927  -6.587  35.017  1.00  0.00    -0.286 OA
HETATM    7  C2  UNK     1      19.756  -9.033  37.381  1.00  0.00     0.089 A 
HETATM    8  C4  UNK     1      21.508  -9.273  35.726  1.00  0.00     0.025 A 
HETATM    9  O1  UNK     1      18.777  -8.319  38.026  1.00  0.00    -0.321 OA
HETATM   10  C6  UNK     1      19.968 -10.347  37.800  1.00  0.00     0.039 A 
HETATM   11  C9  UNK     1      18.560  -7.023  37.617  1.00  0.00     0.159 A 
HETATM   12  C8  UNK     1      20.948 -11.123  37.182  1.00  0.00     0.009 A 
HETATM   13  C3  UNK     1      21.717 -10.587  36.147  1.00  0.00    -0.061 A 
HETATM   14  C10 UNK     1      22.764 -11.422  35.491  1.00  0.00     0.048 C 
ENDBRANCH   2   3
BRANCH   1  15
HETATM   15  N1  UNK     1      19.146  -2.810  36.137  1.00  0.00    -0.243 N 
HETATM   16  C18 UNK     1      18.932  -1.907  37.161  1.00  0.00     0.271 C 
HETATM   17  O3  UNK     1      19.190  -2.116  38.344  1.00  0.00    -0.266 OA
HETATM   18  H16 UNK     1      18.876  -2.648  35.171  1.00  0.00     0.192 HD
BRANCH  16  19
HETATM   19  C11 UNK     1      18.326  -0.610  36.765  1.00  0.00     0.034 A 
HETATM   20  C13 UNK     1      18.536  -0.140  35.486  1.00  0.00     0.024 A 
HETATM   21  C12 UNK     1      17.966   1.078  35.114  1.00  0.00    -0.061 A 
HETATM   22  C16 UNK     1      17.200   1.798  36.030  1.00  0.00     0.007 A 
HETATM   23  C19 UNK     1      18.177   1.611  33.737  1.00  0.00     0.048 C 
HETATM   24  C17 UNK     1      17.003   1.301  37.317  1.00  0.00     0.002 A 
HETATM   25  C15 UNK     1      17.572   0.082  37.689  1.00  0.00     0.017 A 
ENDBRANCH  16  19
ENDBRANCH   1  15
TORSDOF 3
ENDMDL
MODEL 8
REMARK VINA RESULT:      -8.8     14.346     20.096
REMARK  3 active torsions:
REMARK  status: ('A' for Active; 'I' for Inactive)
REMARK       I    between atoms: C18_23  and  N1_4 
REMARK    1  A    between atoms: N1_4  and  N2_5 
REMARK    2  A    between atoms: C14_19  and  C7_12 
REMARK    3  A    between atoms: C11_16  and  C18_23 
ROOT
HETATM    1  N2  UNK     1      19.038  -1.980  15.842  1.00  0.00    -0.183 NA
HETATM    2  C14 UNK     1      19.765  -3.049  15.846  1.00  0.00     0.156 C 
ENDROOT
BRANCH   2   3
HETATM    3  C7  UNK     1      19.523  -4.168  14.936  1.00  0.00     0.056 A 
HETATM    4  C5  UNK     1      20.510  -5.239  14.675  1.00  0.00     0.198 A 
HETATM    5  C1  UNK     1      20.090  -6.285  13.724  1.00  0.00     0.049 A 
HETATM    6  O2  UNK     1      21.609  -5.257  15.211  1.00  0.00    -0.286 OA
HETATM    7  C2  UNK     1      18.822  -6.207  13.145  1.00  0.00     0.089 A 
HETATM    8  C4  UNK     1      20.946  -7.342  13.404  1.00  0.00     0.025 A 
HETATM    9  O1  UNK     1      17.939  -5.193  13.422  1.00  0.00    -0.321 OA
HETATM   10  C6  UNK     1      18.404  -7.187  12.244  1.00  0.00     0.039 A 
HETATM   11  C9  UNK     1      18.344  -4.221  14.309  1.00  0.00     0.159 A 
HETATM   12  C8  UNK     1      19.258  -8.243  11.922  1.00  0.00     0.009 A 
HETATM   13  C3  UNK     1      20.526  -8.320  12.502  1.00  0.00    -0.061 A 
HETATM   14  C10 UNK     1      21.433  -9.451  12.154  1.00  0.00     0.048 C 
ENDBRANCH   2   3
BRANCH   1  15
HETATM   15  N1  UNK     1      19.413  -1.053  16.756  1.00  0.00    -0.243 N 
HETATM   16  C18 UNK     1      18.473  -0.597  17.660  1.00  0.00     0.271 C 
HETATM   17  O3  UNK     1      17.303  -0.971  17.704  1.00  0.00    -0.266 OA
HETATM   18  H16 UNK     1      20.362  -0.695  16.693  1.00  0.00     0.192 HD
BRANCH  16  19
HETATM   19  C11 UNK     1      18.945   0.435  18.620  1.00  0.00     0.034 A 
HETATM   20  C13 UNK     1      19.305   1.675  18.140  1.00  0.00     0.024 A 
HETATM   21  C12 UNK     1      19.748   2.643  19.042  1.00  0.00    -0.061 A 
HETATM   22  C16 UNK     1      19.819   2.348  20.403  1.00  0.00     0.007 A 
HETATM   23  C19 UNK     1      20.145   3.995  18.551  1.00  0.00     0.048 C 
HETATM   24  C17 UNK     1      19.448   1.085  20.863  1.00  0.00     0.002 A 
HETATM   25  C15 UNK     1      19.006   0.117  19.961  1.00  0.00     0.017 A 
ENDBRANCH  16  19
ENDBRANCH   1  15
TORSDOF 3
ENDMDL
MODEL 9
REMARK VINA RESULT:      -8.8     14.568     17.825
REMARK  3 active torsions:
REMARK  status: ('A' for Active; 'I' for Inactive)
REMARK       I    between atoms: C18_23  and  N1_4 
REMARK    1  A    between atoms: N1_4  and  N2_5 
REMARK    2  A    between atoms: C14_19  and  C7_12 
REMARK    3  A    between atoms: C11_16  and  C18_23 
ROOT
HETATM    1  N2  UNK     1      25.082  -8.712  37.368  1.00  0.00    -0.183 NA
HETATM    2  C14 UNK     1      25.805  -8.505  38.420  1.00  0.00     0.156 C 
ENDROOT
BRANCH   2   3
HETATM    3  C7  UNK     1      27.264  -8.425  38.367  1.00  0.00     0.056 A 
HETATM    4  C5  UNK     1      28.018  -7.154  38.442  1.00  0.00     0.198 A 
HETATM    5  C1  UNK     1      29.486  -7.270  38.371  1.00  0.00     0.049 A 
HETATM    6  O2  UNK     1      27.460  -6.071  38.553  1.00  0.00    -0.286 OA
HETATM    7  C2  UNK     1      30.062  -8.535  38.243  1.00  0.00     0.089 A 
HETATM    8  C4  UNK     1      30.294  -6.131  38.430  1.00  0.00     0.025 A 
HETATM    9  O1  UNK     1      29.319  -9.688  38.181  1.00  0.00    -0.321 OA
HETATM   10  C6  UNK     1      31.450  -8.666  38.175  1.00  0.00     0.039 A 
HETATM   11  C9  UNK     1      27.950  -9.566  38.246  1.00  0.00     0.159 A 
HETATM   12  C8  UNK     1      32.258  -7.531  38.233  1.00  0.00     0.009 A 
HETATM   13  C3  UNK     1      31.681  -6.266  38.360  1.00  0.00    -0.061 A 
HETATM   14  C10 UNK     1      32.551  -5.056  38.422  1.00  0.00     0.048 C 
ENDBRANCH   2   3
BRANCH   1  15
HETATM   15  N1  UNK     1      23.750  -8.754  37.613  1.00  0.00    -0.243 N 
HETATM   16  C18 UNK     1      22.962  -9.592  36.846  1.00  0.00     0.271 C 
HETATM   17  O3  UNK     1      23.380 -10.315  35.945  1.00  0.00    -0.266 OA
HETATM   18  H16 UNK     1      23.386  -8.119  38.317  1.00  0.00     0.192 HD
BRANCH  16  19
HETATM   19  C11 UNK     1      21.509  -9.573  37.152  1.00  0.00     0.034 A 
HETATM   20  C13 UNK     1      20.871  -8.358  37.283  1.00  0.00     0.024 A 
HETATM   21  C12 UNK     1      19.506  -8.341  37.570  1.00  0.00    -0.061 A 
HETATM   22  C16 UNK     1      18.810  -9.540  37.719  1.00  0.00     0.007 A 
HETATM   23  C19 UNK     1      18.790  -7.040  37.717  1.00  0.00     0.048 C 
HETATM   24  C17 UNK     1      19.478 -10.756  37.581  1.00  0.00     0.002 A 
HETATM   25  C15 UNK     1      20.843 -10.773  37.294  1.00  0.00     0.017 A 
ENDBRANCH  16  19
ENDBRANCH   1  15
TORSDOF 3
ENDMDL
MODEL 10
REMARK VINA RESULT:      -8.8      5.849      8.382
REMARK  3 active torsions:
REMARK  status: ('A' for Active; 'I' for Inactive)
REMARK       I    between atoms: C18_23  and  N1_4 
REMARK    1  A    between atoms: N1_4  and  N2_5 
REMARK    2  A    between atoms: C14_19  and  C7_12 
REMARK    3  A    between atoms: C11_16  and  C18_23 
ROOT
HETATM    1  N2  UNK     1      19.947  -1.927  35.967  1.00  0.00    -0.183 NA
HETATM    2  C14 UNK     1      18.810  -1.579  35.456  1.00  0.00     0.156 C 
ENDROOT
BRANCH   2   3
HETATM    3  C7  UNK     1      18.668  -0.423  34.572  1.00  0.00     0.056 A 
HETATM    4  C5  UNK     1      18.552   0.970  35.057  1.00  0.00     0.198 A 
HETATM    5  C1  UNK     1      18.414   2.006  34.017  1.00  0.00     0.049 A 
HETATM    6  O2  UNK     1      18.567   1.248  36.248  1.00  0.00    -0.286 OA
HETATM    7  C2  UNK     1      18.403   1.623  32.674  1.00  0.00     0.089 A 
HETATM    8  C4  UNK     1      18.296   3.354  34.365  1.00  0.00     0.025 A 
HETATM    9  O1  UNK     1      18.517   0.315  32.273  1.00  0.00    -0.321 OA
HETATM   10  C6  UNK     1      18.274   2.588  31.674  1.00  0.00     0.039 A 
HETATM   11  C9  UNK     1      18.643  -0.642  33.253  1.00  0.00     0.159 A 
HETATM   12  C8  UNK     1      18.155   3.934  32.020  1.00  0.00     0.009 A 
HETATM   13  C3  UNK     1      18.166   4.316  33.363  1.00  0.00    -0.061 A 
HETATM   14  C10 UNK     1      18.038   5.757  33.726  1.00  0.00     0.048 C 
ENDBRANCH   2   3
BRANCH   1  15
HETATM   15  N1  UNK     1      19.883  -3.023  36.761  1.00  0.00    -0.243 N 
HETATM   16  C18 UNK     1      20.089  -4.265  36.191  1.00  0.00     0.271 C 
HETATM   17  O3  UNK     1      20.330  -4.459  35.001  1.00  0.00    -0.266 OA
HETATM   18  H16 UNK     1      19.628  -2.879  37.733  1.00  0.00     0.192 HD
BRANCH  16  19
HETATM   19  C11 UNK     1      19.983  -5.426  37.112  1.00  0.00     0.034 A 
HETATM   20  C13 UNK     1      21.040  -5.710  37.950  1.00  0.00     0.024 A 
HETATM   21  C12 UNK     1      20.940  -6.800  38.815  1.00  0.00    -0.061 A 
HETATM   22  C16 UNK     1      19.785  -7.580  38.822  1.00  0.00     0.007 A 
HETATM   23  C19 UNK     1      22.069  -7.130  39.732  1.00  0.00     0.048 C 
HETATM   24  C17 UNK     1      18.729  -7.272  37.965  1.00  0.00     0.002 A 
HETATM   25  C15 UNK     1      18.830  -6.182  37.100  1.00  0.00     0.017 A 
ENDBRANCH  16  19
ENDBRANCH   1  15
TORSDOF 3
ENDMDL
