MODEL 1
REMARK VINA RESULT:      -8.7      0.000      0.000
REMARK  1 active torsions:
REMARK  status: ('A' for Active; 'I' for Inactive)
REMARK    1  A    between atoms: C1_5  and  C3_7 
ROOT
HETATM    1  O1  UNK     1      19.715  -1.078  34.803  1.00  0.00    -0.274 OA
HETATM    2  O2  UNK     1      20.792  -2.919  34.003  1.00  0.00    -0.259 OA
HETATM    3  C1  UNK     1      19.735  -3.154  36.129  1.00  0.00     0.076 A 
HETATM    4  C2  UNK     1      18.553  -1.173  36.928  1.00  0.00    -0.001 A 
HETATM    5  C4  UNK     1      18.987  -2.553  37.068  1.00  0.00     0.034 A 
HETATM    6  C5  UNK     1      18.932  -0.464  35.797  1.00  0.00     0.089 A 
HETATM    7  C8  UNK     1      20.132  -2.403  34.900  1.00  0.00     0.301 A 
HETATM    8  C9  UNK     1      17.773  -0.534  37.895  1.00  0.00     0.014 A 
HETATM    9  C10 UNK     1      18.555   0.863  35.600  1.00  0.00     0.038 A 
HETATM   10  C13 UNK     1      17.386   0.797  37.714  1.00  0.00     0.001 A 
HETATM   11  C14 UNK     1      17.777   1.494  36.568  1.00  0.00     0.003 A 
ENDROOT
BRANCH   3  12
HETATM   12  C3  UNK     1      20.172  -4.522  36.264  1.00  0.00     0.115 A 
HETATM   13  S1  UNK     1      21.005  -4.969  37.694  1.00  0.00    -0.067 SA
HETATM   14  C6  UNK     1      21.146  -6.584  37.105  1.00  0.00     0.035 A 
HETATM   15  C11 UNK     1      21.749  -7.698  37.711  1.00  0.00     0.021 A 
HETATM   16  C7  UNK     1      20.543  -6.665  35.845  1.00  0.00     0.075 A 
HETATM   17  C15 UNK     1      21.735  -8.913  37.024  1.00  0.00     0.002 A 
HETATM   18  C16 UNK     1      21.140  -9.019  35.771  1.00  0.00     0.002 A 
HETATM   19  C12 UNK     1      20.543  -7.906  35.173  1.00  0.00     0.033 A 
HETATM   20  N1  UNK     1      19.991  -5.481  35.378  1.00  0.00    -0.239 NA
ENDBRANCH   3  12
TORSDOF 1
ENDMDL
MODEL 2
REMARK VINA RESULT:      -8.6      7.046     11.218
REMARK  1 active torsions:
REMARK  status: ('A' for Active; 'I' for Inactive)
REMARK    1  A    between atoms: C1_5  and  C3_7 
ROOT
HETATM    1  O1  UNK     1      18.789   0.788  32.778  1.00  0.00    -0.274 OA
HETATM    2  O2  UNK     1      18.008   2.405  34.181  1.00  0.00    -0.259 OA
HETATM    3  C1  UNK     1      18.430   3.073  31.929  1.00  0.00     0.076 A 
HETATM    4  C2  UNK     1      19.221   1.300  30.448  1.00  0.00    -0.001 A 
HETATM    5  C4  UNK     1      18.823   2.673  30.709  1.00  0.00     0.034 A 
HETATM    6  C5  UNK     1      19.198   0.387  31.493  1.00  0.00     0.089 A 
HETATM    7  C8  UNK     1      18.387   2.092  33.055  1.00  0.00     0.301 A 
HETATM    8  C9  UNK     1      19.630   0.869  29.184  1.00  0.00     0.014 A 
HETATM    9  C10 UNK     1      19.571  -0.944  31.316  1.00  0.00     0.038 A 
HETATM   10  C13 UNK     1      20.007  -0.463  28.988  1.00  0.00     0.001 A 
HETATM   11  C14 UNK     1      19.977  -1.367  30.052  1.00  0.00     0.003 A 
ENDROOT
BRANCH   3  12
HETATM   12  C3  UNK     1      18.038   4.435  32.195  1.00  0.00     0.115 A 
HETATM   13  S1  UNK     1      19.188   5.485  32.912  1.00  0.00    -0.067 SA
HETATM   14  C6  UNK     1      18.034   6.766  32.883  1.00  0.00     0.035 A 
HETATM   15  C11 UNK     1      18.173   8.092  33.325  1.00  0.00     0.021 A 
HETATM   16  C7  UNK     1      16.842   6.294  32.324  1.00  0.00     0.075 A 
HETATM   17  C15 UNK     1      17.079   8.950  33.193  1.00  0.00     0.002 A 
HETATM   18  C16 UNK     1      15.884   8.505  32.640  1.00  0.00     0.002 A 
HETATM   19  C12 UNK     1      15.752   7.183  32.203  1.00  0.00     0.033 A 
HETATM   20  N1  UNK     1      16.858   4.962  31.936  1.00  0.00    -0.239 NA
ENDBRANCH   3  12
TORSDOF 1
ENDMDL
MODEL 3
REMARK VINA RESULT:      -8.3      7.499     11.163
REMARK  1 active torsions:
REMARK  status: ('A' for Active; 'I' for Inactive)
REMARK    1  A    between atoms: C1_5  and  C3_7 
ROOT
HETATM    1  O1  UNK     1      18.886   1.663  28.597  1.00  0.00    -0.274 OA
HETATM    2  O2  UNK     1      18.216   3.841  28.577  1.00  0.00    -0.259 OA
HETATM    3  C1  UNK     1      18.778   2.928  30.708  1.00  0.00     0.076 A 
HETATM    4  C2  UNK     1      19.535   0.606  30.680  1.00  0.00    -0.001 A 
HETATM    5  C4  UNK     1      19.226   1.847  31.369  1.00  0.00     0.034 A 
HETATM    6  C5  UNK     1      19.354   0.542  29.306  1.00  0.00     0.089 A 
HETATM    7  C8  UNK     1      18.597   2.871  29.226  1.00  0.00     0.301 A 
HETATM    8  C9  UNK     1      20.003  -0.525  31.353  1.00  0.00     0.014 A 
HETATM    9  C10 UNK     1      19.627  -0.617  28.581  1.00  0.00     0.038 A 
HETATM   10  C13 UNK     1      20.282  -1.696  30.642  1.00  0.00     0.001 A 
HETATM   11  C14 UNK     1      20.094  -1.741  29.259  1.00  0.00     0.003 A 
ENDROOT
BRANCH   3  12
HETATM   12  C3  UNK     1      18.466   4.160  31.388  1.00  0.00     0.115 A 
HETATM   13  S1  UNK     1      19.708   5.330  31.558  1.00  0.00    -0.067 SA
HETATM   14  C6  UNK     1      18.612   6.371  32.387  1.00  0.00     0.035 A 
HETATM   15  C11 UNK     1      18.838   7.650  32.922  1.00  0.00     0.021 A 
HETATM   16  C7  UNK     1      17.365   5.744  32.477  1.00  0.00     0.075 A 
HETATM   17  C15 UNK     1      17.777   8.299  33.556  1.00  0.00     0.002 A 
HETATM   18  C16 UNK     1      16.528   7.696  33.657  1.00  0.00     0.002 A 
HETATM   19  C12 UNK     1      16.310   6.423  33.123  1.00  0.00     0.033 A 
HETATM   20  N1  UNK     1      17.296   4.483  31.902  1.00  0.00    -0.239 NA
ENDBRANCH   3  12
TORSDOF 1
ENDMDL
MODEL 4
REMARK VINA RESULT:      -8.3     19.450     20.551
REMARK  1 active torsions:
REMARK  status: ('A' for Active; 'I' for Inactive)
REMARK    1  A    between atoms: C1_5  and  C3_7 
ROOT
HETATM    1  O1  UNK     1      19.309   1.097  15.611  1.00  0.00    -0.274 OA
HETATM    2  O2  UNK     1      19.428  -0.349  13.854  1.00  0.00    -0.259 OA
HETATM    3  C1  UNK     1      19.047  -1.322  15.999  1.00  0.00     0.076 A 
HETATM    4  C2  UNK     1      18.879   0.266  17.847  1.00  0.00    -0.001 A 
HETATM    5  C4  UNK     1      18.857  -1.083  17.308  1.00  0.00     0.034 A 
HETATM    6  C5  UNK     1      19.109   1.327  16.984  1.00  0.00     0.089 A 
HETATM    7  C8  UNK     1      19.277  -0.182  15.061  1.00  0.00     0.301 A 
HETATM    8  C9  UNK     1      18.683   0.530  19.204  1.00  0.00     0.014 A 
HETATM    9  C10 UNK     1      19.147   2.646  17.433  1.00  0.00     0.038 A 
HETATM   10  C13 UNK     1      18.717   1.847  19.673  1.00  0.00     0.001 A 
HETATM   11  C14 UNK     1      18.950   2.902  18.788  1.00  0.00     0.003 A 
ENDROOT
BRANCH   3  12
HETATM   12  C3  UNK     1      19.030  -2.659  15.459  1.00  0.00     0.115 A 
HETATM   13  S1  UNK     1      20.526  -3.378  15.030  1.00  0.00    -0.067 SA
HETATM   14  C6  UNK     1      19.695  -4.804  14.529  1.00  0.00     0.035 A 
HETATM   15  C11 UNK     1      20.219  -5.994  13.999  1.00  0.00     0.021 A 
HETATM   16  C7  UNK     1      18.321  -4.625  14.727  1.00  0.00     0.075 A 
HETATM   17  C15 UNK     1      19.329  -7.018  13.666  1.00  0.00     0.002 A 
HETATM   18  C16 UNK     1      17.960  -6.864  13.854  1.00  0.00     0.002 A 
HETATM   19  C12 UNK     1      17.445  -5.676  14.382  1.00  0.00     0.033 A 
HETATM   20  N1  UNK     1      17.957  -3.396  15.258  1.00  0.00    -0.239 NA
ENDBRANCH   3  12
TORSDOF 1
ENDMDL
MODEL 5
REMARK VINA RESULT:      -8.0      6.419      8.195
REMARK  1 active torsions:
REMARK  status: ('A' for Active; 'I' for Inactive)
REMARK    1  A    between atoms: C1_5  and  C3_7 
ROOT
HETATM    1  O1  UNK     1      25.835  -5.275  38.823  1.00  0.00    -0.274 OA
HETATM    2  O2  UNK     1      23.557  -5.302  38.838  1.00  0.00    -0.259 OA
HETATM    3  C1  UNK     1      24.637  -7.416  38.595  1.00  0.00     0.076 A 
HETATM    4  C2  UNK     1      27.077  -7.348  38.631  1.00  0.00    -0.001 A 
HETATM    5  C4  UNK     1      25.814  -8.060  38.542  1.00  0.00     0.034 A 
HETATM    6  C5  UNK     1      27.058  -5.967  38.766  1.00  0.00     0.089 A 
HETATM    7  C8  UNK     1      24.608  -5.931  38.758  1.00  0.00     0.301 A 
HETATM    8  C9  UNK     1      28.309  -8.004  38.580  1.00  0.00     0.014 A 
HETATM    9  C10 UNK     1      28.231  -5.220  38.853  1.00  0.00     0.038 A 
HETATM   10  C13 UNK     1      29.496  -7.270  38.666  1.00  0.00     0.001 A 
HETATM   11  C14 UNK     1      29.457  -5.881  38.801  1.00  0.00     0.003 A 
ENDROOT
BRANCH   3  12
HETATM   12  C3  UNK     1      23.380  -8.117  38.503  1.00  0.00     0.115 A 
HETATM   13  S1  UNK     1      22.407  -8.224  39.910  1.00  0.00    -0.067 SA
HETATM   14  C6  UNK     1      21.228  -9.118  39.024  1.00  0.00     0.035 A 
HETATM   15  C11 UNK     1      20.003  -9.645  39.464  1.00  0.00     0.021 A 
HETATM   16  C7  UNK     1      21.667  -9.273  37.706  1.00  0.00     0.075 A 
HETATM   17  C15 UNK     1      19.213 -10.340  38.545  1.00  0.00     0.002 A 
HETATM   18  C16 UNK     1      19.629 -10.506  37.229  1.00  0.00     0.002 A 
HETATM   19  C12 UNK     1      20.850  -9.980  36.798  1.00  0.00     0.033 A 
HETATM   20  N1  UNK     1      22.897  -8.697  37.423  1.00  0.00    -0.239 NA
ENDBRANCH   3  12
TORSDOF 1
ENDMDL
MODEL 6
REMARK VINA RESULT:      -7.9      6.625     11.284
REMARK  1 active torsions:
REMARK  status: ('A' for Active; 'I' for Inactive)
REMARK    1  A    between atoms: C1_5  and  C3_7 
ROOT
HETATM    1  O1  UNK     1      19.066   2.125  30.658  1.00  0.00    -0.274 OA
HETATM    2  O2  UNK     1      18.921   4.327  30.089  1.00  0.00    -0.259 OA
HETATM    3  C1  UNK     1      18.253   3.762  32.309  1.00  0.00     0.076 A 
HETATM    4  C2  UNK     1      18.469   1.401  32.893  1.00  0.00    -0.001 A 
HETATM    5  C4  UNK     1      18.128   2.776  33.213  1.00  0.00     0.034 A 
HETATM    6  C5  UNK     1      18.928   1.106  31.617  1.00  0.00     0.089 A 
HETATM    7  C8  UNK     1      18.764   3.455  30.939  1.00  0.00     0.301 A 
HETATM    8  C9  UNK     1      18.345   0.365  33.822  1.00  0.00     0.014 A 
HETATM    9  C10 UNK     1      19.269  -0.192  31.240  1.00  0.00     0.038 A 
HETATM   10  C13 UNK     1      18.684  -0.942  33.461  1.00  0.00     0.001 A 
HETATM   11  C14 UNK     1      19.144  -1.220  32.172  1.00  0.00     0.003 A 
ENDROOT
BRANCH   3  12
HETATM   12  C3  UNK     1      17.913   5.128  32.620  1.00  0.00     0.115 A 
HETATM   13  S1  UNK     1      19.088   6.099  33.405  1.00  0.00    -0.067 SA
HETATM   14  C6  UNK     1      17.990   7.428  33.402  1.00  0.00     0.035 A 
HETATM   15  C11 UNK     1      18.173   8.728  33.900  1.00  0.00     0.021 A 
HETATM   16  C7  UNK     1      16.793   7.031  32.798  1.00  0.00     0.075 A 
HETATM   17  C15 UNK     1      17.120   9.638  33.779  1.00  0.00     0.002 A 
HETATM   18  C16 UNK     1      15.921   9.266  33.181  1.00  0.00     0.002 A 
HETATM   19  C12 UNK     1      15.745   7.970  32.689  1.00  0.00     0.033 A 
HETATM   20  N1  UNK     1      16.763   5.716  32.357  1.00  0.00    -0.239 NA
ENDBRANCH   3  12
TORSDOF 1
ENDMDL
MODEL 7
REMARK VINA RESULT:      -7.9      6.620      8.541
REMARK  1 active torsions:
REMARK  status: ('A' for Active; 'I' for Inactive)
REMARK    1  A    between atoms: C1_5  and  C3_7 
ROOT
HETATM    1  O1  UNK     1      17.818   4.666  34.226  1.00  0.00    -0.274 OA
HETATM    2  O2  UNK     1      18.526   2.504  34.347  1.00  0.00    -0.259 OA
HETATM    3  C1  UNK     1      18.360   3.440  32.159  1.00  0.00     0.076 A 
HETATM    4  C2  UNK     1      17.643   5.773  32.077  1.00  0.00    -0.001 A 
HETATM    5  C4  UNK     1      18.073   4.539  31.441  1.00  0.00     0.034 A 
HETATM    6  C5  UNK     1      17.522   5.807  33.459  1.00  0.00     0.089 A 
HETATM    7  C8  UNK     1      18.248   3.475  33.648  1.00  0.00     0.301 A 
HETATM    8  C9  UNK     1      17.343   6.924  31.344  1.00  0.00     0.014 A 
HETATM    9  C10 UNK     1      17.111   6.955  34.133  1.00  0.00     0.038 A 
HETATM   10  C13 UNK     1      16.929   8.085  32.005  1.00  0.00     0.001 A 
HETATM   11  C14 UNK     1      16.813   8.100  33.396  1.00  0.00     0.003 A 
ENDROOT
BRANCH   3  12
HETATM   12  C3  UNK     1      18.783   2.212  31.534  1.00  0.00     0.115 A 
HETATM   13  S1  UNK     1      19.012   2.204  29.835  1.00  0.00    -0.067 SA
HETATM   14  C6  UNK     1      19.463   0.541  29.905  1.00  0.00     0.035 A 
HETATM   15  C11 UNK     1      19.841  -0.319  28.861  1.00  0.00     0.021 A 
HETATM   16  C7  UNK     1      19.404   0.107  31.234  1.00  0.00     0.075 A 
HETATM   17  C15 UNK     1      20.164  -1.640  29.176  1.00  0.00     0.002 A 
HETATM   18  C16 UNK     1      20.114  -2.094  30.489  1.00  0.00     0.002 A 
HETATM   19  C12 UNK     1      19.737  -1.233  31.524  1.00  0.00     0.033 A 
HETATM   20  N1  UNK     1      19.015   1.072  32.152  1.00  0.00    -0.239 NA
ENDBRANCH   3  12
TORSDOF 1
ENDMDL
MODEL 8
REMARK VINA RESULT:      -7.9      6.448     11.161
REMARK  1 active torsions:
REMARK  status: ('A' for Active; 'I' for Inactive)
REMARK    1  A    between atoms: C1_5  and  C3_7 
ROOT
HETATM    1  O1  UNK     1      18.071   2.091  32.490  1.00  0.00    -0.274 OA
HETATM    2  O2  UNK     1      17.992   4.127  31.470  1.00  0.00    -0.259 OA
HETATM    3  C1  UNK     1      18.409   4.138  33.820  1.00  0.00     0.076 A 
HETATM    4  C2  UNK     1      18.532   1.934  34.865  1.00  0.00    -0.001 A 
HETATM    5  C4  UNK     1      18.595   3.385  34.917  1.00  0.00     0.034 A 
HETATM    6  C5  UNK     1      18.267   1.319  33.649  1.00  0.00     0.089 A 
HETATM    7  C8  UNK     1      18.141   3.482  32.504  1.00  0.00     0.301 A 
HETATM    8  C9  UNK     1      18.724   1.138  35.996  1.00  0.00     0.014 A 
HETATM    9  C10 UNK     1      18.189  -0.067  33.527  1.00  0.00     0.038 A 
HETATM   10  C13 UNK     1      18.649  -0.255  35.892  1.00  0.00     0.001 A 
HETATM   11  C14 UNK     1      18.382  -0.855  34.660  1.00  0.00     0.003 A 
ENDROOT
BRANCH   3  12
HETATM   12  C3  UNK     1      18.466   5.577  33.866  1.00  0.00     0.115 A 
HETATM   13  S1  UNK     1      17.025   6.456  33.568  1.00  0.00    -0.067 SA
HETATM   14  C6  UNK     1      17.882   7.936  33.793  1.00  0.00     0.035 A 
HETATM   15  C11 UNK     1      17.405   9.254  33.719  1.00  0.00     0.021 A 
HETATM   16  C7  UNK     1      19.220   7.649  34.081  1.00  0.00     0.075 A 
HETATM   17  C15 UNK     1      18.307  10.297  33.943  1.00  0.00     0.002 A 
HETATM   18  C16 UNK     1      19.642  10.037  34.232  1.00  0.00     0.002 A 
HETATM   19  C12 UNK     1      20.110   8.722  34.303  1.00  0.00     0.033 A 
HETATM   20  N1  UNK     1      19.539   6.299  34.120  1.00  0.00    -0.239 NA
ENDBRANCH   3  12
TORSDOF 1
ENDMDL
MODEL 9
REMARK VINA RESULT:      -7.8     19.681     21.695
REMARK  1 active torsions:
REMARK  status: ('A' for Active; 'I' for Inactive)
REMARK    1  A    between atoms: C1_5  and  C3_7 
ROOT
HETATM    1  O1  UNK     1      19.609  -3.562  13.513  1.00  0.00    -0.274 OA
HETATM    2  O2  UNK     1      20.542  -1.506  13.822  1.00  0.00    -0.259 OA
HETATM    3  C1  UNK     1      18.897  -2.170  15.417  1.00  0.00     0.076 A 
HETATM    4  C2  UNK     1      17.956  -4.398  15.077  1.00  0.00    -0.001 A 
HETATM    5  C4  UNK     1      18.064  -3.148  15.810  1.00  0.00     0.034 A 
HETATM    6  C5  UNK     1      18.731  -4.575  13.939  1.00  0.00     0.089 A 
HETATM    7  C8  UNK     1      19.747  -2.361  14.203  1.00  0.00     0.301 A 
HETATM    8  C9  UNK     1      17.096  -5.425  15.474  1.00  0.00     0.014 A 
HETATM    9  C10 UNK     1      18.676  -5.746  13.186  1.00  0.00     0.038 A 
HETATM   10  C13 UNK     1      17.028  -6.606  14.730  1.00  0.00     0.001 A 
HETATM   11  C14 UNK     1      17.816  -6.766  13.588  1.00  0.00     0.003 A 
ENDROOT
BRANCH   3  12
HETATM   12  C3  UNK     1      19.005  -0.927  16.139  1.00  0.00     0.115 A 
HETATM   13  S1  UNK     1      18.922  -0.973  17.851  1.00  0.00    -0.067 SA
HETATM   14  C6  UNK     1      19.114   0.740  17.904  1.00  0.00     0.035 A 
HETATM   15  C11 UNK     1      19.160   1.591  19.020  1.00  0.00     0.021 A 
HETATM   16  C7  UNK     1      19.227   1.229  16.598  1.00  0.00     0.075 A 
HETATM   17  C15 UNK     1      19.324   2.961  18.802  1.00  0.00     0.002 A 
HETATM   18  C16 UNK     1      19.440   3.469  17.513  1.00  0.00     0.002 A 
HETATM   19  C12 UNK     1      19.392   2.617  16.406  1.00  0.00     0.033 A 
HETATM   20  N1  UNK     1      19.162   0.266  15.601  1.00  0.00    -0.239 NA
ENDBRANCH   3  12
TORSDOF 1
ENDMDL
MODEL 10
REMARK VINA RESULT:      -7.7      2.339      3.512
REMARK  1 active torsions:
REMARK  status: ('A' for Active; 'I' for Inactive)
REMARK    1  A    between atoms: C1_5  and  C3_7 
ROOT
HETATM    1  O1  UNK     1      18.672  -1.155  35.313  1.00  0.00    -0.274 OA
HETATM    2  O2  UNK     1      18.659  -2.120  37.377  1.00  0.00    -0.259 OA
HETATM    3  C1  UNK     1      19.924  -3.242  35.694  1.00  0.00     0.076 A 
HETATM    4  C2  UNK     1      19.950  -2.150  33.510  1.00  0.00    -0.001 A 
HETATM    5  C4  UNK     1      20.342  -3.215  34.417  1.00  0.00     0.034 A 
HETATM    6  C5  UNK     1      19.118  -1.143  33.979  1.00  0.00     0.089 A 
HETATM    7  C8  UNK     1      19.043  -2.152  36.211  1.00  0.00     0.301 A 
HETATM    8  C9  UNK     1      20.377  -2.107  32.181  1.00  0.00     0.014 A 
HETATM    9  C10 UNK     1      18.700  -0.094  33.163  1.00  0.00     0.038 A 
HETATM   10  C13 UNK     1      19.968  -1.062  31.348  1.00  0.00     0.001 A 
HETATM   11  C14 UNK     1      19.131  -0.058  31.839  1.00  0.00     0.003 A 
ENDROOT
BRANCH   3  12
HETATM   12  C3  UNK     1      20.306  -4.298  36.597  1.00  0.00     0.115 A 
HETATM   13  S1  UNK     1      19.207  -5.591  36.845  1.00  0.00    -0.067 SA
HETATM   14  C6  UNK     1      20.321  -6.326  37.937  1.00  0.00     0.035 A 
HETATM   15  C11 UNK     1      20.194  -7.526  38.656  1.00  0.00     0.021 A 
HETATM   16  C7  UNK     1      21.462  -5.523  38.036  1.00  0.00     0.075 A 
HETATM   17  C15 UNK     1      21.247  -7.914  39.488  1.00  0.00     0.002 A 
HETATM   18  C16 UNK     1      22.391  -7.132  39.602  1.00  0.00     0.002 A 
HETATM   19  C12 UNK     1      22.511  -5.939  38.884  1.00  0.00     0.033 A 
HETATM   20  N1  UNK     1      21.440  -4.369  37.266  1.00  0.00    -0.239 NA
ENDBRANCH   3  12
TORSDOF 1
ENDMDL
