MODEL 1
REMARK VINA RESULT:      -9.3      0.000      0.000
REMARK  3 active torsions:
REMARK  status: ('A' for Active; 'I' for Inactive)
REMARK    1  A    between atoms: C5_12  and  O2_4 
REMARK    2  A    between atoms: C11_18  and  N1_7 
REMARK       I    between atoms: C8_15  and  N1_7 
REMARK    3  A    between atoms: C3_10  and  C8_15 
ROOT
HETATM    1  O1  UNK     1      19.441  -1.075  34.749  1.00  0.00    -0.271 OA
HETATM    2  O3  UNK     1      20.603  -2.960  34.183  1.00  0.00    -0.259 OA
HETATM    3  C1  UNK     1      18.461  -0.889  36.966  1.00  0.00     0.002 A 
HETATM    4  C2  UNK     1      18.700  -0.353  35.704  1.00  0.00     0.123 A 
HETATM    5  C3  UNK     1      19.690  -2.890  36.369  1.00  0.00     0.108 A 
HETATM    6  C4  UNK     1      18.987  -2.208  37.281  1.00  0.00     0.037 A 
HETATM    7  C5  UNK     1      18.224   0.905  35.339  1.00  0.00     0.102 A 
HETATM    8  C6  UNK     1      17.722  -0.142  37.886  1.00  0.00     0.014 A 
HETATM    9  C7  UNK     1      19.958  -2.339  35.021  1.00  0.00     0.304 A 
HETATM   10  C9  UNK     1      17.489   1.643  36.264  1.00  0.00     0.040 A 
HETATM   11  C10 UNK     1      17.238   1.121  37.534  1.00  0.00     0.004 A 
ENDROOT
BRANCH   5  12
HETATM   12  C8  UNK     1      20.179  -4.211  36.781  1.00  0.00     0.262 C 
HETATM   13  O4  UNK     1      21.323  -4.329  37.217  1.00  0.00    -0.267 OA
HETATM   14  N1  UNK     1      19.221  -5.201  36.609  1.00  0.00    -0.322 N 
HETATM   15  H5  UNK     1      18.306  -4.936  36.253  1.00  0.00     0.169 HD
BRANCH  14  16
HETATM   16  C11 UNK     1      19.345  -6.582  36.898  1.00  0.00     0.052 A 
HETATM   17  C12 UNK     1      19.815  -7.470  35.945  1.00  0.00     0.039 A 
HETATM   18 Br1  UNK     1      20.321  -6.918  34.200  1.00  0.00    -0.049 Br
HETATM   19  C14 UNK     1      19.923  -8.824  36.265  1.00  0.00     0.040 A 
HETATM   20  C16 UNK     1      19.559  -9.271  37.535  1.00  0.00     0.012 A 
HETATM   21 Br2  UNK     1      19.704 -11.104  37.972  1.00  0.00    -0.051 Br
HETATM   22  C15 UNK     1      19.087  -8.364  38.486  1.00  0.00     0.021 A 
HETATM   23  C13 UNK     1      18.979  -7.011  38.165  1.00  0.00     0.032 A 
ENDBRANCH  14  16
ENDBRANCH   5  12
BRANCH   7  24
HETATM   24  O2  UNK     1      18.465   1.417  34.102  1.00  0.00    -0.353 OA
HETATM   25  C17 UNK     1      18.315   2.827  33.942  1.00  0.00     0.210 C 
ENDBRANCH   7  24
TORSDOF 3
ENDMDL
MODEL 2
REMARK VINA RESULT:      -9.1      6.928     11.611
REMARK  3 active torsions:
REMARK  status: ('A' for Active; 'I' for Inactive)
REMARK    1  A    between atoms: C5_12  and  O2_4 
REMARK    2  A    between atoms: C11_18  and  N1_7 
REMARK       I    between atoms: C8_15  and  N1_7 
REMARK    3  A    between atoms: C3_10  and  C8_15 
ROOT
HETATM    1  O1  UNK     1      18.762   0.858  32.620  1.00  0.00    -0.271 OA
HETATM    2  O3  UNK     1      17.980   2.728  33.676  1.00  0.00    -0.259 OA
HETATM    3  C1  UNK     1      19.419   0.986  30.284  1.00  0.00     0.002 A 
HETATM    4  C2  UNK     1      19.259   0.248  31.452  1.00  0.00     0.123 A 
HETATM    5  C3  UNK     1      18.590   2.969  31.399  1.00  0.00     0.108 A 
HETATM    6  C4  UNK     1      19.062   2.396  30.286  1.00  0.00     0.037 A 
HETATM    7  C5  UNK     1      19.582  -1.106  31.517  1.00  0.00     0.102 A 
HETATM    8  C6  UNK     1      19.916   0.345  29.147  1.00  0.00     0.014 A 
HETATM    9  C7  UNK     1      18.412   2.205  32.654  1.00  0.00     0.304 A 
HETATM   10  C9  UNK     1      20.078  -1.736  30.377  1.00  0.00     0.040 A 
HETATM   11  C10 UNK     1      20.244  -1.013  29.194  1.00  0.00     0.004 A 
ENDROOT
BRANCH   5  12
HETATM   12  C8  UNK     1      18.259   4.396  31.303  1.00  0.00     0.262 C 
HETATM   13  O4  UNK     1      18.690   5.061  30.362  1.00  0.00    -0.267 OA
HETATM   14  N1  UNK     1      17.455   4.819  32.353  1.00  0.00    -0.322 N 
HETATM   15  H5  UNK     1      17.163   4.136  33.049  1.00  0.00     0.169 HD
BRANCH  14  16
HETATM   16  C11 UNK     1      16.948   6.122  32.582  1.00  0.00     0.052 A 
HETATM   17  C12 UNK     1      17.713   7.083  33.221  1.00  0.00     0.039 A 
HETATM   18 Br1  UNK     1      19.477   6.738  33.833  1.00  0.00    -0.049 Br
HETATM   19  C14 UNK     1      17.180   8.355  33.430  1.00  0.00     0.040 A 
HETATM   20  C16 UNK     1      15.887   8.648  32.996  1.00  0.00     0.012 A 
HETATM   21 Br2  UNK     1      15.161  10.371  33.278  1.00  0.00    -0.051 Br
HETATM   22  C15 UNK     1      15.127   7.669  32.355  1.00  0.00     0.021 A 
HETATM   23  C13 UNK     1      15.661   6.398  32.147  1.00  0.00     0.032 A 
ENDBRANCH  14  16
ENDBRANCH   5  12
BRANCH   7  24
HETATM   24  O2  UNK     1      19.421  -1.815  32.666  1.00  0.00    -0.353 OA
HETATM   25  C17 UNK     1      20.565  -2.500  33.173  1.00  0.00     0.210 C 
ENDBRANCH   7  24
TORSDOF 3
ENDMDL
MODEL 3
REMARK VINA RESULT:      -8.6     18.197     20.114
REMARK  3 active torsions:
REMARK  status: ('A' for Active; 'I' for Inactive)
REMARK    1  A    between atoms: C5_12  and  O2_4 
REMARK    2  A    between atoms: C11_18  and  N1_7 
REMARK       I    between atoms: C8_15  and  N1_7 
REMARK    3  A    between atoms: C3_10  and  C8_15 
ROOT
HETATM    1  O1  UNK     1      19.363   1.672  17.145  1.00  0.00    -0.271 OA
HETATM    2  O3  UNK     1      19.140   0.732  15.074  1.00  0.00    -0.259 OA
HETATM    3  C1  UNK     1      19.206   0.268  19.123  1.00  0.00     0.002 A 
HETATM    4  C2  UNK     1      19.387   1.520  18.545  1.00  0.00     0.123 A 
HETATM    5  C3  UNK     1      18.967  -0.732  16.930  1.00  0.00     0.108 A 
HETATM    6  C4  UNK     1      18.989  -0.882  18.259  1.00  0.00     0.037 A 
HETATM    7  C5  UNK     1      19.598   2.661  19.316  1.00  0.00     0.102 A 
HETATM    8  C6  UNK     1      19.237   0.158  20.515  1.00  0.00     0.014 A 
HETATM    9  C7  UNK     1      19.159   0.590  16.292  1.00  0.00     0.304 A 
HETATM   10  C9  UNK     1      19.629   2.542  20.704  1.00  0.00     0.040 A 
HETATM   11  C10 UNK     1      19.447   1.294  21.303  1.00  0.00     0.004 A 
ENDROOT
BRANCH   5  12
HETATM   12  C8  UNK     1      18.743  -1.951  16.143  1.00  0.00     0.262 C 
HETATM   13  O4  UNK     1      17.594  -2.321  15.905  1.00  0.00    -0.267 OA
HETATM   14  N1  UNK     1      19.934  -2.549  15.754  1.00  0.00    -0.322 N 
HETATM   15  H5  UNK     1      20.811  -2.104  16.015  1.00  0.00     0.169 HD
BRANCH  14  16
HETATM   16  C11 UNK     1      20.097  -3.731  14.991  1.00  0.00     0.052 A 
HETATM   17  C12 UNK     1      20.280  -3.675  13.619  1.00  0.00     0.039 A 
HETATM   18 Br1  UNK     1      20.325  -2.034  12.665  1.00  0.00    -0.049 Br
HETATM   19  C14 UNK     1      20.437  -4.860  12.901  1.00  0.00     0.040 A 
HETATM   20  C16 UNK     1      20.408  -6.087  13.564  1.00  0.00     0.012 A 
HETATM   21 Br2  UNK     1      20.620  -7.694  12.592  1.00  0.00    -0.051 Br
HETATM   22  C15 UNK     1      20.222  -6.128  14.947  1.00  0.00     0.021 A 
HETATM   23  C13 UNK     1      20.065  -4.943  15.665  1.00  0.00     0.032 A 
ENDBRANCH  14  16
ENDBRANCH   5  12
BRANCH   7  24
HETATM   24  O2  UNK     1      19.774   3.879  18.738  1.00  0.00    -0.353 OA
HETATM   25  C17 UNK     1      21.118   4.308  18.522  1.00  0.00     0.210 C 
ENDBRANCH   7  24
TORSDOF 3
ENDMDL
MODEL 4
REMARK VINA RESULT:      -8.5      2.574      3.721
REMARK  3 active torsions:
REMARK  status: ('A' for Active; 'I' for Inactive)
REMARK    1  A    between atoms: C5_12  and  O2_4 
REMARK    2  A    between atoms: C11_18  and  N1_7 
REMARK       I    between atoms: C8_15  and  N1_7 
REMARK    3  A    between atoms: C3_10  and  C8_15 
ROOT
HETATM    1  O1  UNK     1      18.984  -0.396  33.497  1.00  0.00    -0.271 OA
HETATM    2  O3  UNK     1      18.770  -0.887  35.719  1.00  0.00    -0.259 OA
HETATM    3  C1  UNK     1      20.245  -1.891  32.054  1.00  0.00     0.002 A 
HETATM    4  C2  UNK     1      19.490  -0.735  32.228  1.00  0.00     0.123 A 
HETATM    5  C3  UNK     1      20.022  -2.413  34.408  1.00  0.00     0.108 A 
HETATM    6  C4  UNK     1      20.506  -2.741  33.204  1.00  0.00     0.037 A 
HETATM    7  C5  UNK     1      19.205   0.122  31.166  1.00  0.00     0.102 A 
HETATM    8  C6  UNK     1      20.729  -2.194  30.779  1.00  0.00     0.014 A 
HETATM    9  C7  UNK     1      19.216  -1.190  34.617  1.00  0.00     0.304 A 
HETATM   10  C9  UNK     1      19.691  -0.188  29.898  1.00  0.00     0.040 A 
HETATM   11  C10 UNK     1      20.452  -1.343  29.705  1.00  0.00     0.004 A 
ENDROOT
BRANCH   5  12
HETATM   12  C8  UNK     1      20.337  -3.335  35.507  1.00  0.00     0.262 C 
HETATM   13  O4  UNK     1      21.040  -2.952  36.441  1.00  0.00    -0.267 OA
HETATM   14  N1  UNK     1      19.761  -4.584  35.324  1.00  0.00    -0.322 N 
HETATM   15  H5  UNK     1      19.184  -4.739  34.500  1.00  0.00     0.169 HD
BRANCH  14  16
HETATM   16  C11 UNK     1      19.854  -5.711  36.177  1.00  0.00     0.052 A 
HETATM   17  C12 UNK     1      20.220  -6.952  35.682  1.00  0.00     0.039 A 
HETATM   18 Br1  UNK     1      20.620  -7.239  33.848  1.00  0.00    -0.049 Br
HETATM   19  C14 UNK     1      20.299  -8.040  36.552  1.00  0.00     0.040 A 
HETATM   20  C16 UNK     1      20.012  -7.871  37.906  1.00  0.00     0.012 A 
HETATM   21 Br2  UNK     1      20.119  -9.343  39.087  1.00  0.00    -0.051 Br
HETATM   22  C15 UNK     1      19.644  -6.615  38.391  1.00  0.00     0.021 A 
HETATM   23  C13 UNK     1      19.564  -5.528  37.520  1.00  0.00     0.032 A 
ENDBRANCH  14  16
ENDBRANCH   5  12
BRANCH   7  24
HETATM   24  O2  UNK     1      18.465   1.248  31.350  1.00  0.00    -0.353 OA
HETATM   25  C17 UNK     1      18.623   2.294  30.392  1.00  0.00     0.210 C 
ENDBRANCH   7  24
TORSDOF 3
ENDMDL
MODEL 5
REMARK VINA RESULT:      -8.3      3.035      8.205
REMARK  3 active torsions:
REMARK  status: ('A' for Active; 'I' for Inactive)
REMARK    1  A    between atoms: C5_12  and  O2_4 
REMARK    2  A    between atoms: C11_18  and  N1_7 
REMARK       I    between atoms: C8_15  and  N1_7 
REMARK    3  A    between atoms: C3_10  and  C8_15 
ROOT
HETATM    1  O1  UNK     1      20.312  -7.943  35.862  1.00  0.00    -0.271 OA
HETATM    2  O3  UNK     1      20.483  -5.945  34.766  1.00  0.00    -0.259 OA
HETATM    3  C1  UNK     1      19.995  -7.967  38.272  1.00  0.00     0.002 A 
HETATM    4  C2  UNK     1      20.144  -8.649  37.069  1.00  0.00     0.123 A 
HETATM    5  C3  UNK     1      20.178  -5.847  37.114  1.00  0.00     0.108 A 
HETATM    6  C4  UNK     1      20.018  -6.513  38.264  1.00  0.00     0.037 A 
HETATM    7  C5  UNK     1      20.132 -10.042  37.008  1.00  0.00     0.102 A 
HETATM    8  C6  UNK     1      19.830  -8.703  39.447  1.00  0.00     0.014 A 
HETATM    9  C7  UNK     1      20.337  -6.551  35.822  1.00  0.00     0.304 A 
HETATM   10  C9  UNK     1      19.966 -10.768  38.185  1.00  0.00     0.040 A 
HETATM   11  C10 UNK     1      19.816 -10.100  39.403  1.00  0.00     0.004 A 
ENDROOT
BRANCH   5  12
HETATM   12  C8  UNK     1      20.187  -4.382  37.209  1.00  0.00     0.262 C 
HETATM   13  O4  UNK     1      21.123  -3.812  37.767  1.00  0.00    -0.267 OA
HETATM   14  N1  UNK     1      19.067  -3.813  36.617  1.00  0.00    -0.322 N 
HETATM   15  H5  UNK     1      18.386  -4.425  36.173  1.00  0.00     0.169 HD
BRANCH  14  16
HETATM   16  C11 UNK     1      18.747  -2.437  36.522  1.00  0.00     0.052 A 
HETATM   17  C12 UNK     1      19.184  -1.675  35.451  1.00  0.00     0.039 A 
HETATM   18 Br1  UNK     1      20.234  -2.401  34.046  1.00  0.00    -0.049 Br
HETATM   19  C14 UNK     1      18.849  -0.321  35.392  1.00  0.00     0.040 A 
HETATM   20  C16 UNK     1      18.081   0.251  36.406  1.00  0.00     0.012 A 
HETATM   21 Br2  UNK     1      17.626   2.084  36.328  1.00  0.00    -0.051 Br
HETATM   22  C15 UNK     1      17.648  -0.529  37.479  1.00  0.00     0.021 A 
HETATM   23  C13 UNK     1      17.983  -1.881  37.537  1.00  0.00     0.032 A 
ENDBRANCH  14  16
ENDBRANCH   5  12
BRANCH   7  24
HETATM   24  O2  UNK     1      20.278 -10.696  35.824  1.00  0.00    -0.353 OA
HETATM   25  C17 UNK     1      21.604 -11.060  35.443  1.00  0.00     0.210 C 
ENDBRANCH   7  24
TORSDOF 3
ENDMDL
MODEL 6
REMARK VINA RESULT:      -8.3      7.196     11.787
REMARK  3 active torsions:
REMARK  status: ('A' for Active; 'I' for Inactive)
REMARK    1  A    between atoms: C5_12  and  O2_4 
REMARK    2  A    between atoms: C11_18  and  N1_7 
REMARK       I    between atoms: C8_15  and  N1_7 
REMARK    3  A    between atoms: C3_10  and  C8_15 
ROOT
HETATM    1  O1  UNK     1      18.205   1.696  32.162  1.00  0.00    -0.271 OA
HETATM    2  O3  UNK     1      18.110   3.354  30.591  1.00  0.00    -0.259 OA
HETATM    3  C1  UNK     1      18.346   2.281  34.517  1.00  0.00     0.002 A 
HETATM    4  C2  UNK     1      18.286   1.317  33.515  1.00  0.00     0.123 A 
HETATM    5  C3  UNK     1      18.248   4.041  32.855  1.00  0.00     0.108 A 
HETATM    6  C4  UNK     1      18.325   3.686  34.143  1.00  0.00     0.037 A 
HETATM    7  C5  UNK     1      18.302  -0.046  33.806  1.00  0.00     0.102 A 
HETATM    8  C6  UNK     1      18.425   1.865  35.848  1.00  0.00     0.014 A 
HETATM    9  C7  UNK     1      18.182   3.033  31.773  1.00  0.00     0.304 A 
HETATM   10  C9  UNK     1      18.381  -0.452  35.137  1.00  0.00     0.040 A 
HETATM   11  C10 UNK     1      18.443   0.501  36.155  1.00  0.00     0.004 A 
ENDROOT
BRANCH   5  12
HETATM   12  C8  UNK     1      18.232   5.482  32.579  1.00  0.00     0.262 C 
HETATM   13  O4  UNK     1      18.269   5.881  31.416  1.00  0.00    -0.267 OA
HETATM   14  N1  UNK     1      18.173   6.238  33.742  1.00  0.00    -0.322 N 
HETATM   15  H5  UNK     1      18.126   5.754  34.635  1.00  0.00     0.169 HD
BRANCH  14  16
HETATM   16  C11 UNK     1      18.144   7.650  33.854  1.00  0.00     0.052 A 
HETATM   17  C12 UNK     1      16.948   8.346  33.780  1.00  0.00     0.039 A 
HETATM   18 Br1  UNK     1      15.279   7.478  33.526  1.00  0.00    -0.049 Br
HETATM   19  C14 UNK     1      16.958   9.736  33.893  1.00  0.00     0.040 A 
HETATM   20  C16 UNK     1      18.164  10.412  34.079  1.00  0.00     0.012 A 
HETATM   21 Br2  UNK     1      18.180  12.296  34.233  1.00  0.00    -0.051 Br
HETATM   22  C15 UNK     1      19.361   9.697  34.151  1.00  0.00     0.021 A 
HETATM   23  C13 UNK     1      19.350   8.307  34.037  1.00  0.00     0.032 A 
ENDBRANCH  14  16
ENDBRANCH   5  12
BRANCH   7  24
HETATM   24  O2  UNK     1      18.244  -0.977  32.817  1.00  0.00    -0.353 OA
HETATM   25  C17 UNK     1      19.471  -1.594  32.431  1.00  0.00     0.210 C 
ENDBRANCH   7  24
TORSDOF 3
ENDMDL
MODEL 7
REMARK VINA RESULT:      -8.0      3.422      6.117
REMARK  3 active torsions:
REMARK  status: ('A' for Active; 'I' for Inactive)
REMARK    1  A    between atoms: C5_12  and  O2_4 
REMARK    2  A    between atoms: C11_18  and  N1_7 
REMARK       I    between atoms: C8_15  and  N1_7 
REMARK    3  A    between atoms: C3_10  and  C8_15 
ROOT
HETATM    1  O1  UNK     1      18.318   3.990  34.052  1.00  0.00    -0.271 OA
HETATM    2  O3  UNK     1      18.061   2.524  35.787  1.00  0.00    -0.259 OA
HETATM    3  C1  UNK     1      18.518   3.141  31.784  1.00  0.00     0.002 A 
HETATM    4  C2  UNK     1      18.476   4.211  32.671  1.00  0.00     0.123 A 
HETATM    5  C3  UNK     1      18.248   1.584  33.620  1.00  0.00     0.108 A 
HETATM    6  C4  UNK     1      18.398   1.789  32.306  1.00  0.00     0.037 A 
HETATM    7  C5  UNK     1      18.586   5.531  32.235  1.00  0.00     0.102 A 
HETATM    8  C6  UNK     1      18.675   3.401  30.420  1.00  0.00     0.014 A 
HETATM    9  C7  UNK     1      18.200   2.708  34.582  1.00  0.00     0.304 A 
HETATM   10  C9  UNK     1      18.742   5.781  30.873  1.00  0.00     0.040 A 
HETATM   11  C10 UNK     1      18.787   4.719  29.968  1.00  0.00     0.004 A 
ENDROOT
BRANCH   5  12
HETATM   12  C8  UNK     1      18.135   0.185  34.050  1.00  0.00     0.262 C 
HETATM   13  O4  UNK     1      17.197  -0.502  33.649  1.00  0.00    -0.267 OA
HETATM   14  N1  UNK     1      19.166  -0.186  34.902  1.00  0.00    -0.322 N 
HETATM   15  H5  UNK     1      19.885   0.499  35.124  1.00  0.00     0.169 HD
BRANCH  14  16
HETATM   16  C11 UNK     1      19.374  -1.449  35.507  1.00  0.00     0.052 A 
HETATM   17  C12 UNK     1      18.820  -1.748  36.741  1.00  0.00     0.039 A 
HETATM   18 Br1  UNK     1      17.755  -0.507  37.706  1.00  0.00    -0.049 Br
HETATM   19  C14 UNK     1      19.047  -3.003  37.307  1.00  0.00     0.040 A 
HETATM   20  C16 UNK     1      19.825  -3.942  36.631  1.00  0.00     0.012 A 
HETATM   21 Br2  UNK     1      20.134  -5.643  37.396  1.00  0.00    -0.051 Br
HETATM   22  C15 UNK     1      20.378  -3.627  35.389  1.00  0.00     0.021 A 
HETATM   23  C13 UNK     1      20.150  -2.372  34.824  1.00  0.00     0.032 A 
ENDBRANCH  14  16
ENDBRANCH   5  12
BRANCH   7  24
HETATM   24  O2  UNK     1      18.543   6.568  33.113  1.00  0.00    -0.353 OA
HETATM   25  C17 UNK     1      19.782   7.201  33.432  1.00  0.00     0.210 C 
ENDBRANCH   7  24
TORSDOF 3
ENDMDL
MODEL 8
REMARK VINA RESULT:      -8.0      7.884     10.256
REMARK  3 active torsions:
REMARK  status: ('A' for Active; 'I' for Inactive)
REMARK    1  A    between atoms: C5_12  and  O2_4 
REMARK    2  A    between atoms: C11_18  and  N1_7 
REMARK       I    between atoms: C8_15  and  N1_7 
REMARK    3  A    between atoms: C3_10  and  C8_15 
ROOT
HETATM    1  O1  UNK     1      17.881   8.105  33.727  1.00  0.00    -0.271 OA
HETATM    2  O3  UNK     1      19.902   7.087  33.403  1.00  0.00    -0.259 OA
HETATM    3  C1  UNK     1      15.899   7.206  32.645  1.00  0.00     0.002 A 
HETATM    4  C2  UNK     1      16.498   8.153  33.470  1.00  0.00     0.123 A 
HETATM    5  C3  UNK     1      18.039   6.127  32.298  1.00  0.00     0.108 A 
HETATM    6  C4  UNK     1      16.725   6.167  32.051  1.00  0.00     0.037 A 
HETATM    7  C5  UNK     1      15.763   9.174  34.070  1.00  0.00     0.102 A 
HETATM    8  C6  UNK     1      14.524   7.288  32.415  1.00  0.00     0.014 A 
HETATM    9  C7  UNK     1      18.698   7.122  33.173  1.00  0.00     0.304 A 
HETATM   10  C9  UNK     1      14.392   9.247  33.836  1.00  0.00     0.040 A 
HETATM   11  C10 UNK     1      13.773   8.306  33.009  1.00  0.00     0.004 A 
ENDROOT
BRANCH   5  12
HETATM   12  C8  UNK     1      18.787   5.040  31.654  1.00  0.00     0.262 C 
HETATM   13  O4  UNK     1      19.844   5.288  31.074  1.00  0.00    -0.267 OA
HETATM   14  N1  UNK     1      18.157   3.812  31.799  1.00  0.00    -0.322 N 
HETATM   15  H5  UNK     1      17.290   3.769  32.330  1.00  0.00     0.169 HD
BRANCH  14  16
HETATM   16  C11 UNK     1      18.590   2.556  31.309  1.00  0.00     0.052 A 
HETATM   17  C12 UNK     1      18.692   1.459  32.149  1.00  0.00     0.039 A 
HETATM   18 Br1  UNK     1      18.268   1.550  33.997  1.00  0.00    -0.049 Br
HETATM   19  C14 UNK     1      19.124   0.238  31.630  1.00  0.00     0.040 A 
HETATM   20  C16 UNK     1      19.447   0.130  30.278  1.00  0.00     0.012 A 
HETATM   21 Br2  UNK     1      20.031  -1.524  29.573  1.00  0.00    -0.051 Br
HETATM   22  C15 UNK     1      19.339   1.244  29.444  1.00  0.00     0.021 A 
HETATM   23  C13 UNK     1      18.909   2.464  29.963  1.00  0.00     0.032 A 
ENDBRANCH  14  16
ENDBRANCH   5  12
BRANCH   7  24
HETATM   24  O2  UNK     1      16.362  10.093  34.874  1.00  0.00    -0.353 OA
HETATM   25  C17 UNK     1      16.459  11.427  34.377  1.00  0.00     0.210 C 
ENDBRANCH   7  24
TORSDOF 3
ENDMDL
MODEL 9
REMARK VINA RESULT:      -7.9     29.816     31.052
REMARK  3 active torsions:
REMARK  status: ('A' for Active; 'I' for Inactive)
REMARK    1  A    between atoms: C5_12  and  O2_4 
REMARK    2  A    between atoms: C11_18  and  N1_7 
REMARK       I    between atoms: C8_15  and  N1_7 
REMARK    3  A    between atoms: C3_10  and  C8_15 
ROOT
HETATM    1  O1  UNK     1      10.395   4.968   8.681  1.00  0.00    -0.271 OA
HETATM    2  O3  UNK     1      12.563   4.641   8.034  1.00  0.00    -0.259 OA
HETATM    3  C1  UNK     1       9.567   7.231   8.998  1.00  0.00     0.002 A 
HETATM    4  C2  UNK     1       9.355   5.856   9.015  1.00  0.00     0.123 A 
HETATM    5  C3  UNK     1      11.865   6.888   8.315  1.00  0.00     0.108 A 
HETATM    6  C4  UNK     1      10.880   7.737   8.632  1.00  0.00     0.037 A 
HETATM    7  C5  UNK     1       8.121   5.307   9.358  1.00  0.00     0.102 A 
HETATM    8  C6  UNK     1       8.509   8.079   9.335  1.00  0.00     0.014 A 
HETATM    9  C7  UNK     1      11.663   5.422   8.325  1.00  0.00     0.304 A 
HETATM   10  C9  UNK     1       7.071   6.161   9.692  1.00  0.00     0.040 A 
HETATM   11  C10 UNK     1       7.265   7.544   9.682  1.00  0.00     0.004 A 
ENDROOT
BRANCH   5  12
HETATM   12  C8  UNK     1      13.154   7.494   7.958  1.00  0.00     0.262 C 
HETATM   13  O4  UNK     1      13.673   7.229   6.875  1.00  0.00    -0.267 OA
HETATM   14  N1  UNK     1      13.633   8.331   8.956  1.00  0.00    -0.322 N 
HETATM   15  H5  UNK     1      13.070   8.463   9.793  1.00  0.00     0.169 HD
BRANCH  14  16
HETATM   16  C11 UNK     1      14.838   9.075   8.954  1.00  0.00     0.052 A 
HETATM   17  C12 UNK     1      15.959   8.620   9.630  1.00  0.00     0.039 A 
HETATM   18 Br1  UNK     1      15.969   6.988  10.599  1.00  0.00    -0.049 Br
HETATM   19  C14 UNK     1      17.128   9.381   9.606  1.00  0.00     0.040 A 
HETATM   20  C16 UNK     1      17.161  10.587   8.907  1.00  0.00     0.012 A 
HETATM   21 Br2  UNK     1      18.744  11.619   8.874  1.00  0.00    -0.051 Br
HETATM   22  C15 UNK     1      16.024  11.033   8.231  1.00  0.00     0.021 A 
HETATM   23  C13 UNK     1      14.855  10.273   8.255  1.00  0.00     0.032 A 
ENDBRANCH  14  16
ENDBRANCH   5  12
BRANCH   7  24
HETATM   24  O2  UNK     1       7.928   3.961   9.370  1.00  0.00    -0.353 OA
HETATM   25  C17 UNK     1       6.644   3.492   9.781  1.00  0.00     0.210 C 
ENDBRANCH   7  24
TORSDOF 3
ENDMDL
MODEL 10
REMARK VINA RESULT:      -7.8      7.780     12.697
REMARK  3 active torsions:
REMARK  status: ('A' for Active; 'I' for Inactive)
REMARK    1  A    between atoms: C5_12  and  O2_4 
REMARK    2  A    between atoms: C11_18  and  N1_7 
REMARK       I    between atoms: C8_15  and  N1_7 
REMARK    3  A    between atoms: C3_10  and  C8_15 
ROOT
HETATM    1  O1  UNK     1      18.504   2.725  32.899  1.00  0.00    -0.271 OA
HETATM    2  O3  UNK     1      18.039   4.606  34.110  1.00  0.00    -0.259 OA
HETATM    3  C1  UNK     1      18.660   2.864  30.478  1.00  0.00     0.002 A 
HETATM    4  C2  UNK     1      18.720   2.115  31.648  1.00  0.00     0.123 A 
HETATM    5  C3  UNK     1      18.165   4.860  31.757  1.00  0.00     0.108 A 
HETATM    6  C4  UNK     1      18.369   4.286  30.565  1.00  0.00     0.037 A 
HETATM    7  C5  UNK     1      18.993   0.748  31.633  1.00  0.00     0.102 A 
HETATM    8  C6  UNK     1      18.880   2.223  29.256  1.00  0.00     0.014 A 
HETATM    9  C7  UNK     1      18.225   4.084  33.016  1.00  0.00     0.304 A 
HETATM   10  C9  UNK     1      19.213   0.117  30.410  1.00  0.00     0.040 A 
HETATM   11  C10 UNK     1      19.155   0.853  29.224  1.00  0.00     0.004 A 
ENDROOT
BRANCH   5  12
HETATM   12  C8  UNK     1      17.879   6.300  31.743  1.00  0.00     0.262 C 
HETATM   13  O4  UNK     1      18.276   6.992  30.807  1.00  0.00    -0.267 OA
HETATM   14  N1  UNK     1      17.156   6.701  32.858  1.00  0.00    -0.322 N 
HETATM   15  H5  UNK     1      16.883   5.997  33.541  1.00  0.00     0.169 HD
BRANCH  14  16
HETATM   16  C11 UNK     1      16.710   8.007  33.174  1.00  0.00     0.052 A 
HETATM   17  C12 UNK     1      15.391   8.379  32.970  1.00  0.00     0.039 A 
HETATM   18 Br1  UNK     1      14.096   7.185  32.261  1.00  0.00    -0.049 Br
HETATM   19  C14 UNK     1      14.987   9.675  33.291  1.00  0.00     0.040 A 
HETATM   20  C16 UNK     1      15.909  10.583  33.813  1.00  0.00     0.012 A 
HETATM   21 Br2  UNK     1      15.365  12.340  34.250  1.00  0.00    -0.051 Br
HETATM   22  C15 UNK     1      17.235  10.194  34.013  1.00  0.00     0.021 A 
HETATM   23  C13 UNK     1      17.637   8.899  33.691  1.00  0.00     0.032 A 
ENDBRANCH  14  16
ENDBRANCH   5  12
BRANCH   7  24
HETATM   24  O2  UNK     1      19.049   0.028  32.785  1.00  0.00    -0.353 OA
HETATM   25  C17 UNK     1      18.986  -1.392  32.668  1.00  0.00     0.210 C 
ENDBRANCH   7  24
TORSDOF 3
ENDMDL
