MODEL 1
REMARK VINA RESULT:      -7.7      0.000      0.000
REMARK  2 active torsions:
REMARK  status: ('A' for Active; 'I' for Inactive)
REMARK    1  A    between atoms: C1_5  and  N1_4 
REMARK       I    between atoms: C6_10  and  N1_4 
REMARK    2  A    between atoms: C2_6  and  C6_10 
ROOT
HETATM    1  O1  UNK     1      18.850   1.267  31.785  1.00  0.00    -0.274 OA
HETATM    2  O3  UNK     1      17.639   2.070  33.547  1.00  0.00    -0.259 OA
HETATM    3  C2  UNK     1      18.102  -0.253  33.548  1.00  0.00     0.108 A 
HETATM    4  C3  UNK     1      19.388  -1.102  31.678  1.00  0.00    -0.001 A 
HETATM    5  C7  UNK     1      18.676  -1.294  32.933  1.00  0.00     0.037 A 
HETATM    6  C8  UNK     1      19.457   0.176  31.133  1.00  0.00     0.089 A 
HETATM    7  C9  UNK     1      18.164   1.114  32.986  1.00  0.00     0.304 A 
HETATM    8  C10 UNK     1      20.002  -2.159  31.001  1.00  0.00     0.014 A 
HETATM    9  C11 UNK     1      20.122   0.427  29.934  1.00  0.00     0.038 A 
HETATM   10  C12 UNK     1      20.673  -1.923  29.799  1.00  0.00     0.001 A 
HETATM   11  C13 UNK     1      20.733  -0.633  29.266  1.00  0.00     0.003 A 
ENDROOT
BRANCH   3  12
HETATM   12  C6  UNK     1      17.409  -0.547  34.808  1.00  0.00     0.258 C 
HETATM   13  O2  UNK     1      16.386  -1.228  34.822  1.00  0.00    -0.267 OA
HETATM   14  N1  UNK     1      18.030   0.017  35.908  1.00  0.00    -0.353 N 
HETATM   15  H2  UNK     1      18.917   0.500  35.794  1.00  0.00     0.163 HD
BRANCH  14  16
HETATM   16  C1  UNK     1      17.532  -0.131  37.257  1.00  0.00     0.076 C 
HETATM   17  C4  UNK     1      17.691   1.174  38.026  1.00  0.00     0.032 C 
HETATM   18  C5  UNK     1      18.241  -1.279  37.965  1.00  0.00     0.032 C 
ENDBRANCH  14  16
ENDBRANCH   3  12
TORSDOF 2
ENDMDL
MODEL 2
REMARK VINA RESULT:      -7.7      3.792      5.043
REMARK  2 active torsions:
REMARK  status: ('A' for Active; 'I' for Inactive)
REMARK    1  A    between atoms: C1_5  and  N1_4 
REMARK       I    between atoms: C6_10  and  N1_4 
REMARK    2  A    between atoms: C2_6  and  C6_10 
ROOT
HETATM    1  O1  UNK     1      19.084   1.315  28.713  1.00  0.00    -0.274 OA
HETATM    2  O3  UNK     1      18.282   3.453  28.795  1.00  0.00    -0.259 OA
HETATM    3  C2  UNK     1      18.719   2.402  30.873  1.00  0.00     0.108 A 
HETATM    4  C3  UNK     1      19.571   0.136  30.783  1.00  0.00    -0.001 A 
HETATM    5  C7  UNK     1      19.143   1.313  31.524  1.00  0.00     0.037 A 
HETATM    6  C8  UNK     1      19.531   0.166  29.393  1.00  0.00     0.089 A 
HETATM    7  C9  UNK     1      18.668   2.456  29.395  1.00  0.00     0.304 A 
HETATM    8  C10 UNK     1      20.020  -1.023  31.420  1.00  0.00     0.014 A 
HETATM    9  C11 UNK     1      19.927  -0.928  28.624  1.00  0.00     0.038 A 
HETATM   10  C12 UNK     1      20.421  -2.127  30.663  1.00  0.00     0.001 A 
HETATM   11  C13 UNK     1      20.375  -2.080  29.268  1.00  0.00     0.003 A 
ENDROOT
BRANCH   3  12
HETATM   12  C6  UNK     1      18.309   3.538  31.708  1.00  0.00     0.258 C 
HETATM   13  O2  UNK     1      17.627   3.366  32.716  1.00  0.00    -0.267 OA
HETATM   14  N1  UNK     1      18.768   4.751  31.229  1.00  0.00    -0.353 N 
HETATM   15  H2  UNK     1      19.391   4.774  30.427  1.00  0.00     0.163 HD
BRANCH  14  16
HETATM   16  C1  UNK     1      18.491   6.011  31.879  1.00  0.00     0.076 C 
HETATM   17  C4  UNK     1      17.818   6.973  30.908  1.00  0.00     0.032 C 
HETATM   18  C5  UNK     1      19.770   6.610  32.453  1.00  0.00     0.032 C 
ENDBRANCH  14  16
ENDBRANCH   3  12
TORSDOF 2
ENDMDL
MODEL 3
REMARK VINA RESULT:      -7.6      3.394      5.351
REMARK  2 active torsions:
REMARK  status: ('A' for Active; 'I' for Inactive)
REMARK    1  A    between atoms: C1_5  and  N1_4 
REMARK       I    between atoms: C6_10  and  N1_4 
REMARK    2  A    between atoms: C2_6  and  C6_10 
ROOT
HETATM    1  O1  UNK     1      18.900   0.182  32.417  1.00  0.00    -0.274 OA
HETATM    2  O3  UNK     1      17.980   2.265  32.602  1.00  0.00    -0.259 OA
HETATM    3  C2  UNK     1      18.968   1.722  30.518  1.00  0.00     0.108 A 
HETATM    4  C3  UNK     1      19.941  -0.488  30.324  1.00  0.00    -0.001 A 
HETATM    5  C7  UNK     1      19.611   0.817  29.772  1.00  0.00     0.037 A 
HETATM    6  C8  UNK     1      19.577  -0.774  31.635  1.00  0.00     0.089 A 
HETATM    7  C9  UNK     1      18.571   1.439  31.915  1.00  0.00     0.304 A 
HETATM    8  C10 UNK     1      20.612  -1.463  29.582  1.00  0.00     0.014 A 
HETATM    9  C11 UNK     1      19.864  -2.005  32.224  1.00  0.00     0.038 A 
HETATM   10  C12 UNK     1      20.906  -2.702  30.158  1.00  0.00     0.001 A 
HETATM   11  C13 UNK     1      20.532  -2.972  31.477  1.00  0.00     0.003 A 
ENDROOT
BRANCH   3  12
HETATM   12  C6  UNK     1      18.679   3.008  29.872  1.00  0.00     0.258 C 
HETATM   13  O2  UNK     1      18.144   3.053  28.766  1.00  0.00    -0.267 OA
HETATM   14  N1  UNK     1      19.071   4.093  30.634  1.00  0.00    -0.353 N 
HETATM   15  H2  UNK     1      19.436   3.946  31.571  1.00  0.00     0.163 HD
BRANCH  14  16
HETATM   16  C1  UNK     1      18.894   5.462  30.207  1.00  0.00     0.076 C 
HETATM   17  C4  UNK     1      20.232   6.070  29.805  1.00  0.00     0.032 C 
HETATM   18  C5  UNK     1      18.222   6.282  31.303  1.00  0.00     0.032 C 
ENDBRANCH  14  16
ENDBRANCH   3  12
TORSDOF 2
ENDMDL
MODEL 4
REMARK VINA RESULT:      -7.5      3.931      6.254
REMARK  2 active torsions:
REMARK  status: ('A' for Active; 'I' for Inactive)
REMARK    1  A    between atoms: C1_5  and  N1_4 
REMARK       I    between atoms: C6_10  and  N1_4 
REMARK    2  A    between atoms: C2_6  and  C6_10 
ROOT
HETATM    1  O1  UNK     1      19.626  -0.944  34.740  1.00  0.00    -0.274 OA
HETATM    2  O3  UNK     1      20.694  -2.801  33.948  1.00  0.00    -0.259 OA
HETATM    3  C2  UNK     1      19.703  -2.979  36.093  1.00  0.00     0.108 A 
HETATM    4  C3  UNK     1      18.569  -1.008  36.929  1.00  0.00    -0.001 A 
HETATM    5  C7  UNK     1      19.005  -2.389  37.070  1.00  0.00     0.037 A 
HETATM    6  C8  UNK     1      18.891  -0.317  35.766  1.00  0.00     0.089 A 
HETATM    7  C9  UNK     1      20.055  -2.263  34.847  1.00  0.00     0.304 A 
HETATM    8  C10 UNK     1      17.840  -0.352  37.924  1.00  0.00     0.014 A 
HETATM    9  C11 UNK     1      18.504   1.008  35.568  1.00  0.00     0.038 A 
HETATM   10  C12 UNK     1      17.444   0.976  37.739  1.00  0.00     0.001 A 
HETATM   11  C13 UNK     1      17.775   1.654  36.564  1.00  0.00     0.003 A 
ENDROOT
BRANCH   3  12
HETATM   12  C6  UNK     1      20.096  -4.374  36.328  1.00  0.00     0.258 C 
HETATM   13  O2  UNK     1      21.026  -4.648  37.084  1.00  0.00    -0.267 OA
HETATM   14  N1  UNK     1      19.322  -5.277  35.623  1.00  0.00    -0.353 N 
HETATM   15  H2  UNK     1      18.527  -4.948  35.083  1.00  0.00     0.163 HD
BRANCH  14  16
HETATM   16  C1  UNK     1      19.522  -6.707  35.690  1.00  0.00     0.076 C 
HETATM   17  C4  UNK     1      20.395  -7.176  34.532  1.00  0.00     0.032 C 
HETATM   18  C5  UNK     1      18.182  -7.434  35.700  1.00  0.00     0.032 C 
ENDBRANCH  14  16
ENDBRANCH   3  12
TORSDOF 2
ENDMDL
MODEL 5
REMARK VINA RESULT:      -7.4      3.270      5.001
REMARK  2 active torsions:
REMARK  status: ('A' for Active; 'I' for Inactive)
REMARK    1  A    between atoms: C1_5  and  N1_4 
REMARK       I    between atoms: C6_10  and  N1_4 
REMARK    2  A    between atoms: C2_6  and  C6_10 
ROOT
HETATM    1  O1  UNK     1      18.728   0.606  32.497  1.00  0.00    -0.274 OA
HETATM    2  O3  UNK     1      17.915   2.604  33.249  1.00  0.00    -0.259 OA
HETATM    3  C2  UNK     1      18.815   2.581  31.057  1.00  0.00     0.108 A 
HETATM    4  C3  UNK     1      19.675   0.460  30.262  1.00  0.00    -0.001 A 
HETATM    5  C7  UNK     1      19.392   1.876  30.077  1.00  0.00     0.037 A 
HETATM    6  C8  UNK     1      19.336  -0.141  31.469  1.00  0.00     0.089 A 
HETATM    7  C9  UNK     1      18.445   1.961  32.349  1.00  0.00     0.304 A 
HETATM    8  C10 UNK     1      20.277  -0.315  29.267  1.00  0.00     0.014 A 
HETATM    9  C11 UNK     1      19.580  -1.493  31.710  1.00  0.00     0.038 A 
HETATM   10  C12 UNK     1      20.528  -1.671  29.494  1.00  0.00     0.001 A 
HETATM   11  C13 UNK     1      20.180  -2.259  30.712  1.00  0.00     0.003 A 
ENDROOT
BRANCH   3  12
HETATM   12  C6  UNK     1      18.569   4.000  30.775  1.00  0.00     0.258 C 
HETATM   13  O2  UNK     1      18.647   4.439  29.630  1.00  0.00    -0.267 OA
HETATM   14  N1  UNK     1      18.259   4.728  31.910  1.00  0.00    -0.353 N 
HETATM   15  H2  UNK     1      18.146   4.251  32.800  1.00  0.00     0.163 HD
BRANCH  14  16
HETATM   16  C1  UNK     1      17.980   6.146  31.885  1.00  0.00     0.076 C 
HETATM   17  C4  UNK     1      19.086   6.916  32.595  1.00  0.00     0.032 C 
HETATM   18  C5  UNK     1      16.619   6.434  32.509  1.00  0.00     0.032 C 
ENDBRANCH  14  16
ENDBRANCH   3  12
TORSDOF 2
ENDMDL
MODEL 6
REMARK VINA RESULT:      -7.4      3.511      6.439
REMARK  2 active torsions:
REMARK  status: ('A' for Active; 'I' for Inactive)
REMARK    1  A    between atoms: C1_5  and  N1_4 
REMARK       I    between atoms: C6_10  and  N1_4 
REMARK    2  A    between atoms: C2_6  and  C6_10 
ROOT
HETATM    1  O1  UNK     1      18.068   3.310  33.478  1.00  0.00    -0.274 OA
HETATM    2  O3  UNK     1      18.098   1.044  33.198  1.00  0.00    -0.259 OA
HETATM    3  C2  UNK     1      18.495   2.358  31.267  1.00  0.00     0.108 A 
HETATM    4  C3  UNK     1      18.464   4.761  31.567  1.00  0.00    -0.001 A 
HETATM    5  C7  UNK     1      18.615   3.578  30.733  1.00  0.00     0.037 A 
HETATM    6  C8  UNK     1      18.193   4.598  32.922  1.00  0.00     0.089 A 
HETATM    7  C9  UNK     1      18.208   2.161  32.705  1.00  0.00     0.304 A 
HETATM    8  C10 UNK     1      18.580   6.055  31.053  1.00  0.00     0.014 A 
HETATM    9  C11 UNK     1      18.037   5.690  33.775  1.00  0.00     0.038 A 
HETATM   10  C12 UNK     1      18.427   7.159  31.897  1.00  0.00     0.001 A 
HETATM   11  C13 UNK     1      18.156   6.977  33.254  1.00  0.00     0.003 A 
ENDROOT
BRANCH   3  12
HETATM   12  C6  UNK     1      18.665   1.228  30.345  1.00  0.00     0.258 C 
HETATM   13  O2  UNK     1      18.028   1.168  29.296  1.00  0.00    -0.267 OA
HETATM   14  N1  UNK     1      19.584   0.298  30.797  1.00  0.00    -0.353 N 
HETATM   15  H2  UNK     1      20.112   0.482  31.645  1.00  0.00     0.163 HD
BRANCH  14  16
HETATM   16  C1  UNK     1      19.918  -0.901  30.064  1.00  0.00     0.076 C 
HETATM   17  C4  UNK     1      20.438  -1.975  31.012  1.00  0.00     0.032 C 
HETATM   18  C5  UNK     1      20.932  -0.593  28.969  1.00  0.00     0.032 C 
ENDBRANCH  14  16
ENDBRANCH   3  12
TORSDOF 2
ENDMDL
MODEL 7
REMARK VINA RESULT:      -7.3     24.113     26.730
REMARK  2 active torsions:
REMARK  status: ('A' for Active; 'I' for Inactive)
REMARK    1  A    between atoms: C1_5  and  N1_4 
REMARK       I    between atoms: C6_10  and  N1_4 
REMARK    2  A    between atoms: C2_6  and  C6_10 
ROOT
HETATM    1  O1  UNK     1      11.121   7.190   9.491  1.00  0.00    -0.274 OA
HETATM    2  O3  UNK     1      12.860   7.499  10.940  1.00  0.00    -0.259 OA
HETATM    3  C2  UNK     1      13.411   6.734   8.766  1.00  0.00     0.108 A 
HETATM    4  C3  UNK     1      11.565   6.409   7.231  1.00  0.00    -0.001 A 
HETATM    5  C7  UNK     1      12.984   6.376   7.549  1.00  0.00     0.037 A 
HETATM    6  C8  UNK     1      10.666   6.816   8.212  1.00  0.00     0.089 A 
HETATM    7  C9  UNK     1      12.472   7.170   9.823  1.00  0.00     0.304 A 
HETATM    8  C10 UNK     1      11.074   6.044   5.975  1.00  0.00     0.014 A 
HETATM    9  C11 UNK     1       9.293   6.869   7.972  1.00  0.00     0.038 A 
HETATM   10  C12 UNK     1       9.701   6.093   5.719  1.00  0.00     0.001 A 
HETATM   11  C13 UNK     1       8.813   6.505   6.715  1.00  0.00     0.003 A 
ENDROOT
BRANCH   3  12
HETATM   12  C6  UNK     1      14.860   6.668   8.990  1.00  0.00     0.258 C 
HETATM   13  O2  UNK     1      15.491   5.641   8.748  1.00  0.00    -0.267 OA
HETATM   14  N1  UNK     1      15.383   7.851   9.481  1.00  0.00    -0.353 N 
HETATM   15  H2  UNK     1      14.785   8.667   9.573  1.00  0.00     0.163 HD
BRANCH  14  16
HETATM   16  C1  UNK     1      16.785   8.028   9.782  1.00  0.00     0.076 C 
HETATM   17  C4  UNK     1      17.098   7.505  11.179  1.00  0.00     0.032 C 
HETATM   18  C5  UNK     1      17.181   9.493   9.640  1.00  0.00     0.032 C 
ENDBRANCH  14  16
ENDBRANCH   3  12
TORSDOF 2
ENDMDL
MODEL 8
REMARK VINA RESULT:      -7.2     15.511     17.904
REMARK  2 active torsions:
REMARK  status: ('A' for Active; 'I' for Inactive)
REMARK    1  A    between atoms: C1_5  and  N1_4 
REMARK       I    between atoms: C6_10  and  N1_4 
REMARK    2  A    between atoms: C2_6  and  C6_10 
ROOT
HETATM    1  O1  UNK     1      19.286   1.054  15.379  1.00  0.00    -0.274 OA
HETATM    2  O3  UNK     1      19.269  -0.548  13.751  1.00  0.00    -0.259 OA
HETATM    3  C2  UNK     1      18.902  -1.287  15.972  1.00  0.00     0.108 A 
HETATM    4  C3  UNK     1      18.919   0.415  17.696  1.00  0.00    -0.001 A 
HETATM    5  C7  UNK     1      18.788  -0.969  17.266  1.00  0.00     0.037 A 
HETATM    6  C8  UNK     1      19.166   1.395  16.740  1.00  0.00     0.089 A 
HETATM    7  C9  UNK     1      19.164  -0.261  14.938  1.00  0.00     0.304 A 
HETATM    8  C10 UNK     1      18.808   0.793  19.037  1.00  0.00     0.014 A 
HETATM    9  C11 UNK     1      19.303   2.739  17.086  1.00  0.00     0.038 A 
HETATM   10  C12 UNK     1      18.942   2.136  19.398  1.00  0.00     0.001 A 
HETATM   11  C13 UNK     1      19.189   3.107  18.425  1.00  0.00     0.003 A 
ENDROOT
BRANCH   3  12
HETATM   12  C6  UNK     1      18.753  -2.708  15.638  1.00  0.00     0.258 C 
HETATM   13  O2  UNK     1      17.668  -3.274  15.754  1.00  0.00    -0.267 OA
HETATM   14  N1  UNK     1      19.932  -3.285  15.202  1.00  0.00    -0.353 N 
HETATM   15  H2  UNK     1      20.758  -2.708  15.070  1.00  0.00     0.163 HD
BRANCH  14  16
HETATM   16  C1  UNK     1      20.036  -4.675  14.819  1.00  0.00     0.076 C 
HETATM   17  C4  UNK     1      21.196  -5.341  15.547  1.00  0.00     0.032 C 
HETATM   18  C5  UNK     1      20.186  -4.802  13.307  1.00  0.00     0.032 C 
ENDBRANCH  14  16
ENDBRANCH   3  12
TORSDOF 2
ENDMDL
MODEL 9
REMARK VINA RESULT:      -7.1      3.205      4.713
REMARK  2 active torsions:
REMARK  status: ('A' for Active; 'I' for Inactive)
REMARK    1  A    between atoms: C1_5  and  N1_4 
REMARK       I    between atoms: C6_10  and  N1_4 
REMARK    2  A    between atoms: C2_6  and  C6_10 
ROOT
HETATM    1  O1  UNK     1      18.840   2.617  30.737  1.00  0.00    -0.274 OA
HETATM    2  O3  UNK     1      18.755   0.495  31.578  1.00  0.00    -0.259 OA
HETATM    3  C2  UNK     1      18.335   2.260  33.103  1.00  0.00     0.108 A 
HETATM    4  C3  UNK     1      18.425   4.509  32.208  1.00  0.00    -0.001 A 
HETATM    5  C7  UNK     1      18.227   3.577  33.308  1.00  0.00     0.037 A 
HETATM    6  C8  UNK     1      18.727   4.006  30.947  1.00  0.00     0.089 A 
HETATM    7  C9  UNK     1      18.655   1.703  31.770  1.00  0.00     0.304 A 
HETATM    8  C10 UNK     1      18.322   5.892  32.376  1.00  0.00     0.014 A 
HETATM    9  C11 UNK     1      18.928   4.844  29.851  1.00  0.00     0.038 A 
HETATM   10  C12 UNK     1      18.521   6.745  31.287  1.00  0.00     0.001 A 
HETATM   11  C13 UNK     1      18.823   6.222  30.027  1.00  0.00     0.003 A 
ENDROOT
BRANCH   3  12
HETATM   12  C6  UNK     1      18.117   1.401  34.274  1.00  0.00     0.258 C 
HETATM   13  O2  UNK     1      18.994   1.260  35.125  1.00  0.00    -0.267 OA
HETATM   14  N1  UNK     1      16.867   0.811  34.283  1.00  0.00    -0.353 N 
HETATM   15  H2  UNK     1      16.188   1.055  33.568  1.00  0.00     0.163 HD
BRANCH  14  16
HETATM   16  C1  UNK     1      16.423  -0.079  35.332  1.00  0.00     0.076 C 
HETATM   17  C4  UNK     1      15.919  -1.389  34.739  1.00  0.00     0.032 C 
HETATM   18  C5  UNK     1      15.349   0.591  36.182  1.00  0.00     0.032 C 
ENDBRANCH  14  16
ENDBRANCH   3  12
TORSDOF 2
ENDMDL
MODEL 10
REMARK VINA RESULT:      -6.9      3.813      6.088
REMARK  2 active torsions:
REMARK  status: ('A' for Active; 'I' for Inactive)
REMARK    1  A    between atoms: C1_5  and  N1_4 
REMARK       I    between atoms: C6_10  and  N1_4 
REMARK    2  A    between atoms: C2_6  and  C6_10 
ROOT
HETATM    1  O1  UNK     1      19.670  -1.115  34.702  1.00  0.00    -0.274 OA
HETATM    2  O3  UNK     1      20.785  -2.965  33.960  1.00  0.00    -0.259 OA
HETATM    3  C2  UNK     1      19.743  -3.133  36.081  1.00  0.00     0.108 A 
HETATM    4  C3  UNK     1      18.560  -1.169  36.865  1.00  0.00    -0.001 A 
HETATM    5  C7  UNK     1      19.013  -2.542  37.034  1.00  0.00     0.037 A 
HETATM    6  C8  UNK     1      18.900  -0.488  35.701  1.00  0.00     0.089 A 
HETATM    7  C9  UNK     1      20.116  -2.427  34.836  1.00  0.00     0.304 A 
HETATM    8  C10 UNK     1      17.796  -0.513  37.833  1.00  0.00     0.014 A 
HETATM    9  C11 UNK     1      18.498   0.828  35.478  1.00  0.00     0.038 A 
HETATM   10  C12 UNK     1      17.385   0.806  37.622  1.00  0.00     0.001 A 
HETATM   11  C13 UNK     1      17.735   1.475  36.448  1.00  0.00     0.003 A 
ENDROOT
BRANCH   3  12
HETATM   12  C6  UNK     1      20.152  -4.518  36.344  1.00  0.00     0.258 C 
HETATM   13  O2  UNK     1      20.043  -5.383  35.477  1.00  0.00    -0.267 OA
HETATM   14  N1  UNK     1      20.643  -4.701  37.623  1.00  0.00    -0.353 N 
HETATM   15  H2  UNK     1      20.761  -3.901  38.238  1.00  0.00     0.163 HD
BRANCH  14  16
HETATM   16  C1  UNK     1      21.104  -5.980  38.115  1.00  0.00     0.076 C 
HETATM   17  C4  UNK     1      20.147  -6.519  39.170  1.00  0.00     0.032 C 
HETATM   18  C5  UNK     1      22.521  -5.861  38.665  1.00  0.00     0.032 C 
ENDBRANCH  14  16
ENDBRANCH   3  12
TORSDOF 2
ENDMDL
