MODEL 1
REMARK VINA RESULT:      -9.4      0.000      0.000
REMARK  2 active torsions:
REMARK  status: ('A' for Active; 'I' for Inactive)
REMARK    1  A    between atoms: C11_18  and  N2_7 
REMARK    2  A    between atoms: C2_9  and  C5_12 
ROOT
HETATM    1  O2  UNK     1      16.968  -3.927  15.656  1.00  0.00    -0.274 OA
HETATM    2  O3  UNK     1      16.187  -2.054  16.701  1.00  0.00    -0.259 OA
HETATM    3  C1  UNK     1      19.336  -4.138  15.155  1.00  0.00     0.001 A 
HETATM    4  C2  UNK     1      18.531  -2.146  16.293  1.00  0.00     0.093 A 
HETATM    5  C3  UNK     1      18.045  -4.652  15.112  1.00  0.00     0.089 A 
HETATM    6  C4  UNK     1      19.555  -2.842  15.774  1.00  0.00     0.036 A 
HETATM    7  C8  UNK     1      20.378  -4.888  14.604  1.00  0.00     0.050 A 
HETATM    8  C9  UNK     1      17.142  -2.678  16.247  1.00  0.00     0.303 A 
HETATM    9  C10 UNK     1      17.766  -5.890  14.535  1.00  0.00     0.041 A 
HETATM   10  C11 UNK     1      20.115  -6.130  14.022  1.00  0.00     0.103 A 
HETATM   11  C12 UNK     1      18.811  -6.630  13.987  1.00  0.00     0.039 A 
ENDROOT
BRANCH   4  12
HETATM   12  C5  UNK     1      18.784  -0.877  16.902  1.00  0.00     0.187 A 
HETATM   13  O1  UNK     1      18.942   0.247  16.139  1.00  0.00    -0.289 OA
HETATM   14  C6  UNK     1      19.163   1.238  17.053  1.00  0.00     0.106 A 
HETATM   15  C13 UNK     1      19.386   2.586  16.800  1.00  0.00     0.040 A 
HETATM   16  C7  UNK     1      19.127   0.666  18.315  1.00  0.00     0.093 A 
HETATM   17  C15 UNK     1      19.585   3.388  17.929  1.00  0.00     0.003 A 
HETATM   18  C16 UNK     1      19.557   2.850  19.222  1.00  0.00     0.002 A 
HETATM   19  C14 UNK     1      19.329   1.484  19.437  1.00  0.00     0.034 A 
HETATM   20  N1  UNK     1      18.885  -0.682  18.205  1.00  0.00    -0.221 NA
ENDBRANCH   4  12
BRANCH  10  21
HETATM   21  N2  UNK     1      21.177  -6.888  13.463  1.00  0.00    -0.116 N 
HETATM   22  O4  UNK     1      21.352  -6.866  12.220  1.00  0.00    -0.532 OA
HETATM   23  O5  UNK     1      21.912  -7.560  14.225  1.00  0.00    -0.532 OA
ENDBRANCH  10  21
TORSDOF 2
ENDMDL
MODEL 2
REMARK VINA RESULT:      -9.3      2.344      7.977
REMARK  2 active torsions:
REMARK  status: ('A' for Active; 'I' for Inactive)
REMARK    1  A    between atoms: C11_18  and  N2_7 
REMARK    2  A    between atoms: C2_9  and  C5_12 
ROOT
HETATM    1  O2  UNK     1      19.300   0.870  14.998  1.00  0.00    -0.274 OA
HETATM    2  O3  UNK     1      19.293  -0.645  13.292  1.00  0.00    -0.259 OA
HETATM    3  C1  UNK     1      18.939   0.127  17.283  1.00  0.00     0.001 A 
HETATM    4  C2  UNK     1      18.953  -1.509  15.485  1.00  0.00     0.093 A 
HETATM    5  C3  UNK     1      19.172   1.151  16.372  1.00  0.00     0.089 A 
HETATM    6  C4  UNK     1      18.833  -1.237  16.794  1.00  0.00     0.036 A 
HETATM    7  C8  UNK     1      18.817   0.445  18.638  1.00  0.00     0.050 A 
HETATM    8  C9  UNK     1      19.194  -0.424  14.495  1.00  0.00     0.303 A 
HETATM    9  C10 UNK     1      19.286   2.480  16.775  1.00  0.00     0.041 A 
HETATM   10  C11 UNK     1      18.929   1.773  19.057  1.00  0.00     0.103 A 
HETATM   11  C12 UNK     1      19.163   2.789  18.127  1.00  0.00     0.039 A 
ENDROOT
BRANCH   4  12
HETATM   12  C5  UNK     1      18.852  -2.864  15.039  1.00  0.00     0.187 A 
HETATM   13  O1  UNK     1      19.953  -3.536  14.583  1.00  0.00    -0.289 OA
HETATM   14  C6  UNK     1      19.473  -4.772  14.254  1.00  0.00     0.106 A 
HETATM   15  C13 UNK     1      20.187  -5.846  13.738  1.00  0.00     0.040 A 
HETATM   16  C7  UNK     1      18.114  -4.785  14.527  1.00  0.00     0.093 A 
HETATM   17  C15 UNK     1      19.443  -7.005  13.490  1.00  0.00     0.003 A 
HETATM   18  C16 UNK     1      18.068  -7.059  13.751  1.00  0.00     0.002 A 
HETATM   19  C14 UNK     1      17.382  -5.954  14.273  1.00  0.00     0.034 A 
HETATM   20  N1  UNK     1      17.731  -3.564  15.027  1.00  0.00    -0.221 NA
ENDBRANCH   4  12
BRANCH  10  21
HETATM   21  N2  UNK     1      18.804   2.092  20.435  1.00  0.00    -0.116 N 
HETATM   22  O4  UNK     1      17.674   2.017  20.977  1.00  0.00    -0.532 OA
HETATM   23  O5  UNK     1      19.825   2.440  21.074  1.00  0.00    -0.532 OA
ENDBRANCH  10  21
TORSDOF 2
ENDMDL
MODEL 3
REMARK VINA RESULT:      -9.0     13.856     16.015
REMARK  2 active torsions:
REMARK  status: ('A' for Active; 'I' for Inactive)
REMARK    1  A    between atoms: C11_18  and  N2_7 
REMARK    2  A    between atoms: C2_9  and  C5_12 
ROOT
HETATM    1  O2  UNK     1      18.966   1.326  28.658  1.00  0.00    -0.274 OA
HETATM    2  O3  UNK     1      18.220   3.478  28.520  1.00  0.00    -0.259 OA
HETATM    3  C1  UNK     1      19.654   0.416  30.804  1.00  0.00     0.001 A 
HETATM    4  C2  UNK     1      18.837   2.703  30.685  1.00  0.00     0.093 A 
HETATM    5  C3  UNK     1      19.470   0.264  29.434  1.00  0.00     0.089 A 
HETATM    6  C4  UNK     1      19.316   1.687  31.421  1.00  0.00     0.036 A 
HETATM    7  C8  UNK     1      20.156  -0.660  31.539  1.00  0.00     0.050 A 
HETATM    8  C9  UNK     1      18.642   2.560  29.216  1.00  0.00     0.303 A 
HETATM    9  C10 UNK     1      19.772  -0.929  28.780  1.00  0.00     0.041 A 
HETATM   10  C11 UNK     1      20.464  -1.863  30.898  1.00  0.00     0.103 A 
HETATM   11  C12 UNK     1      20.273  -1.997  29.521  1.00  0.00     0.039 A 
ENDROOT
BRANCH   4  12
HETATM   12  C5  UNK     1      18.506   3.938  31.326  1.00  0.00     0.187 A 
HETATM   13  O1  UNK     1      19.472   4.870  31.591  1.00  0.00    -0.289 OA
HETATM   14  C6  UNK     1      18.790   5.888  32.195  1.00  0.00     0.106 A 
HETATM   15  C13 UNK     1      19.308   7.088  32.667  1.00  0.00     0.040 A 
HETATM   16  C7  UNK     1      17.455   5.522  32.264  1.00  0.00     0.093 A 
HETATM   17  C15 UNK     1      18.381   7.961  33.247  1.00  0.00     0.003 A 
HETATM   18  C16 UNK     1      17.023   7.629  33.337  1.00  0.00     0.002 A 
HETATM   19  C14 UNK     1      16.538   6.408  32.849  1.00  0.00     0.034 A 
HETATM   20  N1  UNK     1      17.287   4.278  31.707  1.00  0.00    -0.221 NA
ENDBRANCH   4  12
BRANCH  10  21
HETATM   21  N2  UNK     1      20.974  -2.954  31.650  1.00  0.00    -0.116 N 
HETATM   22  O4  UNK     1      21.020  -2.863  32.901  1.00  0.00    -0.532 OA
HETATM   23  O5  UNK     1      21.366  -3.980  31.044  1.00  0.00    -0.532 OA
ENDBRANCH  10  21
TORSDOF 2
ENDMDL
MODEL 4
REMARK VINA RESULT:      -8.7      3.324      3.687
REMARK  2 active torsions:
REMARK  status: ('A' for Active; 'I' for Inactive)
REMARK    1  A    between atoms: C11_18  and  N2_7 
REMARK    2  A    between atoms: C2_9  and  C5_12 
ROOT
HETATM    1  O2  UNK     1      18.329  -3.400  13.399  1.00  0.00    -0.274 OA
HETATM    2  O3  UNK     1      17.539  -2.659  15.407  1.00  0.00    -0.259 OA
HETATM    3  C1  UNK     1      19.942  -2.066  12.163  1.00  0.00     0.001 A 
HETATM    4  C2  UNK     1      19.134  -1.271  14.314  1.00  0.00     0.093 A 
HETATM    5  C3  UNK     1      19.148  -3.203  12.270  1.00  0.00     0.089 A 
HETATM    6  C4  UNK     1      19.915  -1.088  13.237  1.00  0.00     0.036 A 
HETATM    7  C8  UNK     1      20.740  -1.907  11.028  1.00  0.00     0.050 A 
HETATM    8  C9  UNK     1      18.272  -2.477  14.440  1.00  0.00     0.303 A 
HETATM    9  C10 UNK     1      19.129  -4.181  11.277  1.00  0.00     0.041 A 
HETATM   10  C11 UNK     1      20.732  -2.879  10.024  1.00  0.00     0.103 A 
HETATM   11  C12 UNK     1      19.927  -4.014  10.149  1.00  0.00     0.039 A 
ENDROOT
BRANCH   4  12
HETATM   12  C5  UNK     1      19.138  -0.291  15.356  1.00  0.00     0.187 A 
HETATM   13  O1  UNK     1      18.931  -0.653  16.659  1.00  0.00    -0.289 OA
HETATM   14  C6  UNK     1      19.003   0.526  17.345  1.00  0.00     0.106 A 
HETATM   15  C13 UNK     1      18.861   0.718  18.713  1.00  0.00     0.040 A 
HETATM   16  C7  UNK     1      19.250   1.535  16.427  1.00  0.00     0.093 A 
HETATM   17  C15 UNK     1      18.983   2.040  19.155  1.00  0.00     0.003 A 
HETATM   18  C16 UNK     1      19.232   3.089  18.261  1.00  0.00     0.002 A 
HETATM   19  C14 UNK     1      19.370   2.855  16.886  1.00  0.00     0.034 A 
HETATM   20  N1  UNK     1      19.335   1.002  15.164  1.00  0.00    -0.221 NA
ENDBRANCH   4  12
BRANCH  10  21
HETATM   21  N2  UNK     1      21.545  -2.712   8.872  1.00  0.00    -0.116 N 
HETATM   22  O4  UNK     1      21.000  -2.424   7.780  1.00  0.00    -0.532 OA
HETATM   23  O5  UNK     1      22.786  -2.857   8.978  1.00  0.00    -0.532 OA
ENDBRANCH  10  21
TORSDOF 2
ENDMDL
MODEL 5
REMARK VINA RESULT:      -8.7      2.268      2.651
REMARK  2 active torsions:
REMARK  status: ('A' for Active; 'I' for Inactive)
REMARK    1  A    between atoms: C11_18  and  N2_7 
REMARK    2  A    between atoms: C2_9  and  C5_12 
ROOT
HETATM    1  O2  UNK     1      19.321  -2.637  13.317  1.00  0.00    -0.274 OA
HETATM    2  O3  UNK     1      19.928  -0.517  13.907  1.00  0.00    -0.259 OA
HETATM    3  C1  UNK     1      18.205  -4.073  14.929  1.00  0.00     0.001 A 
HETATM    4  C2  UNK     1      18.818  -1.810  15.571  1.00  0.00     0.093 A 
HETATM    5  C3  UNK     1      18.737  -3.871  13.659  1.00  0.00     0.089 A 
HETATM    6  C4  UNK     1      18.260  -2.987  15.893  1.00  0.00     0.036 A 
HETATM    7  C8  UNK     1      17.634  -5.311  15.231  1.00  0.00     0.050 A 
HETATM    8  C9  UNK     1      19.399  -1.580  14.220  1.00  0.00     0.303 A 
HETATM    9  C10 UNK     1      18.714  -4.869  12.687  1.00  0.00     0.041 A 
HETATM   10  C11 UNK     1      17.604  -6.322  14.266  1.00  0.00     0.103 A 
HETATM   11  C12 UNK     1      18.143  -6.101  12.997  1.00  0.00     0.039 A 
ENDROOT
BRANCH   4  12
HETATM   12  C5  UNK     1      18.848  -0.760  16.542  1.00  0.00     0.187 A 
HETATM   13  O1  UNK     1      19.095   0.533  16.170  1.00  0.00    -0.289 OA
HETATM   14  C6  UNK     1      19.045   1.230  17.344  1.00  0.00     0.106 A 
HETATM   15  C13 UNK     1      19.230   2.595  17.524  1.00  0.00     0.040 A 
HETATM   16  C7  UNK     1      18.771   0.328  18.360  1.00  0.00     0.093 A 
HETATM   17  C15 UNK     1      19.123   3.051  18.842  1.00  0.00     0.003 A 
HETATM   18  C16 UNK     1      18.849   2.173  19.899  1.00  0.00     0.002 A 
HETATM   19  C14 UNK     1      18.668   0.801  19.677  1.00  0.00     0.034 A 
HETATM   20  N1  UNK     1      18.647  -0.936  17.837  1.00  0.00    -0.221 NA
ENDBRANCH   4  12
BRANCH  10  21
HETATM   21  N2  UNK     1      17.022  -7.579  14.578  1.00  0.00    -0.116 N 
HETATM   22  O4  UNK     1      16.767  -7.851  15.777  1.00  0.00    -0.532 OA
HETATM   23  O5  UNK     1      16.780  -8.385  13.648  1.00  0.00    -0.532 OA
ENDBRANCH  10  21
TORSDOF 2
ENDMDL
MODEL 6
REMARK VINA RESULT:      -8.6     17.541     20.165
REMARK  2 active torsions:
REMARK  status: ('A' for Active; 'I' for Inactive)
REMARK    1  A    between atoms: C11_18  and  N2_7 
REMARK    2  A    between atoms: C2_9  and  C5_12 
ROOT
HETATM    1  O2  UNK     1      18.617  -1.012  35.487  1.00  0.00    -0.274 OA
HETATM    2  O3  UNK     1      18.636  -1.948  37.569  1.00  0.00    -0.259 OA
HETATM    3  C1  UNK     1      19.848  -2.061  33.674  1.00  0.00     0.001 A 
HETATM    4  C2  UNK     1      19.860  -3.091  35.876  1.00  0.00     0.093 A 
HETATM    5  C3  UNK     1      19.036  -1.035  34.143  1.00  0.00     0.089 A 
HETATM    6  C4  UNK     1      20.255  -3.110  34.594  1.00  0.00     0.036 A 
HETATM    7  C8  UNK     1      20.243  -2.049  32.334  1.00  0.00     0.050 A 
HETATM    8  C9  UNK     1      18.998  -1.995  36.397  1.00  0.00     0.303 A 
HETATM    9  C10 UNK     1      18.607  -0.000  33.313  1.00  0.00     0.041 A 
HETATM   10  C11 UNK     1      19.821  -1.019  31.489  1.00  0.00     0.103 A 
HETATM   11  C12 UNK     1      19.005   0.004  31.979  1.00  0.00     0.039 A 
ENDROOT
BRANCH   4  12
HETATM   12  C5  UNK     1      20.274  -4.143  36.752  1.00  0.00     0.187 A 
HETATM   13  O1  UNK     1      19.390  -5.107  37.156  1.00  0.00    -0.289 OA
HETATM   14  C6  UNK     1      20.133  -5.918  37.966  1.00  0.00     0.106 A 
HETATM   15  C13 UNK     1      19.708  -7.056  38.640  1.00  0.00     0.040 A 
HETATM   16  C7  UNK     1      21.421  -5.407  38.010  1.00  0.00     0.093 A 
HETATM   17  C15 UNK     1      20.683  -7.704  39.406  1.00  0.00     0.003 A 
HETATM   18  C16 UNK     1      21.996  -7.221  39.479  1.00  0.00     0.002 A 
HETATM   19  C14 UNK     1      22.386  -6.068  38.784  1.00  0.00     0.034 A 
HETATM   20  N1  UNK     1      21.497  -4.277  37.232  1.00  0.00    -0.221 NA
ENDBRANCH   4  12
BRANCH  10  21
HETATM   21  N2  UNK     1      20.225  -1.011  30.128  1.00  0.00    -0.116 N 
HETATM   22  O4  UNK     1      20.519   0.083  29.588  1.00  0.00    -0.532 OA
HETATM   23  O5  UNK     1      20.277  -2.097  29.503  1.00  0.00    -0.532 OA
ENDBRANCH  10  21
TORSDOF 2
ENDMDL
MODEL 7
REMARK VINA RESULT:      -8.5     17.482     20.293
REMARK  2 active torsions:
REMARK  status: ('A' for Active; 'I' for Inactive)
REMARK    1  A    between atoms: C11_18  and  N2_7 
REMARK    2  A    between atoms: C2_9  and  C5_12 
ROOT
HETATM    1  O2  UNK     1      18.332   3.507  31.467  1.00  0.00    -0.274 OA
HETATM    2  O3  UNK     1      18.359   1.257  31.845  1.00  0.00    -0.259 OA
HETATM    3  C1  UNK     1      18.258   5.051  33.342  1.00  0.00     0.001 A 
HETATM    4  C2  UNK     1      18.314   2.658  33.769  1.00  0.00     0.093 A 
HETATM    5  C3  UNK     1      18.289   4.821  31.971  1.00  0.00     0.089 A 
HETATM    6  C4  UNK     1      18.275   3.913  34.245  1.00  0.00     0.036 A 
HETATM    7  C8  UNK     1      18.216   6.369  33.804  1.00  0.00     0.050 A 
HETATM    8  C9  UNK     1      18.338   2.395  32.305  1.00  0.00     0.303 A 
HETATM    9  C10 UNK     1      18.277   5.868  31.051  1.00  0.00     0.041 A 
HETATM   10  C11 UNK     1      18.204   7.429  32.893  1.00  0.00     0.103 A 
HETATM   11  C12 UNK     1      18.235   7.178  31.519  1.00  0.00     0.039 A 
ENDROOT
BRANCH   4  12
HETATM   12  C5  UNK     1      18.337   1.561  34.687  1.00  0.00     0.187 A 
HETATM   13  O1  UNK     1      19.057   0.432  34.411  1.00  0.00    -0.289 OA
HETATM   14  C6  UNK     1      18.839  -0.372  35.493  1.00  0.00     0.106 A 
HETATM   15  C13 UNK     1      19.346  -1.646  35.715  1.00  0.00     0.040 A 
HETATM   16  C7  UNK     1      18.003   0.309  36.365  1.00  0.00     0.093 A 
HETATM   17  C15 UNK     1      18.961  -2.250  36.917  1.00  0.00     0.003 A 
HETATM   18  C16 UNK     1      18.117  -1.597  37.825  1.00  0.00     0.002 A 
HETATM   19  C14 UNK     1      17.626  -0.310  37.566  1.00  0.00     0.034 A 
HETATM   20  N1  UNK     1      17.691   1.540  35.840  1.00  0.00    -0.221 NA
ENDBRANCH   4  12
BRANCH  10  21
HETATM   21  N2  UNK     1      18.161   8.767  33.367  1.00  0.00    -0.116 N 
HETATM   22  O4  UNK     1      19.066   9.169  34.137  1.00  0.00    -0.532 OA
HETATM   23  O5  UNK     1      17.219   9.511  33.003  1.00  0.00    -0.532 OA
ENDBRANCH  10  21
TORSDOF 2
ENDMDL
MODEL 8
REMARK VINA RESULT:      -8.4     17.738     19.549
REMARK  2 active torsions:
REMARK  status: ('A' for Active; 'I' for Inactive)
REMARK    1  A    between atoms: C11_18  and  N2_7 
REMARK    2  A    between atoms: C2_9  and  C5_12 
ROOT
HETATM    1  O2  UNK     1      18.283   1.769  32.308  1.00  0.00    -0.274 OA
HETATM    2  O3  UNK     1      18.233   3.792  31.255  1.00  0.00    -0.259 OA
HETATM    3  C1  UNK     1      18.427   1.666  34.732  1.00  0.00     0.001 A 
HETATM    4  C2  UNK     1      18.348   3.833  33.633  1.00  0.00     0.093 A 
HETATM    5  C3  UNK     1      18.358   1.023  33.501  1.00  0.00     0.089 A 
HETATM    6  C4  UNK     1      18.418   3.119  34.767  1.00  0.00     0.036 A 
HETATM    7  C8  UNK     1      18.501   0.892  35.893  1.00  0.00     0.050 A 
HETATM    8  C9  UNK     1      18.282   3.161  32.306  1.00  0.00     0.303 A 
HETATM    9  C10 UNK     1      18.360  -0.366  33.397  1.00  0.00     0.041 A 
HETATM   10  C11 UNK     1      18.504  -0.502  35.805  1.00  0.00     0.103 A 
HETATM   11  C12 UNK     1      18.434  -1.130  34.559  1.00  0.00     0.039 A 
ENDROOT
BRANCH   4  12
HETATM   12  C5  UNK     1      18.333   5.262  33.704  1.00  0.00     0.187 A 
HETATM   13  O1  UNK     1      19.450   5.956  34.083  1.00  0.00    -0.289 OA
HETATM   14  C6  UNK     1      19.058   7.264  34.034  1.00  0.00     0.106 A 
HETATM   15  C13 UNK     1      19.821   8.386  34.329  1.00  0.00     0.040 A 
HETATM   16  C7  UNK     1      17.732   7.293  33.630  1.00  0.00     0.093 A 
HETATM   17  C15 UNK     1      19.166   9.615  34.194  1.00  0.00     0.003 A 
HETATM   18  C16 UNK     1      17.828   9.690  33.790  1.00  0.00     0.002 A 
HETATM   19  C14 UNK     1      17.089   8.534  33.501  1.00  0.00     0.034 A 
HETATM   20  N1  UNK     1      17.282   6.012  33.423  1.00  0.00    -0.221 NA
ENDBRANCH   4  12
BRANCH  10  21
HETATM   21  N2  UNK     1      18.579  -1.285  36.987  1.00  0.00    -0.116 N 
HETATM   22  O4  UNK     1      19.127  -2.413  36.936  1.00  0.00    -0.532 OA
HETATM   23  O5  UNK     1      18.096  -0.828  38.051  1.00  0.00    -0.532 OA
ENDBRANCH  10  21
TORSDOF 2
ENDMDL
MODEL 9
REMARK VINA RESULT:      -8.3     15.858     18.174
REMARK  2 active torsions:
REMARK  status: ('A' for Active; 'I' for Inactive)
REMARK    1  A    between atoms: C11_18  and  N2_7 
REMARK    2  A    between atoms: C2_9  and  C5_12 
ROOT
HETATM    1  O2  UNK     1      18.980   3.931  30.080  1.00  0.00    -0.274 OA
HETATM    2  O3  UNK     1      18.783   6.184  29.772  1.00  0.00    -0.259 OA
HETATM    3  C1  UNK     1      18.382   2.941  32.217  1.00  0.00     0.001 A 
HETATM    4  C2  UNK     1      18.139   5.339  31.903  1.00  0.00     0.093 A 
HETATM    5  C3  UNK     1      18.854   2.805  30.916  1.00  0.00     0.089 A 
HETATM    6  C4  UNK     1      18.018   4.263  32.697  1.00  0.00     0.036 A 
HETATM    7  C8  UNK     1      18.271   1.801  33.016  1.00  0.00     0.050 A 
HETATM    8  C9  UNK     1      18.650   5.213  30.512  1.00  0.00     0.303 A 
HETATM    9  C10 UNK     1      19.218   1.566  30.393  1.00  0.00     0.041 A 
HETATM   10  C11 UNK     1      18.632   0.551  32.506  1.00  0.00     0.103 A 
HETATM   11  C12 UNK     1      19.105   0.434  31.196  1.00  0.00     0.039 A 
ENDROOT
BRANCH   4  12
HETATM   12  C5  UNK     1      17.764   6.625  32.406  1.00  0.00     0.187 A 
HETATM   13  O1  UNK     1      18.700   7.472  32.933  1.00  0.00    -0.289 OA
HETATM   14  C6  UNK     1      17.980   8.574  33.299  1.00  0.00     0.106 A 
HETATM   15  C13 UNK     1      18.458   9.736  33.890  1.00  0.00     0.040 A 
HETATM   16  C7  UNK     1      16.653   8.339  32.975  1.00  0.00     0.093 A 
HETATM   17  C15 UNK     1      17.496  10.716  34.161  1.00  0.00     0.003 A 
HETATM   18  C16 UNK     1      16.145  10.519  33.851  1.00  0.00     0.002 A 
HETATM   19  C14 UNK     1      15.701   9.331  33.254  1.00  0.00     0.034 A 
HETATM   20  N1  UNK     1      16.528   7.095  32.406  1.00  0.00    -0.221 NA
ENDBRANCH   4  12
BRANCH  10  21
HETATM   21  N2  UNK     1      18.518  -0.606  33.321  1.00  0.00    -0.116 N 
HETATM   22  O4  UNK     1      17.412  -0.868  33.854  1.00  0.00    -0.532 OA
HETATM   23  O5  UNK     1      19.525  -1.334  33.489  1.00  0.00    -0.532 OA
ENDBRANCH  10  21
TORSDOF 2
ENDMDL
MODEL 10
REMARK VINA RESULT:      -8.2     14.156     17.188
REMARK  2 active torsions:
REMARK  status: ('A' for Active; 'I' for Inactive)
REMARK    1  A    between atoms: C11_18  and  N2_7 
REMARK    2  A    between atoms: C2_9  and  C5_12 
ROOT
HETATM    1  O2  UNK     1      18.537   1.241  33.603  1.00  0.00    -0.274 OA
HETATM    2  O3  UNK     1      17.873   2.903  35.020  1.00  0.00    -0.259 OA
HETATM    3  C1  UNK     1      18.922   1.731  31.255  1.00  0.00     0.001 A 
HETATM    4  C2  UNK     1      18.242   3.523  32.750  1.00  0.00     0.093 A 
HETATM    5  C3  UNK     1      18.892   0.823  32.306  1.00  0.00     0.089 A 
HETATM    6  C4  UNK     1      18.583   3.120  31.516  1.00  0.00     0.036 A 
HETATM    7  C8  UNK     1      19.280   1.278  29.983  1.00  0.00     0.050 A 
HETATM    8  C9  UNK     1      18.197   2.562  33.886  1.00  0.00     0.303 A 
HETATM    9  C10 UNK     1      19.208  -0.522  32.124  1.00  0.00     0.041 A 
HETATM   10  C11 UNK     1      19.599  -0.068  29.784  1.00  0.00     0.103 A 
HETATM   11  C12 UNK     1      19.563  -0.966  30.853  1.00  0.00     0.039 A 
ENDROOT
BRANCH   4  12
HETATM   12  C5  UNK     1      17.922   4.899  32.974  1.00  0.00     0.187 A 
HETATM   13  O1  UNK     1      16.806   5.459  32.415  1.00  0.00    -0.289 OA
HETATM   14  C6  UNK     1      16.838   6.756  32.844  1.00  0.00     0.106 A 
HETATM   15  C13 UNK     1      15.924   7.762  32.558  1.00  0.00     0.040 A 
HETATM   16  C7  UNK     1      17.964   6.913  33.636  1.00  0.00     0.093 A 
HETATM   17  C15 UNK     1      16.197   9.009  33.131  1.00  0.00     0.003 A 
HETATM   18  C16 UNK     1      17.325   9.210  33.938  1.00  0.00     0.002 A 
HETATM   19  C14 UNK     1      18.225   8.169  34.203  1.00  0.00     0.034 A 
HETATM   20  N1  UNK     1      18.646   5.723  33.712  1.00  0.00    -0.221 NA
ENDBRANCH   4  12
BRANCH  10  21
HETATM   21  N2  UNK     1      19.962  -0.525  28.489  1.00  0.00    -0.116 N 
HETATM   22  O4  UNK     1      21.161  -0.817  28.261  1.00  0.00    -0.532 OA
HETATM   23  O5  UNK     1      19.074  -0.624  27.609  1.00  0.00    -0.532 OA
ENDBRANCH  10  21
TORSDOF 2
ENDMDL
