MODEL 1
REMARK VINA RESULT:      -8.9      0.000      0.000
REMARK  4 active torsions:
REMARK  status: ('A' for Active; 'I' for Inactive)
REMARK    1  A    between atoms: C6_11  and  O2_2 
REMARK    2  A    between atoms: C5_10  and  O3_3 
REMARK    3  A    between atoms: C12_17  and  O4_4 
REMARK    4  A    between atoms: C1_6  and  C2_7 
ROOT
HETATM    1  O1  UNK     1      19.618   1.240  31.233  1.00  0.00    -0.306 OA
HETATM    2  O5  UNK     1      18.799  -0.116  27.479  1.00  0.00    -0.284 OA
HETATM    3  C1  UNK     1      18.994   2.045  30.294  1.00  0.00     0.126 A 
HETATM    4  C3  UNK     1      19.693  -0.567  29.614  1.00  0.00     0.051 A 
HETATM    5  C4  UNK     1      19.948  -0.044  30.879  1.00  0.00     0.090 A 
HETATM    6  C5  UNK     1      18.701   1.664  29.037  1.00  0.00     0.152 A 
HETATM    7  C7  UNK     1      19.043   0.287  28.608  1.00  0.00     0.220 A 
HETATM    8  C10 UNK     1      20.052  -1.883  29.309  1.00  0.00     0.018 A 
HETATM    9  C11 UNK     1      20.566  -0.833  31.850  1.00  0.00     0.038 A 
HETATM   10  C14 UNK     1      20.669  -2.670  30.282  1.00  0.00     0.001 A 
HETATM   11  C15 UNK     1      20.926  -2.146  31.549  1.00  0.00     0.003 A 
ENDROOT
BRANCH   3  12
HETATM   12  C2  UNK     1      18.697   3.395  30.803  1.00  0.00     0.034 A 
HETATM   13  C6  UNK     1      18.017   3.580  32.009  1.00  0.00     0.084 A 
HETATM   14  C9  UNK     1      17.747   4.868  32.469  1.00  0.00     0.074 A 
HETATM   15  C12 UNK     1      18.155   5.975  31.725  1.00  0.00     0.070 A 
HETATM   16  C13 UNK     1      18.834   5.793  30.520  1.00  0.00     0.038 A 
HETATM   17  C8  UNK     1      19.104   4.505  30.059  1.00  0.00     0.020 A 
BRANCH  13  18
HETATM   18  O2  UNK     1      17.607   2.515  32.756  1.00  0.00    -0.355 OA
HETATM   19  C16 UNK     1      18.131   2.411  34.077  1.00  0.00     0.210 C 
ENDBRANCH  13  18
BRANCH  15  20
HETATM   20  O4  UNK     1      17.891   7.233  32.173  1.00  0.00    -0.356 OA
HETATM   21  C17 UNK     1      16.697   7.854  31.702  1.00  0.00     0.210 C 
ENDBRANCH  15  20
ENDBRANCH   3  12
BRANCH   6  22
HETATM   22  O3  UNK     1      18.108   2.502  28.117  1.00  0.00    -0.355 OA
HETATM   23  H8  UNK     1      18.611   2.491  27.288  1.00  0.00     0.218 HD
ENDBRANCH   6  22
TORSDOF 4
ENDMDL
MODEL 2
REMARK VINA RESULT:      -8.4     21.916     23.892
REMARK  4 active torsions:
REMARK  status: ('A' for Active; 'I' for Inactive)
REMARK    1  A    between atoms: C6_11  and  O2_2 
REMARK    2  A    between atoms: C5_10  and  O3_3 
REMARK    3  A    between atoms: C12_17  and  O4_4 
REMARK    4  A    between atoms: C1_6  and  C2_7 
ROOT
HETATM    1  O1  UNK     1      12.681   7.552   7.671  1.00  0.00    -0.306 OA
HETATM    2  O5  UNK     1       9.477   8.346  10.060  1.00  0.00    -0.284 OA
HETATM    3  C1  UNK     1      12.822   8.244   8.863  1.00  0.00     0.126 A 
HETATM    4  C3  UNK     1      10.297   7.356   8.083  1.00  0.00     0.051 A 
HETATM    5  C4  UNK     1      11.431   7.119   7.310  1.00  0.00     0.090 A 
HETATM    6  C5  UNK     1      11.808   8.546   9.695  1.00  0.00     0.152 A 
HETATM    7  C7  UNK     1      10.438   8.102   9.343  1.00  0.00     0.220 A 
HETATM    8  C10 UNK     1       9.047   6.891   7.664  1.00  0.00     0.018 A 
HETATM    9  C11 UNK     1      11.323   6.415   6.110  1.00  0.00     0.038 A 
HETATM   10  C14 UNK     1       8.943   6.187   6.464  1.00  0.00     0.001 A 
HETATM   11  C15 UNK     1      10.078   5.950   5.688  1.00  0.00     0.003 A 
ENDROOT
BRANCH   3  12
HETATM   12  C2  UNK     1      14.213   8.650   9.130  1.00  0.00     0.034 A 
HETATM   13  C6  UNK     1      15.039   7.896   9.967  1.00  0.00     0.084 A 
HETATM   14  C9  UNK     1      16.352   8.301  10.204  1.00  0.00     0.074 A 
HETATM   15  C12 UNK     1      16.842   9.462   9.607  1.00  0.00     0.070 A 
HETATM   16  C13 UNK     1      16.019  10.218   8.770  1.00  0.00     0.038 A 
HETATM   17  C8  UNK     1      14.706   9.812   8.533  1.00  0.00     0.020 A 
BRANCH  13  18
HETATM   18  O2  UNK     1      14.584   6.757  10.563  1.00  0.00    -0.355 OA
HETATM   19  C16 UNK     1      15.146   5.525  10.119  1.00  0.00     0.210 C 
ENDBRANCH  13  18
BRANCH  15  20
HETATM   20  O4  UNK     1      18.123   9.859   9.838  1.00  0.00    -0.356 OA
HETATM   21  C17 UNK     1      18.375  11.263   9.860  1.00  0.00     0.210 C 
ENDBRANCH  15  20
ENDBRANCH   3  12
BRANCH   6  22
HETATM   22  O3  UNK     1      11.978   9.265  10.858  1.00  0.00    -0.355 OA
HETATM   23  H8  UNK     1      11.306   9.962  10.917  1.00  0.00     0.218 HD
ENDBRANCH   6  22
TORSDOF 4
ENDMDL
MODEL 3
REMARK VINA RESULT:      -8.3      2.602      8.081
REMARK  4 active torsions:
REMARK  status: ('A' for Active; 'I' for Inactive)
REMARK    1  A    between atoms: C6_11  and  O2_2 
REMARK    2  A    between atoms: C5_10  and  O3_3 
REMARK    3  A    between atoms: C12_17  and  O4_4 
REMARK    4  A    between atoms: C1_6  and  C2_7 
ROOT
HETATM    1  O1  UNK     1      16.985   7.330  32.158  1.00  0.00    -0.306 OA
HETATM    2  O5  UNK     1      19.768   9.092  34.556  1.00  0.00    -0.284 OA
HETATM    3  C1  UNK     1      18.236   6.766  32.348  1.00  0.00     0.126 A 
HETATM    4  C3  UNK     1      17.593   9.149  33.645  1.00  0.00     0.051 A 
HETATM    5  C4  UNK     1      16.688   8.499  32.810  1.00  0.00     0.090 A 
HETATM    6  C5  UNK     1      19.203   7.297  33.119  1.00  0.00     0.152 A 
HETATM    7  C7  UNK     1      18.929   8.563  33.840  1.00  0.00     0.220 A 
HETATM    8  C10 UNK     1      17.236  10.340  34.283  1.00  0.00     0.018 A 
HETATM    9  C11 UNK     1      15.416   9.036  32.606  1.00  0.00     0.038 A 
HETATM   10  C14 UNK     1      15.963  10.874  34.078  1.00  0.00     0.001 A 
HETATM   11  C15 UNK     1      15.056  10.224  33.242  1.00  0.00     0.003 A 
ENDROOT
BRANCH   3  12
HETATM   12  C2  UNK     1      18.423   5.516  31.591  1.00  0.00     0.034 A 
HETATM   13  C6  UNK     1      18.200   4.271  32.183  1.00  0.00     0.084 A 
HETATM   14  C9  UNK     1      18.385   3.102  31.446  1.00  0.00     0.074 A 
HETATM   15  C12 UNK     1      18.794   3.174  30.115  1.00  0.00     0.070 A 
HETATM   16  C13 UNK     1      19.018   4.417  29.520  1.00  0.00     0.038 A 
HETATM   17  C8  UNK     1      18.833   5.586  30.257  1.00  0.00     0.020 A 
BRANCH  13  18
HETATM   18  O2  UNK     1      17.799   4.173  33.484  1.00  0.00    -0.355 OA
HETATM   19  C16 UNK     1      18.243   3.031  34.212  1.00  0.00     0.210 C 
ENDBRANCH  13  18
BRANCH  15  20
HETATM   20  O4  UNK     1      18.975   2.034  29.395  1.00  0.00    -0.356 OA
HETATM   21  C17 UNK     1      17.884   1.594  28.588  1.00  0.00     0.210 C 
ENDBRANCH  15  20
ENDBRANCH   3  12
BRANCH   6  22
HETATM   22  O3  UNK     1      20.449   6.726  33.261  1.00  0.00    -0.355 OA
HETATM   23  H8  UNK     1      20.971   7.228  33.907  1.00  0.00     0.218 HD
ENDBRANCH   6  22
TORSDOF 4
ENDMDL
MODEL 4
REMARK VINA RESULT:      -8.2     22.094     24.051
REMARK  4 active torsions:
REMARK  status: ('A' for Active; 'I' for Inactive)
REMARK    1  A    between atoms: C6_11  and  O2_2 
REMARK    2  A    between atoms: C5_10  and  O3_3 
REMARK    3  A    between atoms: C12_17  and  O4_4 
REMARK    4  A    between atoms: C1_6  and  C2_7 
ROOT
HETATM    1  O1  UNK     1      11.667   8.105   9.047  1.00  0.00    -0.306 OA
HETATM    2  O5  UNK     1      11.178   5.790   5.729  1.00  0.00    -0.284 OA
HETATM    3  C1  UNK     1      12.747   7.713   8.274  1.00  0.00     0.126 A 
HETATM    4  C3  UNK     1      10.176   6.920   7.541  1.00  0.00     0.051 A 
HETATM    5  C4  UNK     1      10.410   7.709   8.665  1.00  0.00     0.090 A 
HETATM    6  C5  UNK     1      12.659   6.945   7.172  1.00  0.00     0.152 A 
HETATM    7  C7  UNK     1      11.322   6.489   6.723  1.00  0.00     0.220 A 
HETATM    8  C10 UNK     1       8.874   6.546   7.200  1.00  0.00     0.018 A 
HETATM    9  C11 UNK     1       9.342   8.129   9.458  1.00  0.00     0.038 A 
HETATM   10  C14 UNK     1       7.807   6.968   7.994  1.00  0.00     0.001 A 
HETATM   11  C15 UNK     1       8.041   7.757   9.121  1.00  0.00     0.003 A 
ENDROOT
BRANCH   3  12
HETATM   12  C2  UNK     1      14.035   8.204   8.795  1.00  0.00     0.034 A 
HETATM   13  C6  UNK     1      14.750   7.481   9.752  1.00  0.00     0.084 A 
HETATM   14  C9  UNK     1      15.967   7.967  10.231  1.00  0.00     0.074 A 
HETATM   15  C12 UNK     1      16.470   9.177   9.755  1.00  0.00     0.070 A 
HETATM   16  C13 UNK     1      15.757   9.902   8.799  1.00  0.00     0.038 A 
HETATM   17  C8  UNK     1      14.541   9.416   8.320  1.00  0.00     0.020 A 
BRANCH  13  18
HETATM   18  O2  UNK     1      14.280   6.295  10.234  1.00  0.00    -0.355 OA
HETATM   19  C16 UNK     1      14.997   5.119   9.868  1.00  0.00     0.210 C 
ENDBRANCH  13  18
BRANCH  15  20
HETATM   20  O4  UNK     1      17.657   9.653  10.222  1.00  0.00    -0.356 OA
HETATM   21  C17 UNK     1      18.038  10.965   9.813  1.00  0.00     0.210 C 
ENDBRANCH  15  20
ENDBRANCH   3  12
BRANCH   6  22
HETATM   22  O3  UNK     1      13.758   6.545   6.444  1.00  0.00    -0.355 OA
HETATM   23  H8  UNK     1      13.755   6.979   5.576  1.00  0.00     0.218 HD
ENDBRANCH   6  22
TORSDOF 4
ENDMDL
MODEL 5
REMARK VINA RESULT:      -8.2      2.102      3.554
REMARK  4 active torsions:
REMARK  status: ('A' for Active; 'I' for Inactive)
REMARK    1  A    between atoms: C6_11  and  O2_2 
REMARK    2  A    between atoms: C5_10  and  O3_3 
REMARK    3  A    between atoms: C12_17  and  O4_4 
REMARK    4  A    between atoms: C1_6  and  C2_7 
ROOT
HETATM    1  O1  UNK     1      18.038   3.443  33.331  1.00  0.00    -0.306 OA
HETATM    2  O5  UNK     1      19.224   1.944  29.732  1.00  0.00    -0.284 OA
HETATM    3  C1  UNK     1      18.235   4.267  32.234  1.00  0.00     0.126 A 
HETATM    4  C3  UNK     1      18.639   1.520  31.978  1.00  0.00     0.051 A 
HETATM    5  C4  UNK     1      18.237   2.094  33.180  1.00  0.00     0.090 A 
HETATM    6  C5  UNK     1      18.632   3.840  31.021  1.00  0.00     0.152 A 
HETATM    7  C7  UNK     1      18.864   2.391  30.813  1.00  0.00     0.220 A 
HETATM    8  C10 UNK     1      18.827   0.139  31.883  1.00  0.00     0.018 A 
HETATM    9  C11 UNK     1      18.020   1.291  34.300  1.00  0.00     0.038 A 
HETATM   10  C14 UNK     1      18.609  -0.663  33.004  1.00  0.00     0.001 A 
HETATM   11  C15 UNK     1      18.206  -0.088  34.210  1.00  0.00     0.003 A 
ENDROOT
BRANCH   3  12
HETATM   12  C2  UNK     1      17.989   5.689  32.532  1.00  0.00     0.034 A 
HETATM   13  C6  UNK     1      18.979   6.488  33.108  1.00  0.00     0.084 A 
HETATM   14  C9  UNK     1      18.722   7.831  33.381  1.00  0.00     0.074 A 
HETATM   15  C12 UNK     1      17.475   8.378  33.080  1.00  0.00     0.070 A 
HETATM   16  C13 UNK     1      16.484   7.581  32.505  1.00  0.00     0.038 A 
HETATM   17  C8  UNK     1      16.741   6.238  32.232  1.00  0.00     0.020 A 
BRANCH  13  18
HETATM   18  O2  UNK     1      20.207   5.978  33.412  1.00  0.00    -0.355 OA
HETATM   19  C16 UNK     1      21.297   6.382  32.588  1.00  0.00     0.210 C 
ENDBRANCH  13  18
BRANCH  15  20
HETATM   20  O4  UNK     1      17.223   9.689  33.347  1.00  0.00    -0.356 OA
HETATM   21  C17 UNK     1      18.294  10.460  33.889  1.00  0.00     0.210 C 
ENDBRANCH  15  20
ENDBRANCH   3  12
BRANCH   6  22
HETATM   22  O3  UNK     1      18.851   4.691  29.959  1.00  0.00    -0.355 OA
HETATM   23  H8  UNK     1      18.732   5.611  30.243  1.00  0.00     0.218 HD
ENDBRANCH   6  22
TORSDOF 4
ENDMDL
MODEL 6
REMARK VINA RESULT:      -8.1      2.955      4.393
REMARK  4 active torsions:
REMARK  status: ('A' for Active; 'I' for Inactive)
REMARK    1  A    between atoms: C6_11  and  O2_2 
REMARK    2  A    between atoms: C5_10  and  O3_3 
REMARK    3  A    between atoms: C12_17  and  O4_4 
REMARK    4  A    between atoms: C1_6  and  C2_7 
ROOT
HETATM    1  O1  UNK     1      18.296   3.960  34.513  1.00  0.00    -0.306 OA
HETATM    2  O5  UNK     1      18.360   1.781  31.070  1.00  0.00    -0.284 OA
HETATM    3  C1  UNK     1      18.289   4.572  33.270  1.00  0.00     0.126 A 
HETATM    4  C3  UNK     1      18.330   1.788  33.428  1.00  0.00     0.051 A 
HETATM    5  C4  UNK     1      18.310   2.589  34.567  1.00  0.00     0.090 A 
HETATM    6  C5  UNK     1      18.317   3.915  32.096  1.00  0.00     0.152 A 
HETATM    7  C7  UNK     1      18.337   2.433  32.105  1.00  0.00     0.220 A 
HETATM    8  C10 UNK     1      18.345   0.396  33.544  1.00  0.00     0.018 A 
HETATM    9  C11 UNK     1      18.306   2.003  35.833  1.00  0.00     0.038 A 
HETATM   10  C14 UNK     1      18.340  -0.188  34.811  1.00  0.00     0.001 A 
HETATM   11  C15 UNK     1      18.321   0.613  35.953  1.00  0.00     0.003 A 
ENDROOT
BRANCH   3  12
HETATM   12  C2  UNK     1      18.275   6.043  33.355  1.00  0.00     0.034 A 
HETATM   13  C6  UNK     1      17.178   6.782  32.906  1.00  0.00     0.084 A 
HETATM   14  C9  UNK     1      17.188   8.174  32.996  1.00  0.00     0.074 A 
HETATM   15  C12 UNK     1      18.295   8.829  33.534  1.00  0.00     0.070 A 
HETATM   16  C13 UNK     1      19.392   8.093  33.984  1.00  0.00     0.038 A 
HETATM   17  C8  UNK     1      19.382   6.702  33.893  1.00  0.00     0.020 A 
BRANCH  13  18
HETATM   18  O2  UNK     1      16.084   6.165  32.375  1.00  0.00    -0.355 OA
HETATM   19  C16 UNK     1      14.968   6.991  32.053  1.00  0.00     0.210 C 
ENDBRANCH  13  18
BRANCH  15  20
HETATM   20  O4  UNK     1      18.306  10.188  33.622  1.00  0.00    -0.356 OA
HETATM   21  C17 UNK     1      17.135  10.815  34.141  1.00  0.00     0.210 C 
ENDBRANCH  15  20
ENDBRANCH   3  12
BRANCH   6  22
HETATM   22  O3  UNK     1      18.342   4.556  30.876  1.00  0.00    -0.355 OA
HETATM   23  H8  UNK     1      18.459   5.511  31.007  1.00  0.00     0.218 HD
ENDBRANCH   6  22
TORSDOF 4
ENDMDL
MODEL 7
REMARK VINA RESULT:      -8.1      2.201      8.053
REMARK  4 active torsions:
REMARK  status: ('A' for Active; 'I' for Inactive)
REMARK    1  A    between atoms: C6_11  and  O2_2 
REMARK    2  A    between atoms: C5_10  and  O3_3 
REMARK    3  A    between atoms: C12_17  and  O4_4 
REMARK    4  A    between atoms: C1_6  and  C2_7 
ROOT
HETATM    1  O1  UNK     1      16.660   6.219  33.068  1.00  0.00    -0.306 OA
HETATM    2  O5  UNK     1      19.567   8.721  34.444  1.00  0.00    -0.284 OA
HETATM    3  C1  UNK     1      17.995   5.851  33.055  1.00  0.00     0.126 A 
HETATM    4  C3  UNK     1      17.270   8.349  34.059  1.00  0.00     0.051 A 
HETATM    5  C4  UNK     1      16.325   7.450  33.572  1.00  0.00     0.090 A 
HETATM    6  C5  UNK     1      19.005   6.629  33.486  1.00  0.00     0.152 A 
HETATM    7  C7  UNK     1      18.692   7.970  34.035  1.00  0.00     0.220 A 
HETATM    8  C10 UNK     1      16.871   9.591  34.560  1.00  0.00     0.018 A 
HETATM    9  C11 UNK     1      14.971   7.787  33.581  1.00  0.00     0.038 A 
HETATM   10  C14 UNK     1      15.516   9.925  34.569  1.00  0.00     0.001 A 
HETATM   11  C15 UNK     1      14.568   9.026  34.080  1.00  0.00     0.003 A 
ENDROOT
BRANCH   3  12
HETATM   12  C2  UNK     1      18.215   4.509  32.489  1.00  0.00     0.034 A 
HETATM   13  C6  UNK     1      18.516   4.336  31.136  1.00  0.00     0.084 A 
HETATM   14  C9  UNK     1      18.720   3.055  30.623  1.00  0.00     0.074 A 
HETATM   15  C12 UNK     1      18.622   1.944  31.461  1.00  0.00     0.070 A 
HETATM   16  C13 UNK     1      18.321   2.115  32.813  1.00  0.00     0.038 A 
HETATM   17  C8  UNK     1      18.118   3.395  33.326  1.00  0.00     0.020 A 
BRANCH  13  18
HETATM   18  O2  UNK     1      18.617   5.405  30.295  1.00  0.00    -0.355 OA
HETATM   19  C16 UNK     1      19.932   5.849  29.969  1.00  0.00     0.210 C 
ENDBRANCH  13  18
BRANCH  15  20
HETATM   20  O4  UNK     1      18.820   0.694  30.961  1.00  0.00    -0.356 OA
HETATM   21  C17 UNK     1      20.167   0.304  30.700  1.00  0.00     0.210 C 
ENDBRANCH  15  20
ENDBRANCH   3  12
BRANCH   6  22
HETATM   22  O3  UNK     1      20.327   6.245  33.429  1.00  0.00    -0.355 OA
HETATM   23  H8  UNK     1      20.816   6.631  34.173  1.00  0.00     0.218 HD
ENDBRANCH   6  22
TORSDOF 4
ENDMDL
MODEL 8
REMARK VINA RESULT:      -8.1      6.536     10.477
REMARK  4 active torsions:
REMARK  status: ('A' for Active; 'I' for Inactive)
REMARK    1  A    between atoms: C6_11  and  O2_2 
REMARK    2  A    between atoms: C5_10  and  O3_3 
REMARK    3  A    between atoms: C12_17  and  O4_4 
REMARK    4  A    between atoms: C1_6  and  C2_7 
ROOT
HETATM    1  O1  UNK     1      19.008  -2.462  37.507  1.00  0.00    -0.306 OA
HETATM    2  O5  UNK     1      19.461  -1.267  33.637  1.00  0.00    -0.284 OA
HETATM    3  C1  UNK     1      19.656  -3.257  36.576  1.00  0.00     0.126 A 
HETATM    4  C3  UNK     1      18.651  -0.775  35.798  1.00  0.00     0.051 A 
HETATM    5  C4  UNK     1      18.527  -1.242  37.104  1.00  0.00     0.090 A 
HETATM    6  C5  UNK     1      19.834  -2.928  35.283  1.00  0.00     0.152 A 
HETATM    7  C7  UNK     1      19.327  -1.622  34.801  1.00  0.00     0.220 A 
HETATM    8  C10 UNK     1      18.141   0.476  35.443  1.00  0.00     0.018 A 
HETATM    9  C11 UNK     1      17.888  -0.460  38.067  1.00  0.00     0.038 A 
HETATM   10  C14 UNK     1      17.504   1.257  36.409  1.00  0.00     0.001 A 
HETATM   11  C15 UNK     1      17.377   0.790  37.717  1.00  0.00     0.003 A 
ENDROOT
BRANCH   3  12
HETATM   12  C2  UNK     1      20.121  -4.537  37.139  1.00  0.00     0.034 A 
HETATM   13  C6  UNK     1      19.337  -5.690  37.056  1.00  0.00     0.084 A 
HETATM   14  C9  UNK     1      19.798  -6.890  37.597  1.00  0.00     0.074 A 
HETATM   15  C12 UNK     1      21.044  -6.940  38.222  1.00  0.00     0.070 A 
HETATM   16  C13 UNK     1      21.829  -5.789  38.307  1.00  0.00     0.038 A 
HETATM   17  C8  UNK     1      21.367  -4.589  37.766  1.00  0.00     0.020 A 
BRANCH  13  18
HETATM   18  O2  UNK     1      18.115  -5.668  36.449  1.00  0.00    -0.355 OA
HETATM   19  C16 UNK     1      17.589  -6.917  36.011  1.00  0.00     0.210 C 
ENDBRANCH  13  18
BRANCH  15  20
HETATM   20  O4  UNK     1      21.494  -8.110  38.751  1.00  0.00    -0.356 OA
HETATM   21  C17 UNK     1      22.479  -8.022  39.780  1.00  0.00     0.210 C 
ENDBRANCH  15  20
ENDBRANCH   3  12
BRANCH   6  22
HETATM   22  O3  UNK     1      20.456  -3.758  34.375  1.00  0.00    -0.355 OA
HETATM   23  H8  UNK     1      20.105  -3.595  33.485  1.00  0.00     0.218 HD
ENDBRANCH   6  22
TORSDOF 4
ENDMDL
MODEL 9
REMARK VINA RESULT:      -8.0     21.864     24.012
REMARK  4 active torsions:
REMARK  status: ('A' for Active; 'I' for Inactive)
REMARK    1  A    between atoms: C6_11  and  O2_2 
REMARK    2  A    between atoms: C5_10  and  O3_3 
REMARK    3  A    between atoms: C12_17  and  O4_4 
REMARK    4  A    between atoms: C1_6  and  C2_7 
ROOT
HETATM    1  O1  UNK     1      14.235   9.234   8.237  1.00  0.00    -0.306 OA
HETATM    2  O5  UNK     1      16.726   7.691  11.069  1.00  0.00    -0.284 OA
HETATM    3  C1  UNK     1      13.950   8.038   8.876  1.00  0.00     0.126 A 
HETATM    4  C3  UNK     1      16.268   9.435   9.548  1.00  0.00     0.051 A 
HETATM    5  C4  UNK     1      15.378   9.907   8.587  1.00  0.00     0.090 A 
HETATM    6  C5  UNK     1      14.730   7.469   9.814  1.00  0.00     0.152 A 
HETATM    7  C7  UNK     1      15.978   8.158  10.221  1.00  0.00     0.220 A 
HETATM    8  C10 UNK     1      17.418  10.163   9.864  1.00  0.00     0.018 A 
HETATM    9  C11 UNK     1      15.631  11.113   7.933  1.00  0.00     0.038 A 
HETATM   10  C14 UNK     1      17.669  11.369   9.210  1.00  0.00     0.001 A 
HETATM   11  C15 UNK     1      16.778  11.843   8.246  1.00  0.00     0.003 A 
ENDROOT
BRANCH   3  12
HETATM   12  C2  UNK     1      12.698   7.420   8.406  1.00  0.00     0.034 A 
HETATM   13  C6  UNK     1      11.481   7.678   9.042  1.00  0.00     0.084 A 
HETATM   14  C9  UNK     1      10.309   7.081   8.579  1.00  0.00     0.074 A 
HETATM   15  C12 UNK     1      10.350   6.224   7.480  1.00  0.00     0.070 A 
HETATM   16  C13 UNK     1      11.565   5.964   6.843  1.00  0.00     0.038 A 
HETATM   17  C8  UNK     1      12.737   6.561   7.306  1.00  0.00     0.020 A 
BRANCH  13  18
HETATM   18  O2  UNK     1      11.413   8.513  10.119  1.00  0.00    -0.355 OA
HETATM   19  C16 UNK     1      10.736   9.753   9.935  1.00  0.00     0.210 C 
ENDBRANCH  13  18
BRANCH  15  20
HETATM   20  O4  UNK     1       9.207   5.640   7.027  1.00  0.00    -0.356 OA
HETATM   21  C17 UNK     1       8.056   5.730   7.864  1.00  0.00     0.210 C 
ENDBRANCH  15  20
ENDBRANCH   3  12
BRANCH   6  22
HETATM   22  O3  UNK     1      14.433   6.261  10.407  1.00  0.00    -0.355 OA
HETATM   23  H8  UNK     1      13.474   6.184  10.537  1.00  0.00     0.218 HD
ENDBRANCH   6  22
TORSDOF 4
ENDMDL
MODEL 10
REMARK VINA RESULT:      -7.9      2.253      4.132
REMARK  4 active torsions:
REMARK  status: ('A' for Active; 'I' for Inactive)
REMARK    1  A    between atoms: C6_11  and  O2_2 
REMARK    2  A    between atoms: C5_10  and  O3_3 
REMARK    3  A    between atoms: C12_17  and  O4_4 
REMARK    4  A    between atoms: C1_6  and  C2_7 
ROOT
HETATM    1  O1  UNK     1      18.307   4.015  31.135  1.00  0.00    -0.306 OA
HETATM    2  O5  UNK     1      18.690   1.219  34.075  1.00  0.00    -0.284 OA
HETATM    3  C1  UNK     1      18.172   4.349  32.472  1.00  0.00     0.126 A 
HETATM    4  C3  UNK     1      18.736   1.711  31.768  1.00  0.00     0.051 A 
HETATM    5  C4  UNK     1      18.590   2.712  30.811  1.00  0.00     0.090 A 
HETATM    6  C5  UNK     1      18.279   3.477  33.492  1.00  0.00     0.152 A 
HETATM    7  C7  UNK     1      18.580   2.057  33.190  1.00  0.00     0.220 A 
HETATM    8  C10 UNK     1      19.024   0.400  31.380  1.00  0.00     0.018 A 
HETATM    9  C11 UNK     1      18.731   2.409  29.457  1.00  0.00     0.038 A 
HETATM   10  C14 UNK     1      19.165   0.099  30.025  1.00  0.00     0.001 A 
HETATM   11  C15 UNK     1      19.018   1.101  29.065  1.00  0.00     0.003 A 
ENDROOT
BRANCH   3  12
HETATM   12  C2  UNK     1      17.868   5.776  32.679  1.00  0.00     0.034 A 
HETATM   13  C6  UNK     1      18.807   6.640  33.248  1.00  0.00     0.084 A 
HETATM   14  C9  UNK     1      18.496   7.987  33.434  1.00  0.00     0.074 A 
HETATM   15  C12 UNK     1      17.245   8.473  33.053  1.00  0.00     0.070 A 
HETATM   16  C13 UNK     1      16.305   7.611  32.486  1.00  0.00     0.038 A 
HETATM   17  C8  UNK     1      16.616   6.265  32.299  1.00  0.00     0.020 A 
BRANCH  13  18
HETATM   18  O2  UNK     1      20.037   6.190  33.628  1.00  0.00    -0.355 OA
HETATM   19  C16 UNK     1      21.127   6.472  32.755  1.00  0.00     0.210 C 
ENDBRANCH  13  18
BRANCH  15  20
HETATM   20  O4  UNK     1      16.940   9.786  33.235  1.00  0.00    -0.356 OA
HETATM   21  C17 UNK     1      15.605  10.096  33.630  1.00  0.00     0.210 C 
ENDBRANCH  15  20
ENDBRANCH   3  12
BRANCH   6  22
HETATM   22  O3  UNK     1      18.106   3.837  34.811  1.00  0.00    -0.355 OA
HETATM   23  H8  UNK     1      18.616   4.641  35.003  1.00  0.00     0.218 HD
ENDBRANCH   6  22
TORSDOF 4
ENDMDL
