MODEL 1
REMARK VINA RESULT:      -9.3      0.000      0.000
REMARK  1 active torsions:
REMARK  status: ('A' for Active; 'I' for Inactive)
REMARK    1  A    between atoms: C4_8  and  C8_12 
ROOT
HETATM    1  O1  UNK     1      19.254  -1.723  32.825  1.00  0.00    -0.274 OA
HETATM    2  O2  UNK     1      17.561   1.367  35.228  1.00  0.00    -0.267 OA
HETATM    3  O3  UNK     1      18.330  -1.129  34.805  1.00  0.00    -0.259 OA
HETATM    4  N1  UNK     1      17.842   2.925  33.583  1.00  0.00    -0.322 N 
HETATM    5  C1  UNK     1      18.963   0.965  31.944  1.00  0.00     0.001 A 
HETATM    6  C2  UNK     1      19.564  -0.069  31.068  1.00  0.00     0.009 A 
HETATM    7  C3  UNK     1      18.556   0.603  33.183  1.00  0.00     0.118 A 
HETATM    8  C4  UNK     1      18.254   3.282  32.325  1.00  0.00     0.046 A 
HETATM    9  C5  UNK     1      18.792   2.355  31.518  1.00  0.00     0.044 A 
HETATM   10  C6  UNK     1      19.686  -1.373  31.538  1.00  0.00     0.090 A 
HETATM   11  C7  UNK     1      17.944   1.649  34.093  1.00  0.00     0.263 A 
HETATM   12  C9  UNK     1      18.694  -0.795  33.683  1.00  0.00     0.305 A 
HETATM   13  C10 UNK     1      20.031   0.180  29.766  1.00  0.00     0.015 A 
HETATM   14  C11 UNK     1      20.240  -2.404  30.774  1.00  0.00     0.038 A 
HETATM   15  C12 UNK     1      20.590  -0.840  28.987  1.00  0.00     0.001 A 
HETATM   16  C13 UNK     1      20.694  -2.133  29.490  1.00  0.00     0.003 A 
HETATM   17  H2  UNK     1      17.434   3.646  34.172  1.00  0.00     0.169 HD
ENDROOT
BRANCH   8  18
HETATM   18  C8  UNK     1      18.074   4.682  31.897  1.00  0.00    -0.009 A 
HETATM   19  C14 UNK     1      17.246   5.538  32.627  1.00  0.00     0.013 A 
HETATM   20  C16 UNK     1      17.075   6.862  32.223  1.00  0.00     0.001 A 
HETATM   21  C18 UNK     1      17.733   7.334  31.087  1.00  0.00     0.000 A 
HETATM   22  C17 UNK     1      18.562   6.482  30.356  1.00  0.00     0.001 A 
HETATM   23  C15 UNK     1      18.732   5.159  30.761  1.00  0.00     0.013 A 
ENDBRANCH   8  18
TORSDOF 1
ENDMDL
MODEL 2
REMARK VINA RESULT:      -9.3      2.598      6.790
REMARK  1 active torsions:
REMARK  status: ('A' for Active; 'I' for Inactive)
REMARK    1  A    between atoms: C4_8  and  C8_12 
ROOT
HETATM    1  O1  UNK     1      18.567   4.397  30.306  1.00  0.00    -0.274 OA
HETATM    2  O2  UNK     1      18.962   0.185  30.844  1.00  0.00    -0.267 OA
HETATM    3  O3  UNK     1      18.946   2.375  29.360  1.00  0.00    -0.259 OA
HETATM    4  N1  UNK     1      18.597   0.346  33.092  1.00  0.00    -0.322 N 
HETATM    5  C1  UNK     1      18.326   3.110  32.831  1.00  0.00     0.001 A 
HETATM    6  C2  UNK     1      18.185   4.581  32.702  1.00  0.00     0.009 A 
HETATM    7  C3  UNK     1      18.578   2.386  31.715  1.00  0.00     0.118 A 
HETATM    8  C4  UNK     1      18.339   1.087  34.217  1.00  0.00     0.046 A 
HETATM    9  C5  UNK     1      18.200   2.416  34.113  1.00  0.00     0.044 A 
HETATM   10  C6  UNK     1      18.308   5.169  31.447  1.00  0.00     0.090 A 
HETATM   11  C7  UNK     1      18.731   0.884  31.830  1.00  0.00     0.263 A 
HETATM   12  C9  UNK     1      18.714   3.024  30.374  1.00  0.00     0.305 A 
HETATM   13  C10 UNK     1      17.929   5.442  33.782  1.00  0.00     0.015 A 
HETATM   14  C11 UNK     1      18.187   6.547  31.242  1.00  0.00     0.038 A 
HETATM   15  C12 UNK     1      17.807   6.825  33.596  1.00  0.00     0.001 A 
HETATM   16  C13 UNK     1      17.934   7.377  32.326  1.00  0.00     0.003 A 
HETATM   17  H2  UNK     1      18.693  -0.660  33.197  1.00  0.00     0.169 HD
ENDROOT
BRANCH   8  18
HETATM   18  C8  UNK     1      18.206   0.383  35.506  1.00  0.00    -0.009 A 
HETATM   19  C14 UNK     1      18.564  -0.963  35.612  1.00  0.00     0.013 A 
HETATM   20  C16 UNK     1      18.438  -1.628  36.831  1.00  0.00     0.001 A 
HETATM   21  C18 UNK     1      17.955  -0.948  37.949  1.00  0.00     0.000 A 
HETATM   22  C17 UNK     1      17.598   0.396  37.848  1.00  0.00     0.001 A 
HETATM   23  C15 UNK     1      17.724   1.061  36.628  1.00  0.00     0.013 A 
ENDBRANCH   8  18
TORSDOF 1
ENDMDL
MODEL 3
REMARK VINA RESULT:      -9.3      2.610      4.976
REMARK  1 active torsions:
REMARK  status: ('A' for Active; 'I' for Inactive)
REMARK    1  A    between atoms: C4_8  and  C8_12 
ROOT
HETATM    1  O1  UNK     1      19.366   1.506  29.302  1.00  0.00    -0.274 OA
HETATM    2  O2  UNK     1      17.720   4.103  32.258  1.00  0.00    -0.267 OA
HETATM    3  O3  UNK     1      18.518   3.547  29.797  1.00  0.00    -0.259 OA
HETATM    4  N1  UNK     1      17.885   2.507  33.882  1.00  0.00    -0.322 N 
HETATM    5  C1  UNK     1      18.967   0.742  32.012  1.00  0.00     0.001 A 
HETATM    6  C2  UNK     1      19.539  -0.204  31.024  1.00  0.00     0.009 A 
HETATM    7  C3  UNK     1      18.632   1.986  31.595  1.00  0.00     0.118 A 
HETATM    8  C4  UNK     1      18.230   1.246  34.297  1.00  0.00     0.046 A 
HETATM    9  C5  UNK     1      18.757   0.383  33.415  1.00  0.00     0.044 A 
HETATM   10  C6  UNK     1      19.719   0.212  29.708  1.00  0.00     0.090 A 
HETATM   11  C7  UNK     1      18.042   2.963  32.591  1.00  0.00     0.263 A 
HETATM   12  C9  UNK     1      18.822   2.423  30.182  1.00  0.00     0.305 A 
HETATM   13  C10 UNK     1      19.920  -1.521  31.329  1.00  0.00     0.015 A 
HETATM   14  C11 UNK     1      20.252  -0.619  28.718  1.00  0.00     0.038 A 
HETATM   15  C12 UNK     1      20.455  -2.368  30.350  1.00  0.00     0.001 A 
HETATM   16  C13 UNK     1      20.622  -1.917  29.045  1.00  0.00     0.003 A 
HETATM   17  H2  UNK     1      17.493   3.143  34.571  1.00  0.00     0.169 HD
ENDROOT
BRANCH   8  18
HETATM   18  C8  UNK     1      18.023   0.890  35.713  1.00  0.00    -0.009 A 
HETATM   19  C14 UNK     1      17.736   1.884  36.651  1.00  0.00     0.013 A 
HETATM   20  C16 UNK     1      17.540   1.548  37.990  1.00  0.00     0.001 A 
HETATM   21  C18 UNK     1      17.629   0.216  38.395  1.00  0.00     0.000 A 
HETATM   22  C17 UNK     1      17.914  -0.779  37.460  1.00  0.00     0.001 A 
HETATM   23  C15 UNK     1      18.111  -0.442  36.121  1.00  0.00     0.013 A 
ENDBRANCH   8  18
TORSDOF 1
ENDMDL
MODEL 4
REMARK VINA RESULT:      -9.2      2.278      4.361
REMARK  1 active torsions:
REMARK  status: ('A' for Active; 'I' for Inactive)
REMARK    1  A    between atoms: C4_8  and  C8_12 
ROOT
HETATM    1  O1  UNK     1      18.279  -0.999  34.552  1.00  0.00    -0.274 OA
HETATM    2  O2  UNK     1      18.583   1.261  30.948  1.00  0.00    -0.267 OA
HETATM    3  O3  UNK     1      18.537  -1.011  32.302  1.00  0.00    -0.259 OA
HETATM    4  N1  UNK     1      18.354   3.241  32.063  1.00  0.00    -0.322 N 
HETATM    5  C1  UNK     1      18.143   1.841  34.466  1.00  0.00     0.001 A 
HETATM    6  C2  UNK     1      18.026   1.105  35.748  1.00  0.00     0.009 A 
HETATM    7  C3  UNK     1      18.313   1.129  33.327  1.00  0.00     0.118 A 
HETATM    8  C4  UNK     1      18.184   3.954  33.221  1.00  0.00     0.046 A 
HETATM    9  C5  UNK     1      18.086   3.301  34.389  1.00  0.00     0.044 A 
HETATM   10  C6  UNK     1      18.099  -0.285  35.745  1.00  0.00     0.090 A 
HETATM   11  C7  UNK     1      18.430   1.865  32.009  1.00  0.00     0.263 A 
HETATM   12  C9  UNK     1      18.386  -0.360  33.330  1.00  0.00     0.305 A 
HETATM   13  C10 UNK     1      17.841   1.726  36.995  1.00  0.00     0.015 A 
HETATM   14  C11 UNK     1      17.998  -1.051  36.910  1.00  0.00     0.038 A 
HETATM   15  C12 UNK     1      17.736   0.974  38.173  1.00  0.00     0.001 A 
HETATM   16  C13 UNK     1      17.816  -0.413  38.131  1.00  0.00     0.003 A 
HETATM   17  H2  UNK     1      18.431   3.759  31.192  1.00  0.00     0.169 HD
ENDROOT
BRANCH   8  18
HETATM   18  C8  UNK     1      18.133   5.425  33.140  1.00  0.00    -0.009 A 
HETATM   19  C14 UNK     1      17.034   6.058  32.556  1.00  0.00     0.013 A 
HETATM   20  C16 UNK     1      16.985   7.450  32.479  1.00  0.00     0.001 A 
HETATM   21  C18 UNK     1      18.037   8.213  32.986  1.00  0.00     0.000 A 
HETATM   22  C17 UNK     1      19.136   7.584  33.571  1.00  0.00     0.001 A 
HETATM   23  C15 UNK     1      19.184   6.193  33.647  1.00  0.00     0.013 A 
ENDBRANCH   8  18
TORSDOF 1
ENDMDL
MODEL 5
REMARK VINA RESULT:      -9.0      2.608      6.796
REMARK  1 active torsions:
REMARK  status: ('A' for Active; 'I' for Inactive)
REMARK    1  A    between atoms: C4_8  and  C8_12 
ROOT
HETATM    1  O1  UNK     1      18.473   4.826  30.189  1.00  0.00    -0.274 OA
HETATM    2  O2  UNK     1      18.856   0.592  30.531  1.00  0.00    -0.267 OA
HETATM    3  O3  UNK     1      18.835   2.848  29.148  1.00  0.00    -0.259 OA
HETATM    4  N1  UNK     1      18.514   0.652  32.787  1.00  0.00    -0.322 N 
HETATM    5  C1  UNK     1      18.251   3.426  32.655  1.00  0.00     0.001 A 
HETATM    6  C2  UNK     1      18.115   4.901  32.595  1.00  0.00     0.009 A 
HETATM    7  C3  UNK     1      18.490   2.753  31.505  1.00  0.00     0.118 A 
HETATM    8  C4  UNK     1      18.269   1.341  33.947  1.00  0.00     0.046 A 
HETATM    9  C5  UNK     1      18.134   2.675  33.906  1.00  0.00     0.044 A 
HETATM   10  C6  UNK     1      18.229   5.547  31.367  1.00  0.00     0.090 A 
HETATM   11  C7  UNK     1      18.637   1.246  31.549  1.00  0.00     0.263 A 
HETATM   12  C9  UNK     1      18.616   3.451  30.193  1.00  0.00     0.305 A 
HETATM   13  C10 UNK     1      17.873   5.713  33.716  1.00  0.00     0.015 A 
HETATM   14  C11 UNK     1      18.112   6.932  31.226  1.00  0.00     0.038 A 
HETATM   15  C12 UNK     1      17.754   7.104  33.594  1.00  0.00     0.001 A 
HETATM   16  C13 UNK     1      17.872   7.713  32.350  1.00  0.00     0.003 A 
HETATM   17  H2  UNK     1      18.607  -0.359  32.845  1.00  0.00     0.169 HD
ENDROOT
BRANCH   8  18
HETATM   18  C8  UNK     1      18.145   0.580  35.204  1.00  0.00    -0.009 A 
HETATM   19  C14 UNK     1      17.617   1.190  36.344  1.00  0.00     0.013 A 
HETATM   20  C16 UNK     1      17.500   0.471  37.533  1.00  0.00     0.001 A 
HETATM   21  C18 UNK     1      17.911  -0.862  37.585  1.00  0.00     0.000 A 
HETATM   22  C17 UNK     1      18.439  -1.474  36.448  1.00  0.00     0.001 A 
HETATM   23  C15 UNK     1      18.556  -0.754  35.260  1.00  0.00     0.013 A 
ENDBRANCH   8  18
TORSDOF 1
ENDMDL
MODEL 6
REMARK VINA RESULT:      -8.9      2.425      4.269
REMARK  1 active torsions:
REMARK  status: ('A' for Active; 'I' for Inactive)
REMARK    1  A    between atoms: C4_8  and  C8_12 
ROOT
HETATM    1  O1  UNK     1      18.421   0.152  32.677  1.00  0.00    -0.274 OA
HETATM    2  O2  UNK     1      18.651   3.391  29.912  1.00  0.00    -0.267 OA
HETATM    3  O3  UNK     1      18.607   0.817  30.520  1.00  0.00    -0.259 OA
HETATM    4  N1  UNK     1      18.495   4.944  31.578  1.00  0.00    -0.322 N 
HETATM    5  C1  UNK     1      18.335   2.887  33.455  1.00  0.00     0.001 A 
HETATM    6  C2  UNK     1      18.246   1.800  34.460  1.00  0.00     0.009 A 
HETATM    7  C3  UNK     1      18.456   2.550  32.149  1.00  0.00     0.118 A 
HETATM    8  C4  UNK     1      18.376   5.276  32.903  1.00  0.00     0.046 A 
HETATM    9  C5  UNK     1      18.303   4.303  33.823  1.00  0.00     0.044 A 
HETATM   10  C6  UNK     1      18.294   0.475  34.036  1.00  0.00     0.090 A 
HETATM   11  C7  UNK     1      18.543   3.649  31.110  1.00  0.00     0.263 A 
HETATM   12  C9  UNK     1      18.501   1.129  31.701  1.00  0.00     0.305 A 
HETATM   13  C10 UNK     1      18.113   2.017  35.841  1.00  0.00     0.015 A 
HETATM   14  C11 UNK     1      18.216  -0.605  34.919  1.00  0.00     0.038 A 
HETATM   15  C12 UNK     1      18.032   0.947  36.741  1.00  0.00     0.001 A 
HETATM   16  C13 UNK     1      18.085  -0.364  36.280  1.00  0.00     0.003 A 
HETATM   17  H2  UNK     1      18.553   5.701  30.901  1.00  0.00     0.169 HD
ENDROOT
BRANCH   8  18
HETATM   18  C8  UNK     1      18.349   6.704  33.270  1.00  0.00    -0.009 A 
HETATM   19  C14 UNK     1      17.240   7.491  32.951  1.00  0.00     0.013 A 
HETATM   20  C16 UNK     1      17.215   8.841  33.298  1.00  0.00     0.001 A 
HETATM   21  C18 UNK     1      18.300   9.410  33.966  1.00  0.00     0.000 A 
HETATM   22  C17 UNK     1      19.409   8.627  34.288  1.00  0.00     0.001 A 
HETATM   23  C15 UNK     1      19.433   7.277  33.940  1.00  0.00     0.013 A 
ENDBRANCH   8  18
TORSDOF 1
ENDMDL
MODEL 7
REMARK VINA RESULT:      -8.8      3.409      7.232
REMARK  1 active torsions:
REMARK  status: ('A' for Active; 'I' for Inactive)
REMARK    1  A    between atoms: C4_8  and  C8_12 
ROOT
HETATM    1  O1  UNK     1      18.570   0.968  31.900  1.00  0.00    -0.274 OA
HETATM    2  O2  UNK     1      17.675   0.124  35.984  1.00  0.00    -0.267 OA
HETATM    3  O3  UNK     1      17.534   1.619  33.805  1.00  0.00    -0.259 OA
HETATM    4  N1  UNK     1      18.846  -1.835  35.930  1.00  0.00    -0.322 N 
HETATM    5  C1  UNK     1      19.477  -1.363  33.254  1.00  0.00     0.001 A 
HETATM    6  C2  UNK     1      19.813  -1.122  31.830  1.00  0.00     0.009 A 
HETATM    7  C3  UNK     1      18.719  -0.446  33.901  1.00  0.00     0.118 A 
HETATM    8  C4  UNK     1      19.614  -2.757  35.267  1.00  0.00     0.046 A 
HETATM    9  C5  UNK     1      19.934  -2.548  33.981  1.00  0.00     0.044 A 
HETATM   10  C6  UNK     1      19.350   0.033  31.206  1.00  0.00     0.090 A 
HETATM   11  C7  UNK     1      18.362  -0.680  35.355  1.00  0.00     0.263 A 
HETATM   12  C9  UNK     1      18.222   0.787  33.226  1.00  0.00     0.305 A 
HETATM   13  C10 UNK     1      20.584  -1.998  31.047  1.00  0.00     0.015 A 
HETATM   14  C11 UNK     1      19.625   0.333  29.869  1.00  0.00     0.038 A 
HETATM   15  C12 UNK     1      20.868  -1.714  29.705  1.00  0.00     0.001 A 
HETATM   16  C13 UNK     1      20.390  -0.549  29.116  1.00  0.00     0.003 A 
HETATM   17  H2  UNK     1      18.622  -2.016  36.905  1.00  0.00     0.169 HD
ENDROOT
BRANCH   8  18
HETATM   18  C8  UNK     1      20.079  -3.946  36.005  1.00  0.00    -0.009 A 
HETATM   19  C14 UNK     1      19.853  -5.225  35.490  1.00  0.00     0.013 A 
HETATM   20  C16 UNK     1      20.291  -6.350  36.188  1.00  0.00     0.001 A 
HETATM   21  C18 UNK     1      20.959  -6.199  37.404  1.00  0.00     0.000 A 
HETATM   22  C17 UNK     1      21.187  -4.924  37.921  1.00  0.00     0.001 A 
HETATM   23  C15 UNK     1      20.747  -3.799  37.223  1.00  0.00     0.013 A 
ENDBRANCH   8  18
TORSDOF 1
ENDMDL
MODEL 8
REMARK VINA RESULT:      -8.5     23.241     25.227
REMARK  1 active torsions:
REMARK  status: ('A' for Active; 'I' for Inactive)
REMARK    1  A    between atoms: C4_8  and  C8_12 
ROOT
HETATM    1  O1  UNK     1      17.229   8.991  10.102  1.00  0.00    -0.274 OA
HETATM    2  O2  UNK     1      14.892   5.466  10.654  1.00  0.00    -0.267 OA
HETATM    3  O3  UNK     1      17.022   6.970  11.102  1.00  0.00    -0.259 OA
HETATM    4  N1  UNK     1      13.255   6.223   9.254  1.00  0.00    -0.322 N 
HETATM    5  C1  UNK     1      14.717   8.562   8.838  1.00  0.00     0.001 A 
HETATM    6  C2  UNK     1      15.486   9.810   8.614  1.00  0.00     0.009 A 
HETATM    7  C3  UNK     1      15.236   7.624   9.665  1.00  0.00     0.118 A 
HETATM    8  C4  UNK     1      12.738   7.176   8.415  1.00  0.00     0.046 A 
HETATM    9  C5  UNK     1      13.427   8.306   8.197  1.00  0.00     0.044 A 
HETATM   10  C6  UNK     1      16.712   9.979   9.252  1.00  0.00     0.090 A 
HETATM   11  C7  UNK     1      14.461   6.346   9.909  1.00  0.00     0.263 A 
HETATM   12  C9  UNK     1      16.548   7.813  10.349  1.00  0.00     0.305 A 
HETATM   13  C10 UNK     1      15.054  10.859   7.786  1.00  0.00     0.015 A 
HETATM   14  C11 UNK     1      17.496  11.125   9.092  1.00  0.00     0.038 A 
HETATM   15  C12 UNK     1      15.826  12.015   7.615  1.00  0.00     0.001 A 
HETATM   16  C13 UNK     1      17.047  12.148   8.267  1.00  0.00     0.003 A 
HETATM   17  H2  UNK     1      12.715   5.373   9.398  1.00  0.00     0.169 HD
ENDROOT
BRANCH   8  18
HETATM   18  C8  UNK     1      11.440   6.912   7.765  1.00  0.00    -0.009 A 
HETATM   19  C14 UNK     1      11.396   6.454   6.447  1.00  0.00     0.013 A 
HETATM   20  C16 UNK     1      10.169   6.205   5.832  1.00  0.00     0.001 A 
HETATM   21  C18 UNK     1       8.982   6.412   6.536  1.00  0.00     0.000 A 
HETATM   22  C17 UNK     1       9.023   6.868   7.853  1.00  0.00     0.001 A 
HETATM   23  C15 UNK     1      10.250   7.118   8.467  1.00  0.00     0.013 A 
ENDBRANCH   8  18
TORSDOF 1
ENDMDL
MODEL 9
REMARK VINA RESULT:      -8.3     15.106     17.509
REMARK  1 active torsions:
REMARK  status: ('A' for Active; 'I' for Inactive)
REMARK    1  A    between atoms: C4_8  and  C8_12 
ROOT
HETATM    1  O1  UNK     1      18.395  -4.803  12.750  1.00  0.00    -0.274 OA
HETATM    2  O2  UNK     1      19.860  -0.797  12.699  1.00  0.00    -0.267 OA
HETATM    3  O3  UNK     1      19.314  -3.117  11.549  1.00  0.00    -0.259 OA
HETATM    4  N1  UNK     1      19.392  -0.502  14.914  1.00  0.00    -0.322 N 
HETATM    5  C1  UNK     1      18.413  -3.111  15.036  1.00  0.00     0.001 A 
HETATM    6  C2  UNK     1      17.886  -4.495  15.110  1.00  0.00     0.009 A 
HETATM    7  C3  UNK     1      18.885  -2.662  13.849  1.00  0.00     0.118 A 
HETATM    8  C4  UNK     1      18.914  -0.964  16.113  1.00  0.00     0.046 A 
HETATM    9  C5  UNK     1      18.443  -2.217  16.195  1.00  0.00     0.044 A 
HETATM   10  C6  UNK     1      17.898  -5.290  13.967  1.00  0.00     0.090 A 
HETATM   11  C7  UNK     1      19.422  -1.249  13.756  1.00  0.00     0.263 A 
HETATM   12  C9  UNK     1      18.890  -3.517  12.628  1.00  0.00     0.305 A 
HETATM   13  C10 UNK     1      17.364  -5.074  16.278  1.00  0.00     0.015 A 
HETATM   14  C11 UNK     1      17.421  -6.604  13.955  1.00  0.00     0.038 A 
HETATM   15  C12 UNK     1      16.880  -6.389  16.284  1.00  0.00     0.001 A 
HETATM   16  C13 UNK     1      16.910  -7.154  15.122  1.00  0.00     0.003 A 
HETATM   17  H2  UNK     1      19.748   0.450  14.879  1.00  0.00     0.169 HD
ENDROOT
BRANCH   8  18
HETATM   18  C8  UNK     1      18.953  -0.064  17.280  1.00  0.00    -0.009 A 
HETATM   19  C14 UNK     1      19.002   1.320  17.097  1.00  0.00     0.013 A 
HETATM   20  C16 UNK     1      19.039   2.172  18.200  1.00  0.00     0.001 A 
HETATM   21  C18 UNK     1      19.025   1.642  19.491  1.00  0.00     0.000 A 
HETATM   22  C17 UNK     1      18.976   0.261  19.677  1.00  0.00     0.001 A 
HETATM   23  C15 UNK     1      18.940  -0.591  18.573  1.00  0.00     0.013 A 
ENDBRANCH   8  18
TORSDOF 1
ENDMDL
MODEL 10
REMARK VINA RESULT:      -8.2     12.381     14.776
REMARK  1 active torsions:
REMARK  status: ('A' for Active; 'I' for Inactive)
REMARK    1  A    between atoms: C4_8  and  C8_12 
ROOT
HETATM    1  O1  UNK     1      30.426  -8.160  38.475  1.00  0.00    -0.274 OA
HETATM    2  O2  UNK     1      27.179 -10.874  39.004  1.00  0.00    -0.267 OA
HETATM    3  O3  UNK     1      29.746 -10.307  38.709  1.00  0.00    -0.259 OA
HETATM    4  N1  UNK     1      25.648  -9.180  39.029  1.00  0.00    -0.322 N 
HETATM    5  C1  UNK     1      27.712  -7.335  38.686  1.00  0.00     0.001 A 
HETATM    6  C2  UNK     1      28.803  -6.347  38.507  1.00  0.00     0.009 A 
HETATM    7  C3  UNK     1      28.035  -8.648  38.751  1.00  0.00     0.118 A 
HETATM    8  C4  UNK     1      25.329  -7.848  38.960  1.00  0.00     0.046 A 
HETATM    9  C5  UNK     1      26.305  -6.944  38.790  1.00  0.00     0.044 A 
HETATM   10  C6  UNK     1      30.117  -6.794  38.407  1.00  0.00     0.090 A 
HETATM   11  C7  UNK     1      26.933  -9.670  38.938  1.00  0.00     0.263 A 
HETATM   12  C9  UNK     1      29.446  -9.120  38.648  1.00  0.00     0.305 A 
HETATM   13  C10 UNK     1      28.599  -4.959  38.432  1.00  0.00     0.015 A 
HETATM   14  C11 UNK     1      31.200  -5.927  38.237  1.00  0.00     0.038 A 
HETATM   15  C12 UNK     1      29.673  -4.075  38.263  1.00  0.00     0.001 A 
HETATM   16  C13 UNK     1      30.973  -4.559  38.164  1.00  0.00     0.003 A 
HETATM   17  H2  UNK     1      24.889  -9.845  39.154  1.00  0.00     0.169 HD
ENDROOT
BRANCH   8  18
HETATM   18  C8  UNK     1      23.910  -7.459  39.058  1.00  0.00    -0.009 A 
HETATM   19  C14 UNK     1      23.512  -6.165  38.716  1.00  0.00     0.013 A 
HETATM   20  C16 UNK     1      22.170  -5.796  38.810  1.00  0.00     0.001 A 
HETATM   21  C18 UNK     1      21.222  -6.722  39.245  1.00  0.00     0.000 A 
HETATM   22  C17 UNK     1      21.616  -8.016  39.586  1.00  0.00     0.001 A 
HETATM   23  C15 UNK     1      22.958  -8.384  39.493  1.00  0.00     0.013 A 
ENDBRANCH   8  18
TORSDOF 1
ENDMDL
