MODEL 1
REMARK VINA RESULT:      -9.4      0.000      0.000
REMARK  2 active torsions:
REMARK  status: ('A' for Active; 'I' for Inactive)
REMARK    1  A    between atoms: C9_14  and  O3_3 
REMARK    2  A    between atoms: C13_18  and  O4_4 
ROOT
HETATM    1  O1  UNK     1      11.320   6.476   9.181  1.00  0.00    -0.306 OA
HETATM    2  O2  UNK     1      16.327   5.923   9.980  1.00  0.00    -0.275 OA
HETATM    3  O5  UNK     1      15.922   3.674   9.938  1.00  0.00    -0.260 OA
HETATM    4  C1  UNK     1      13.725   6.307   8.913  1.00  0.00     0.017 A 
HETATM    5  C2  UNK     1      12.417   6.380   8.385  1.00  0.00     0.088 A 
HETATM    6  C3  UNK     1      14.596   7.456   9.203  1.00  0.00     0.011 A 
HETATM    7  C4  UNK     1      10.637   6.465   7.028  1.00  0.00     0.003 A 
HETATM    8  C5  UNK     1      10.234   6.527   8.358  1.00  0.00     0.119 A 
HETATM    9  C6  UNK     1      12.054   6.370   7.057  1.00  0.00     0.052 A 
HETATM   10  C7  UNK     1      15.869   7.230   9.726  1.00  0.00     0.093 A 
HETATM   11  C8  UNK     1      14.192   5.074   9.167  1.00  0.00     0.097 A 
HETATM   12  C9  UNK     1       8.907   6.629   8.768  1.00  0.00     0.102 A 
HETATM   13  C10 UNK     1      14.206   8.782   8.977  1.00  0.00     0.018 A 
HETATM   14  C11 UNK     1       9.652   6.506   6.025  1.00  0.00     0.014 A 
HETATM   15  C12 UNK     1      16.745   8.274  10.021  1.00  0.00     0.075 A 
HETATM   16  C13 UNK     1      16.343   9.585   9.790  1.00  0.00     0.070 A 
HETATM   17  C14 UNK     1      15.074   9.839   9.269  1.00  0.00     0.038 A 
HETATM   18  C15 UNK     1       7.944   6.667   7.756  1.00  0.00     0.040 A 
HETATM   19  C16 UNK     1      15.534   4.817   9.721  1.00  0.00     0.289 A 
HETATM   20  C17 UNK     1       8.307   6.606   6.408  1.00  0.00     0.004 A 
ENDROOT
BRANCH  12  21
HETATM   21  O3  UNK     1       8.549   6.686  10.083  1.00  0.00    -0.353 OA
HETATM   22  C18 UNK     1       7.387   5.956  10.469  1.00  0.00     0.210 C 
ENDBRANCH  12  21
BRANCH  16  23
HETATM   23  O4  UNK     1      17.183  10.618  10.071  1.00  0.00    -0.356 OA
HETATM   24  C19 UNK     1      18.044  11.058   9.022  1.00  0.00     0.210 C 
ENDBRANCH  16  23
TORSDOF 2
ENDMDL
MODEL 2
REMARK VINA RESULT:      -9.1     23.574     25.541
REMARK  2 active torsions:
REMARK  status: ('A' for Active; 'I' for Inactive)
REMARK    1  A    between atoms: C9_14  and  O3_3 
REMARK    2  A    between atoms: C13_18  and  O4_4 
ROOT
HETATM    1  O1  UNK     1      17.015   5.274  32.739  1.00  0.00    -0.306 OA
HETATM    2  O2  UNK     1      18.668   0.721  31.141  1.00  0.00    -0.275 OA
HETATM    3  O5  UNK     1      18.788   1.673  29.065  1.00  0.00    -0.260 OA
HETATM    4  C1  UNK     1      18.371   3.334  32.208  1.00  0.00     0.017 A 
HETATM    5  C2  UNK     1      18.230   4.675  32.629  1.00  0.00     0.088 A 
HETATM    6  C3  UNK     1      18.377   2.157  33.091  1.00  0.00     0.011 A 
HETATM    7  C4  UNK     1      18.601   6.770  33.328  1.00  0.00     0.003 A 
HETATM    8  C5  UNK     1      17.238   6.550  33.164  1.00  0.00     0.119 A 
HETATM    9  C6  UNK     1      19.235   5.549  32.979  1.00  0.00     0.052 A 
HETATM   10  C7  UNK     1      18.525   0.889  32.531  1.00  0.00     0.093 A 
HETATM   11  C8  UNK     1      18.509   3.140  30.887  1.00  0.00     0.097 A 
HETATM   12  C9  UNK     1      16.257   7.510  33.406  1.00  0.00     0.102 A 
HETATM   13  C10 UNK     1      18.239   2.249  34.481  1.00  0.00     0.018 A 
HETATM   14  C11 UNK     1      19.030   8.037  33.765  1.00  0.00     0.014 A 
HETATM   15  C12 UNK     1      18.541  -0.268  33.310  1.00  0.00     0.075 A 
HETATM   16  C13 UNK     1      18.404  -0.160  34.691  1.00  0.00     0.070 A 
HETATM   17  C14 UNK     1      18.253   1.098  35.275  1.00  0.00     0.038 A 
HETATM   18  C15 UNK     1      16.704   8.761  33.839  1.00  0.00     0.040 A 
HETATM   19  C16 UNK     1      18.665   1.806  30.279  1.00  0.00     0.289 A 
HETATM   20  C17 UNK     1      18.065   9.023  34.016  1.00  0.00     0.004 A 
ENDROOT
BRANCH  12  21
HETATM   21  O3  UNK     1      14.928   7.258  33.233  1.00  0.00    -0.353 OA
HETATM   22  C18 UNK     1      14.443   7.236  31.891  1.00  0.00     0.210 C 
ENDBRANCH  12  21
BRANCH  16  23
HETATM   23  O4  UNK     1      18.417  -1.276  35.468  1.00  0.00    -0.356 OA
HETATM   24  C19 UNK     1      17.899  -1.151  36.792  1.00  0.00     0.210 C 
ENDBRANCH  16  23
TORSDOF 2
ENDMDL
MODEL 3
REMARK VINA RESULT:      -8.5     22.922     24.784
REMARK  2 active torsions:
REMARK  status: ('A' for Active; 'I' for Inactive)
REMARK    1  A    between atoms: C9_14  and  O3_3 
REMARK    2  A    between atoms: C13_18  and  O4_4 
ROOT
HETATM    1  O1  UNK     1      18.198   5.100  32.829  1.00  0.00    -0.306 OA
HETATM    2  O2  UNK     1      18.471   9.944  34.401  1.00  0.00    -0.275 OA
HETATM    3  O5  UNK     1      20.684   9.523  34.793  1.00  0.00    -0.260 OA
HETATM    4  C1  UNK     1      18.376   7.517  32.934  1.00  0.00     0.017 A 
HETATM    5  C2  UNK     1      18.443   6.295  32.229  1.00  0.00     0.088 A 
HETATM    6  C3  UNK     1      17.175   8.354  33.083  1.00  0.00     0.011 A 
HETATM    7  C4  UNK     1      18.687   4.718  30.657  1.00  0.00     0.003 A 
HETATM    8  C5  UNK     1      18.346   4.138  31.874  1.00  0.00     0.119 A 
HETATM    9  C6  UNK     1      18.747   6.116  30.898  1.00  0.00     0.052 A 
HETATM   10  C7  UNK     1      17.259   9.540  33.811  1.00  0.00     0.093 A 
HETATM   11  C8  UNK     1      19.516   7.931  33.509  1.00  0.00     0.097 A 
HETATM   12  C9  UNK     1      18.184   2.768  32.068  1.00  0.00     0.102 A 
HETATM   13  C10 UNK     1      15.937   8.012  32.524  1.00  0.00     0.018 A 
HETATM   14  C11 UNK     1      18.882   3.880  29.544  1.00  0.00     0.014 A 
HETATM   15  C12 UNK     1      16.160  10.379  33.989  1.00  0.00     0.075 A 
HETATM   16  C13 UNK     1      14.937  10.027  33.427  1.00  0.00     0.070 A 
HETATM   17  C14 UNK     1      14.825   8.844  32.695  1.00  0.00     0.038 A 
HETATM   18  C15 UNK     1      18.383   1.953  30.950  1.00  0.00     0.040 A 
HETATM   19  C16 UNK     1      19.622   9.182  34.283  1.00  0.00     0.289 A 
HETATM   20  C17 UNK     1      18.727   2.497  29.710  1.00  0.00     0.004 A 
ENDROOT
BRANCH  12  21
HETATM   21  O3  UNK     1      17.850   2.234  33.278  1.00  0.00    -0.353 OA
HETATM   22  C18 UNK     1      18.382   0.948  33.586  1.00  0.00     0.210 C 
ENDBRANCH  12  21
BRANCH  16  23
HETATM   23  O4  UNK     1      13.853  10.832  33.589  1.00  0.00    -0.356 OA
HETATM   24  C19 UNK     1      13.627  11.826  32.590  1.00  0.00     0.210 C 
ENDBRANCH  16  23
TORSDOF 2
ENDMDL
MODEL 4
REMARK VINA RESULT:      -8.4     27.398     29.703
REMARK  2 active torsions:
REMARK  status: ('A' for Active; 'I' for Inactive)
REMARK    1  A    between atoms: C9_14  and  O3_3 
REMARK    2  A    between atoms: C13_18  and  O4_4 
ROOT
HETATM    1  O1  UNK     1      18.672  -4.147  36.653  1.00  0.00    -0.306 OA
HETATM    2  O2  UNK     1      17.691   0.766  35.695  1.00  0.00    -0.275 OA
HETATM    3  O5  UNK     1      17.094   0.909  37.898  1.00  0.00    -0.260 OA
HETATM    4  C1  UNK     1      18.853  -1.757  36.282  1.00  0.00     0.017 A 
HETATM    5  C2  UNK     1      19.395  -2.997  36.685  1.00  0.00     0.088 A 
HETATM    6  C3  UNK     1      18.893  -1.208  34.917  1.00  0.00     0.011 A 
HETATM    7  C4  UNK     1      20.740  -4.629  37.423  1.00  0.00     0.003 A 
HETATM    8  C5  UNK     1      19.488  -5.143  37.102  1.00  0.00     0.119 A 
HETATM    9  C6  UNK     1      20.669  -3.237  37.149  1.00  0.00     0.052 A 
HETATM   10  C7  UNK     1      18.313   0.034  34.666  1.00  0.00     0.093 A 
HETATM   11  C8  UNK     1      18.252  -1.034  37.240  1.00  0.00     0.097 A 
HETATM   12  C9  UNK     1      19.139  -6.486  37.228  1.00  0.00     0.102 A 
HETATM   13  C10 UNK     1      19.493  -1.882  33.845  1.00  0.00     0.018 A 
HETATM   14  C11 UNK     1      21.724  -5.510  37.906  1.00  0.00     0.014 A 
HETATM   15  C12 UNK     1      18.318   0.612  33.397  1.00  0.00     0.075 A 
HETATM   16  C13 UNK     1      18.918  -0.069  32.342  1.00  0.00     0.070 A 
HETATM   17  C14 UNK     1      19.505  -1.315  32.567  1.00  0.00     0.038 A 
HETATM   18  C15 UNK     1      20.131  -7.344  37.710  1.00  0.00     0.040 A 
HETATM   19  C16 UNK     1      17.633   0.281  36.992  1.00  0.00     0.289 A 
HETATM   20  C17 UNK     1      21.401  -6.867  38.044  1.00  0.00     0.004 A 
ENDROOT
BRANCH  12  21
HETATM   21  O3  UNK     1      17.900  -6.954  36.903  1.00  0.00    -0.353 OA
HETATM   22  C18 UNK     1      17.701  -7.377  35.556  1.00  0.00     0.210 C 
ENDBRANCH  12  21
BRANCH  16  23
HETATM   23  O4  UNK     1      18.934   0.477  31.097  1.00  0.00    -0.356 OA
HETATM   24  C19 UNK     1      20.068   0.194  30.278  1.00  0.00     0.210 C 
ENDBRANCH  16  23
TORSDOF 2
ENDMDL
MODEL 5
REMARK VINA RESULT:      -8.4     32.931     35.507
REMARK  2 active torsions:
REMARK  status: ('A' for Active; 'I' for Inactive)
REMARK    1  A    between atoms: C9_14  and  O3_3 
REMARK    2  A    between atoms: C13_18  and  O4_4 
ROOT
HETATM    1  O1  UNK     1      23.213  -8.094  37.473  1.00  0.00    -0.306 OA
HETATM    2  O2  UNK     1      27.714  -6.190  38.935  1.00  0.00    -0.275 OA
HETATM    3  O5  UNK     1      26.712  -4.140  38.786  1.00  0.00    -0.260 OA
HETATM    4  C1  UNK     1      25.129  -7.350  38.761  1.00  0.00     0.017 A 
HETATM    5  C2  UNK     1      23.800  -7.817  38.667  1.00  0.00     0.088 A 
HETATM    6  C3  UNK     1      26.326  -8.195  38.886  1.00  0.00     0.011 A 
HETATM    7  C4  UNK     1      21.718  -8.514  39.113  1.00  0.00     0.003 A 
HETATM    8  C5  UNK     1      21.946  -8.518  37.741  1.00  0.00     0.119 A 
HETATM    9  C6  UNK     1      22.926  -8.058  39.704  1.00  0.00     0.052 A 
HETATM   10  C7  UNK     1      27.580  -7.591  38.969  1.00  0.00     0.093 A 
HETATM   11  C8  UNK     1      25.291  -6.017  38.732  1.00  0.00     0.097 A 
HETATM   12  C9  UNK     1      21.000  -8.906  36.793  1.00  0.00     0.102 A 
HETATM   13  C10 UNK     1      26.268  -9.594  38.924  1.00  0.00     0.018 A 
HETATM   14  C11 UNK     1      20.459  -8.924  39.586  1.00  0.00     0.014 A 
HETATM   15  C12 UNK     1      28.754  -8.333  39.089  1.00  0.00     0.075 A 
HETATM   16  C13 UNK     1      28.679  -9.722  39.127  1.00  0.00     0.070 A 
HETATM   17  C14 UNK     1      27.437 -10.352  39.044  1.00  0.00     0.038 A 
HETATM   18  C15 UNK     1      19.755  -9.309  37.284  1.00  0.00     0.040 A 
HETATM   19  C16 UNK     1      26.609  -5.361  38.817  1.00  0.00     0.289 A 
HETATM   20  C17 UNK     1      19.487  -9.318  38.656  1.00  0.00     0.004 A 
ENDROOT
BRANCH  12  21
HETATM   21  O3  UNK     1      21.259  -8.896  35.454  1.00  0.00    -0.353 OA
HETATM   22  C18 UNK     1      21.770 -10.099  34.886  1.00  0.00     0.210 C 
ENDBRANCH  12  21
BRANCH  16  23
HETATM   23  O4  UNK     1      29.813 -10.465  39.245  1.00  0.00    -0.356 OA
HETATM   24  C19 UNK     1      30.923 -10.088  38.431  1.00  0.00     0.210 C 
ENDBRANCH  16  23
TORSDOF 2
ENDMDL
MODEL 6
REMARK VINA RESULT:      -8.3     29.075     31.437
REMARK  2 active torsions:
REMARK  status: ('A' for Active; 'I' for Inactive)
REMARK    1  A    between atoms: C9_14  and  O3_3 
REMARK    2  A    between atoms: C13_18  and  O4_4 
ROOT
HETATM    1  O1  UNK     1      20.892  -5.100  37.523  1.00  0.00    -0.306 OA
HETATM    2  O2  UNK     1      19.776  -1.297  34.312  1.00  0.00    -0.275 OA
HETATM    3  O5  UNK     1      20.833  -2.550  32.717  1.00  0.00    -0.260 OA
HETATM    4  C1  UNK     1      19.783  -3.598  35.974  1.00  0.00     0.017 A 
HETATM    5  C2  UNK     1      19.842  -4.799  36.714  1.00  0.00     0.088 A 
HETATM    6  C3  UNK     1      19.198  -2.332  36.443  1.00  0.00     0.011 A 
HETATM    7  C4  UNK     1      19.406  -6.799  37.626  1.00  0.00     0.003 A 
HETATM    8  C5  UNK     1      20.630  -6.317  38.079  1.00  0.00     0.119 A 
HETATM    9  C6  UNK     1      18.904  -5.807  36.742  1.00  0.00     0.052 A 
HETATM   10  C7  UNK     1      19.212  -1.223  35.599  1.00  0.00     0.093 A 
HETATM   11  C8  UNK     1      20.313  -3.636  34.741  1.00  0.00     0.097 A 
HETATM   12  C9  UNK     1      21.454  -6.996  38.974  1.00  0.00     0.102 A 
HETATM   13  C10 UNK     1      18.621  -2.185  37.711  1.00  0.00     0.018 A 
HETATM   14  C11 UNK     1      18.961  -8.048  38.093  1.00  0.00     0.014 A 
HETATM   15  C12 UNK     1      18.673   0.006  35.980  1.00  0.00     0.075 A 
HETATM   16  C13 UNK     1      18.103   0.135  37.243  1.00  0.00     0.070 A 
HETATM   17  C14 UNK     1      18.077  -0.959  38.107  1.00  0.00     0.038 A 
HETATM   18  C15 UNK     1      20.993  -8.236  39.426  1.00  0.00     0.040 A 
HETATM   19  C16 UNK     1      20.338  -2.472  33.836  1.00  0.00     0.289 A 
HETATM   20  C17 UNK     1      19.770  -8.755  38.994  1.00  0.00     0.004 A 
ENDROOT
BRANCH  12  21
HETATM   21  O3  UNK     1      22.649  -6.493  39.396  1.00  0.00    -0.353 OA
HETATM   22  C18 UNK     1      23.816  -7.249  39.082  1.00  0.00     0.210 C 
ENDBRANCH  12  21
BRANCH  16  23
HETATM   23  O4  UNK     1      17.572   1.325  37.634  1.00  0.00    -0.356 OA
HETATM   24  C19 UNK     1      16.282   1.659  37.123  1.00  0.00     0.210 C 
ENDBRANCH  16  23
TORSDOF 2
ENDMDL
MODEL 7
REMARK VINA RESULT:      -8.2      3.044      8.902
REMARK  2 active torsions:
REMARK  status: ('A' for Active; 'I' for Inactive)
REMARK    1  A    between atoms: C9_14  and  O3_3 
REMARK    2  A    between atoms: C13_18  and  O4_4 
ROOT
HETATM    1  O1  UNK     1       9.405   6.598   9.518  1.00  0.00    -0.306 OA
HETATM    2  O2  UNK     1       4.806   6.950  11.697  1.00  0.00    -0.275 OA
HETATM    3  O5  UNK     1       4.938   9.186  11.237  1.00  0.00    -0.260 OA
HETATM    4  C1  UNK     1       7.020   6.569   9.962  1.00  0.00     0.017 A 
HETATM    5  C2  UNK     1       8.122   6.496   9.081  1.00  0.00     0.088 A 
HETATM    6  C3  UNK     1       6.397   5.427  10.648  1.00  0.00     0.011 A 
HETATM    7  C4  UNK     1       9.437   6.311   7.277  1.00  0.00     0.003 A 
HETATM    8  C5  UNK     1      10.208   6.486   8.422  1.00  0.00     0.119 A 
HETATM    9  C6  UNK     1       8.087   6.319   7.716  1.00  0.00     0.052 A 
HETATM   10  C7  UNK     1       5.311   5.652  11.493  1.00  0.00     0.093 A 
HETATM   11  C8  UNK     1       6.515   7.794  10.177  1.00  0.00     0.097 A 
HETATM   12  C9  UNK     1      11.601   6.536   8.426  1.00  0.00     0.102 A 
HETATM   13  C10 UNK     1       6.847   4.110  10.494  1.00  0.00     0.018 A 
HETATM   14  C11 UNK     1      10.093   6.175   6.040  1.00  0.00     0.014 A 
HETATM   15  C12 UNK     1       4.673   4.614  12.173  1.00  0.00     0.075 A 
HETATM   16  C13 UNK     1       5.132   3.311  12.008  1.00  0.00     0.070 A 
HETATM   17  C14 UNK     1       6.218   3.059  11.170  1.00  0.00     0.038 A 
HETATM   18  C15 UNK     1      12.232   6.399   7.186  1.00  0.00     0.040 A 
HETATM   19  C16 UNK     1       5.368   8.050  11.068  1.00  0.00     0.289 A 
HETATM   20  C17 UNK     1      11.493   6.222   6.013  1.00  0.00     0.004 A 
ENDROOT
BRANCH  12  21
HETATM   21  O3  UNK     1      12.324   6.711   9.569  1.00  0.00    -0.353 OA
HETATM   22  C18 UNK     1      13.452   5.859   9.757  1.00  0.00     0.210 C 
ENDBRANCH  12  21
BRANCH  16  23
HETATM   23  O4  UNK     1       4.524   2.285  12.662  1.00  0.00    -0.356 OA
HETATM   24  C19 UNK     1       4.371   2.415  14.075  1.00  0.00     0.210 C 
ENDBRANCH  16  23
TORSDOF 2
ENDMDL
MODEL 8
REMARK VINA RESULT:      -8.2     29.010     31.467
REMARK  2 active torsions:
REMARK  status: ('A' for Active; 'I' for Inactive)
REMARK    1  A    between atoms: C9_14  and  O3_3 
REMARK    2  A    between atoms: C13_18  and  O4_4 
ROOT
HETATM    1  O1  UNK     1      20.225  -3.303  35.613  1.00  0.00    -0.306 OA
HETATM    2  O2  UNK     1      22.240  -7.046  38.432  1.00  0.00    -0.275 OA
HETATM    3  O5  UNK     1      23.841  -5.522  39.020  1.00  0.00    -0.260 OA
HETATM    4  C1  UNK     1      20.724  -4.891  37.378  1.00  0.00     0.017 A 
HETATM    5  C2  UNK     1      20.057  -3.747  36.887  1.00  0.00     0.088 A 
HETATM    6  C3  UNK     1      20.216  -6.270  37.314  1.00  0.00     0.011 A 
HETATM    7  C4  UNK     1      18.773  -1.925  36.660  1.00  0.00     0.003 A 
HETATM    8  C5  UNK     1      19.445  -2.194  35.472  1.00  0.00     0.119 A 
HETATM    9  C6  UNK     1      19.176  -2.938  37.570  1.00  0.00     0.052 A 
HETATM   10  C7  UNK     1      20.989  -7.303  37.843  1.00  0.00     0.093 A 
HETATM   11  C8  UNK     1      21.921  -4.679  37.947  1.00  0.00     0.097 A 
HETATM   12  C9  UNK     1      19.323  -1.427  34.315  1.00  0.00     0.102 A 
HETATM   13  C10 UNK     1      18.982  -6.600  36.741  1.00  0.00     0.018 A 
HETATM   14  C11 UNK     1      17.914  -0.813  36.709  1.00  0.00     0.014 A 
HETATM   15  C12 UNK     1      20.566  -8.633  37.816  1.00  0.00     0.075 A 
HETATM   16  C13 UNK     1      19.337  -8.944  37.244  1.00  0.00     0.070 A 
HETATM   17  C14 UNK     1      18.545  -7.928  36.707  1.00  0.00     0.038 A 
HETATM   18  C15 UNK     1      18.465  -0.326  34.385  1.00  0.00     0.040 A 
HETATM   19  C16 UNK     1      22.751  -5.760  38.509  1.00  0.00     0.289 A 
HETATM   20  C17 UNK     1      17.773  -0.022  35.560  1.00  0.00     0.004 A 
ENDROOT
BRANCH  12  21
HETATM   21  O3  UNK     1      19.999  -1.721  33.168  1.00  0.00    -0.353 OA
HETATM   22  C18 UNK     1      19.377  -1.352  31.938  1.00  0.00     0.210 C 
ENDBRANCH  12  21
BRANCH  16  23
HETATM   23  O4  UNK     1      18.906 -10.234  37.209  1.00  0.00    -0.356 OA
HETATM   24  C19 UNK     1      19.650 -11.187  37.966  1.00  0.00     0.210 C 
ENDBRANCH  16  23
TORSDOF 2
ENDMDL
MODEL 9
REMARK VINA RESULT:      -8.2      2.750      5.589
REMARK  2 active torsions:
REMARK  status: ('A' for Active; 'I' for Inactive)
REMARK    1  A    between atoms: C9_14  and  O3_3 
REMARK    2  A    between atoms: C13_18  and  O4_4 
ROOT
HETATM    1  O1  UNK     1       7.878   4.489   9.451  1.00  0.00    -0.306 OA
HETATM    2  O2  UNK     1      11.081   6.302   5.920  1.00  0.00    -0.275 OA
HETATM    3  O5  UNK     1       9.211   6.722   4.672  1.00  0.00    -0.260 OA
HETATM    4  C1  UNK     1       9.373   5.885   8.149  1.00  0.00     0.017 A 
HETATM    5  C2  UNK     1       8.432   5.701   9.185  1.00  0.00     0.088 A 
HETATM    6  C3  UNK     1      10.832   5.756   8.284  1.00  0.00     0.011 A 
HETATM    7  C4  UNK     1       7.032   5.992  10.910  1.00  0.00     0.003 A 
HETATM    8  C5  UNK     1       7.025   4.663  10.501  1.00  0.00     0.119 A 
HETATM    9  C6  UNK     1       7.948   6.656  10.051  1.00  0.00     0.052 A 
HETATM   10  C7  UNK     1      11.640   5.968   7.168  1.00  0.00     0.093 A 
HETATM   11  C8  UNK     1       8.872   6.205   6.945  1.00  0.00     0.097 A 
HETATM   12  C9  UNK     1       6.250   3.667  11.092  1.00  0.00     0.102 A 
HETATM   13  C10 UNK     1      11.457   5.426   9.493  1.00  0.00     0.018 A 
HETATM   14  C11 UNK     1       6.210   6.368  11.987  1.00  0.00     0.014 A 
HETATM   15  C12 UNK     1      13.030   5.863   7.227  1.00  0.00     0.075 A 
HETATM   16  C13 UNK     1      13.635   5.535   8.436  1.00  0.00     0.070 A 
HETATM   17  C14 UNK     1      12.849   5.316   9.568  1.00  0.00     0.038 A 
HETATM   18  C15 UNK     1       5.440   4.062  12.161  1.00  0.00     0.040 A 
HETATM   19  C16 UNK     1       9.711   6.431   5.754  1.00  0.00     0.289 A 
HETATM   20  C17 UNK     1       5.418   5.388  12.602  1.00  0.00     0.004 A 
ENDROOT
BRANCH  12  21
HETATM   21  O3  UNK     1       6.268   2.373  10.663  1.00  0.00    -0.353 OA
HETATM   22  C18 UNK     1       5.035   1.831  10.192  1.00  0.00     0.210 C 
ENDBRANCH  12  21
BRANCH  16  23
HETATM   23  O4  UNK     1      14.989   5.428   8.516  1.00  0.00    -0.356 OA
HETATM   24  C19 UNK     1      15.556   5.316   9.820  1.00  0.00     0.210 C 
ENDBRANCH  16  23
TORSDOF 2
ENDMDL
MODEL 10
REMARK VINA RESULT:      -8.1     23.097     25.198
REMARK  2 active torsions:
REMARK  status: ('A' for Active; 'I' for Inactive)
REMARK    1  A    between atoms: C9_14  and  O3_3 
REMARK    2  A    between atoms: C13_18  and  O4_4 
ROOT
HETATM    1  O1  UNK     1      18.956   6.076  33.549  1.00  0.00    -0.306 OA
HETATM    2  O2  UNK     1      18.596   1.000  33.201  1.00  0.00    -0.275 OA
HETATM    3  O5  UNK     1      18.321   1.026  35.471  1.00  0.00    -0.260 OA
HETATM    4  C1  UNK     1      18.167   3.806  33.222  1.00  0.00     0.017 A 
HETATM    5  C2  UNK     1      17.942   5.194  33.350  1.00  0.00     0.088 A 
HETATM    6  C3  UNK     1      18.427   3.093  31.961  1.00  0.00     0.011 A 
HETATM    7  C4  UNK     1      17.016   7.230  33.474  1.00  0.00     0.003 A 
HETATM    8  C5  UNK     1      18.396   7.317  33.625  1.00  0.00     0.119 A 
HETATM    9  C6  UNK     1      16.732   5.850  33.295  1.00  0.00     0.052 A 
HETATM   10  C7  UNK     1      18.633   1.715  31.989  1.00  0.00     0.093 A 
HETATM   11  C8  UNK     1      18.139   3.095  34.360  1.00  0.00     0.097 A 
HETATM   12  C9  UNK     1      19.086   8.510  33.825  1.00  0.00     0.102 A 
HETATM   13  C10 UNK     1      18.479   3.740  30.720  1.00  0.00     0.018 A 
HETATM   14  C11 UNK     1      16.259   8.414  33.523  1.00  0.00     0.014 A 
HETATM   15  C12 UNK     1      18.882   0.979  30.831  1.00  0.00     0.075 A 
HETATM   16  C13 UNK     1      18.930   1.636  29.605  1.00  0.00     0.070 A 
HETATM   17  C14 UNK     1      18.729   3.015  29.550  1.00  0.00     0.038 A 
HETATM   18  C15 UNK     1      18.315   9.675  33.871  1.00  0.00     0.040 A 
HETATM   19  C16 UNK     1      18.355   1.637  34.408  1.00  0.00     0.289 A 
HETATM   20  C17 UNK     1      16.926   9.631  33.723  1.00  0.00     0.004 A 
ENDROOT
BRANCH  12  21
HETATM   21  O3  UNK     1      20.442   8.556  33.971  1.00  0.00    -0.353 OA
HETATM   22  C18 UNK     1      20.986   9.718  34.593  1.00  0.00     0.210 C 
ENDBRANCH  12  21
BRANCH  16  23
HETATM   23  O4  UNK     1      19.171   0.937  28.464  1.00  0.00    -0.356 OA
HETATM   24  C19 UNK     1      19.781  -0.346  28.605  1.00  0.00     0.210 C 
ENDBRANCH  16  23
TORSDOF 2
ENDMDL
