MODEL 1
REMARK VINA RESULT:      -9.4      0.000      0.000
REMARK  5 active torsions:
REMARK  status: ('A' for Active; 'I' for Inactive)
REMARK    1  A    between atoms: C12_17  and  O3_3 
REMARK    2  A    between atoms: C15_20  and  O4_4 
REMARK    3  A    between atoms: C3_8  and  C9_14 
REMARK    4  A    between atoms: C11_16  and  C8_13 
REMARK    5  A    between atoms: C13_18  and  C9_14 
ROOT
HETATM    1  C11 UNK     1      19.105   4.198  30.571  1.00  0.00     0.015 C 
HETATM    2  C13 UNK     1      18.236   3.182  30.465  1.00  0.00     0.056 C 
ENDROOT
BRANCH   2   3
HETATM    3  C9  UNK     1      18.372   2.170  29.363  1.00  0.00     0.182 C 
HETATM    4  O5  UNK     1      17.950   2.420  28.224  1.00  0.00    -0.288 OA
BRANCH   3   5
HETATM    5  C3  UNK     1      19.032   0.907  29.654  1.00  0.00     0.017 A 
HETATM    6  C6  UNK     1      19.437   0.074  28.596  1.00  0.00     0.018 A 
HETATM    7  C5  UNK     1      20.074  -1.144  28.853  1.00  0.00     0.040 A 
HETATM    8  C2  UNK     1      20.285  -1.489  30.173  1.00  0.00     0.105 A 
HETATM    9  C1  UNK     1      19.889  -0.673  31.207  1.00  0.00     0.105 A 
HETATM   10  O2  UNK     1      20.887  -2.627  30.612  1.00  0.00    -0.323 OA
HETATM   11  O1  UNK     1      20.194  -1.199  32.425  1.00  0.00    -0.323 OA
HETATM   12  C4  UNK     1      19.259   0.533  30.981  1.00  0.00     0.055 A 
HETATM   13  C7  UNK     1      20.825  -2.437  32.040  1.00  0.00     0.352 A 
ENDBRANCH   3   5
ENDBRANCH   2   3
BRANCH   1  14
HETATM   14  C8  UNK     1      19.063   5.227  31.625  1.00  0.00    -0.033 A 
HETATM   15  C10 UNK     1      17.884   5.436  32.322  1.00  0.00     0.051 A 
HETATM   16  C12 UNK     1      17.844   6.410  33.318  1.00  0.00     0.102 A 
HETATM   17  C15 UNK     1      18.983   7.163  33.605  1.00  0.00     0.101 A 
HETATM   18  C16 UNK     1      20.163   6.941  32.893  1.00  0.00     0.040 A 
HETATM   19  C14 UNK     1      20.203   5.966  31.897  1.00  0.00     0.014 A 
BRANCH  16  20
HETATM   20  O3  UNK     1      16.686   6.619  34.006  1.00  0.00    -0.353 OA
HETATM   21  C17 UNK     1      15.692   7.422  33.373  1.00  0.00     0.210 C 
ENDBRANCH  16  20
BRANCH  17  22
HETATM   22  O4  UNK     1      18.957   8.117  34.577  1.00  0.00    -0.353 OA
HETATM   23  C18 UNK     1      19.965   9.124  34.525  1.00  0.00     0.210 C 
ENDBRANCH  17  22
ENDBRANCH   1  14
TORSDOF 5
ENDMDL
MODEL 2
REMARK VINA RESULT:      -8.7      0.958      2.027
REMARK  5 active torsions:
REMARK  status: ('A' for Active; 'I' for Inactive)
REMARK    1  A    between atoms: C12_17  and  O3_3 
REMARK    2  A    between atoms: C15_20  and  O4_4 
REMARK    3  A    between atoms: C3_8  and  C9_14 
REMARK    4  A    between atoms: C11_16  and  C8_13 
REMARK    5  A    between atoms: C13_18  and  C9_14 
ROOT
HETATM    1  C11 UNK     1      17.983   3.830  30.940  1.00  0.00     0.015 C 
HETATM    2  C13 UNK     1      18.866   3.371  30.041  1.00  0.00     0.056 C 
ENDROOT
BRANCH   2   3
HETATM    3  C9  UNK     1      18.563   2.146  29.226  1.00  0.00     0.182 C 
HETATM    4  O5  UNK     1      17.843   2.222  28.219  1.00  0.00    -0.288 OA
BRANCH   3   5
HETATM    5  C3  UNK     1      19.153   0.878  29.628  1.00  0.00     0.017 A 
HETATM    6  C6  UNK     1      19.591  -0.027  28.646  1.00  0.00     0.018 A 
HETATM    7  C5  UNK     1      20.161  -1.250  29.009  1.00  0.00     0.040 A 
HETATM    8  C2  UNK     1      20.273  -1.529  30.356  1.00  0.00     0.105 A 
HETATM    9  C1  UNK     1      19.844  -0.643  31.317  1.00  0.00     0.105 A 
HETATM   10  O2  UNK     1      20.800  -2.662  30.895  1.00  0.00    -0.323 OA
HETATM   11  O1  UNK     1      20.049  -1.110  32.579  1.00  0.00    -0.323 OA
HETATM   12  C4  UNK     1      19.278   0.571  30.985  1.00  0.00     0.055 A 
HETATM   13  C7  UNK     1      20.653  -2.390  32.304  1.00  0.00     0.352 A 
ENDBRANCH   3   5
ENDBRANCH   2   3
BRANCH   1  14
HETATM   14  C8  UNK     1      18.185   5.029  31.773  1.00  0.00    -0.033 A 
HETATM   15  C10 UNK     1      19.474   5.457  32.045  1.00  0.00     0.051 A 
HETATM   16  C12 UNK     1      19.664   6.592  32.832  1.00  0.00     0.102 A 
HETATM   17  C15 UNK     1      18.563   7.283  33.338  1.00  0.00     0.101 A 
HETATM   18  C16 UNK     1      17.271   6.839  33.055  1.00  0.00     0.040 A 
HETATM   19  C14 UNK     1      17.081   5.704  32.268  1.00  0.00     0.014 A 
BRANCH  16  20
HETATM   20  O3  UNK     1      20.931   7.016  33.102  1.00  0.00    -0.353 OA
HETATM   21  C17 UNK     1      22.000   6.288  32.500  1.00  0.00     0.210 C 
ENDBRANCH  16  20
BRANCH  17  22
HETATM   22  O4  UNK     1      18.736   8.394  34.108  1.00  0.00    -0.353 OA
HETATM   23  C18 UNK     1      17.829   9.474  33.901  1.00  0.00     0.210 C 
ENDBRANCH  17  22
ENDBRANCH   1  14
TORSDOF 5
ENDMDL
MODEL 3
REMARK VINA RESULT:      -8.4      1.899      2.930
REMARK  5 active torsions:
REMARK  status: ('A' for Active; 'I' for Inactive)
REMARK    1  A    between atoms: C12_17  and  O3_3 
REMARK    2  A    between atoms: C15_20  and  O4_4 
REMARK    3  A    between atoms: C3_8  and  C9_14 
REMARK    4  A    between atoms: C11_16  and  C8_13 
REMARK    5  A    between atoms: C13_18  and  C9_14 
ROOT
HETATM    1  C11 UNK     1      18.312   5.101  33.536  1.00  0.00     0.015 C 
HETATM    2  C13 UNK     1      18.075   4.332  32.463  1.00  0.00     0.056 C 
ENDROOT
BRANCH   2   3
HETATM    3  C9  UNK     1      18.251   2.842  32.534  1.00  0.00     0.182 C 
HETATM    4  O5  UNK     1      18.149   2.247  33.618  1.00  0.00    -0.288 OA
BRANCH   3   5
HETATM    5  C3  UNK     1      18.514   2.111  31.304  1.00  0.00     0.017 A 
HETATM    6  C6  UNK     1      17.989   2.583  30.089  1.00  0.00     0.018 A 
HETATM    7  C5  UNK     1      18.230   1.897  28.895  1.00  0.00     0.040 A 
HETATM    8  C2  UNK     1      18.995   0.750  28.960  1.00  0.00     0.105 A 
HETATM    9  C1  UNK     1      19.508   0.288  30.149  1.00  0.00     0.105 A 
HETATM   10  O2  UNK     1      19.332  -0.043  27.907  1.00  0.00    -0.323 OA
HETATM   11  O1  UNK     1      20.232  -0.853  29.991  1.00  0.00    -0.323 OA
HETATM   12  C4  UNK     1      19.285   0.946  31.341  1.00  0.00     0.055 A 
HETATM   13  C7  UNK     1      20.116  -1.057  28.568  1.00  0.00     0.352 A 
ENDBRANCH   3   5
ENDBRANCH   2   3
BRANCH   1  14
HETATM   14  C8  UNK     1      18.153   6.565  33.566  1.00  0.00    -0.033 A 
HETATM   15  C10 UNK     1      17.075   7.144  32.917  1.00  0.00     0.051 A 
HETATM   16  C12 UNK     1      16.925   8.530  32.946  1.00  0.00     0.102 A 
HETATM   17  C15 UNK     1      17.854   9.319  33.624  1.00  0.00     0.101 A 
HETATM   18  C16 UNK     1      18.935   8.720  34.273  1.00  0.00     0.040 A 
HETATM   19  C14 UNK     1      19.085   7.335  34.244  1.00  0.00     0.014 A 
BRANCH  16  20
HETATM   20  O3  UNK     1      15.865   9.103  32.308  1.00  0.00    -0.353 OA
HETATM   21  C17 UNK     1      14.669   9.277  33.065  1.00  0.00     0.210 C 
ENDBRANCH  16  20
BRANCH  17  22
HETATM   22  O4  UNK     1      17.718  10.674  33.660  1.00  0.00    -0.353 OA
HETATM   23  C18 UNK     1      18.883  11.435  33.971  1.00  0.00     0.210 C 
ENDBRANCH  17  22
ENDBRANCH   1  14
TORSDOF 5
ENDMDL
MODEL 4
REMARK VINA RESULT:      -8.2      2.713      9.247
REMARK  5 active torsions:
REMARK  status: ('A' for Active; 'I' for Inactive)
REMARK    1  A    between atoms: C12_17  and  O3_3 
REMARK    2  A    between atoms: C15_20  and  O4_4 
REMARK    3  A    between atoms: C3_8  and  C9_14 
REMARK    4  A    between atoms: C11_16  and  C8_13 
REMARK    5  A    between atoms: C13_18  and  C9_14 
ROOT
HETATM    1  C11 UNK     1      19.040   6.882  32.365  1.00  0.00     0.015 C 
HETATM    2  C13 UNK     1      19.092   7.155  33.678  1.00  0.00     0.056 C 
ENDROOT
BRANCH   2   3
HETATM    3  C9  UNK     1      19.299   8.563  34.159  1.00  0.00     0.182 C 
HETATM    4  O5  UNK     1      20.428   8.959  34.483  1.00  0.00    -0.288 OA
BRANCH   3   5
HETATM    5  C3  UNK     1      18.152   9.456  34.211  1.00  0.00     0.017 A 
HETATM    6  C6  UNK     1      18.339  10.839  34.038  1.00  0.00     0.018 A 
HETATM    7  C5  UNK     1      17.251  11.715  34.083  1.00  0.00     0.040 A 
HETATM    8  C2  UNK     1      16.001  11.173  34.303  1.00  0.00     0.105 A 
HETATM    9  C1  UNK     1      15.818   9.820  34.473  1.00  0.00     0.105 A 
HETATM   10  O2  UNK     1      14.832  11.866  34.376  1.00  0.00    -0.323 OA
HETATM   11  O1  UNK     1      14.512   9.496  34.673  1.00  0.00    -0.323 OA
HETATM   12  C4  UNK     1      16.875   8.933  34.432  1.00  0.00     0.055 A 
HETATM   13  C7  UNK     1      13.893  10.797  34.613  1.00  0.00     0.352 A 
ENDBRANCH   3   5
ENDBRANCH   2   3
BRANCH   1  14
HETATM   14  C8  UNK     1      18.827   5.539  31.799  1.00  0.00    -0.033 A 
HETATM   15  C10 UNK     1      18.281   4.545  32.596  1.00  0.00     0.051 A 
HETATM   16  C12 UNK     1      18.079   3.274  32.059  1.00  0.00     0.102 A 
HETATM   17  C15 UNK     1      18.426   3.013  30.734  1.00  0.00     0.101 A 
HETATM   18  C16 UNK     1      18.974   4.025  29.944  1.00  0.00     0.040 A 
HETATM   19  C14 UNK     1      19.176   5.296  30.481  1.00  0.00     0.014 A 
BRANCH  16  20
HETATM   20  O3  UNK     1      17.543   2.295  32.841  1.00  0.00    -0.353 OA
HETATM   21  C17 UNK     1      18.295   1.894  33.985  1.00  0.00     0.210 C 
ENDBRANCH  16  20
BRANCH  17  22
HETATM   22  O4  UNK     1      18.232   1.776  30.198  1.00  0.00    -0.353 OA
HETATM   23  C18 UNK     1      17.872   1.715  28.820  1.00  0.00     0.210 C 
ENDBRANCH  17  22
ENDBRANCH   1  14
TORSDOF 5
ENDMDL
MODEL 5
REMARK VINA RESULT:      -7.9      6.629     11.883
REMARK  5 active torsions:
REMARK  status: ('A' for Active; 'I' for Inactive)
REMARK    1  A    between atoms: C12_17  and  O3_3 
REMARK    2  A    between atoms: C15_20  and  O4_4 
REMARK    3  A    between atoms: C3_8  and  C9_14 
REMARK    4  A    between atoms: C11_16  and  C8_13 
REMARK    5  A    between atoms: C13_18  and  C9_14 
ROOT
HETATM    1  C11 UNK     1      19.758  -4.679  36.022  1.00  0.00     0.015 C 
HETATM    2  C13 UNK     1      20.355  -3.647  36.637  1.00  0.00     0.056 C 
ENDROOT
BRANCH   2   3
HETATM    3  C9  UNK     1      20.522  -2.330  35.933  1.00  0.00     0.182 C 
HETATM    4  O5  UNK     1      21.654  -1.894  35.673  1.00  0.00    -0.288 OA
BRANCH   3   5
HETATM    5  C3  UNK     1      19.330  -1.593  35.541  1.00  0.00     0.017 A 
HETATM    6  C6  UNK     1      19.078  -1.353  34.179  1.00  0.00     0.018 A 
HETATM    7  C5  UNK     1      17.939  -0.648  33.780  1.00  0.00     0.040 A 
HETATM    8  C2  UNK     1      17.083  -0.203  34.768  1.00  0.00     0.105 A 
HETATM    9  C1  UNK     1      17.331  -0.438  36.100  1.00  0.00     0.105 A 
HETATM   10  O2  UNK     1      15.932   0.494  34.570  1.00  0.00    -0.323 OA
HETATM   11  O1  UNK     1      16.364   0.082  36.905  1.00  0.00    -0.323 OA
HETATM   12  C4  UNK     1      18.448  -1.131  36.521  1.00  0.00     0.055 A 
HETATM   13  C7  UNK     1      15.482   0.672  35.929  1.00  0.00     0.352 A 
ENDBRANCH   3   5
ENDBRANCH   2   3
BRANCH   1  14
HETATM   14  C8  UNK     1      19.536  -6.000  36.634  1.00  0.00    -0.033 A 
HETATM   15  C10 UNK     1      20.097  -6.279  37.870  1.00  0.00     0.051 A 
HETATM   16  C12 UNK     1      19.886  -7.530  38.449  1.00  0.00     0.102 A 
HETATM   17  C15 UNK     1      19.117  -8.486  37.785  1.00  0.00     0.101 A 
HETATM   18  C16 UNK     1      18.559  -8.190  36.541  1.00  0.00     0.040 A 
HETATM   19  C14 UNK     1      18.770  -6.939  35.962  1.00  0.00     0.014 A 
BRANCH  16  20
HETATM   20  O3  UNK     1      20.437  -7.807  39.664  1.00  0.00    -0.353 OA
HETATM   21  C17 UNK     1      21.839  -8.065  39.696  1.00  0.00     0.210 C 
ENDBRANCH  16  20
BRANCH  17  22
HETATM   22  O4  UNK     1      18.903  -9.711  38.340  1.00  0.00    -0.353 OA
HETATM   23  C18 UNK     1      19.671 -10.798  37.830  1.00  0.00     0.210 C 
ENDBRANCH  17  22
ENDBRANCH   1  14
TORSDOF 5
ENDMDL
MODEL 6
REMARK VINA RESULT:      -7.9      3.648      4.557
REMARK  5 active torsions:
REMARK  status: ('A' for Active; 'I' for Inactive)
REMARK    1  A    between atoms: C12_17  and  O3_3 
REMARK    2  A    between atoms: C15_20  and  O4_4 
REMARK    3  A    between atoms: C3_8  and  C9_14 
REMARK    4  A    between atoms: C11_16  and  C8_13 
REMARK    5  A    between atoms: C13_18  and  C9_14 
ROOT
HETATM    1  C11 UNK     1      18.100   4.510  32.955  1.00  0.00     0.015 C 
HETATM    2  C13 UNK     1      18.156   3.658  33.989  1.00  0.00     0.056 C 
ENDROOT
BRANCH   2   3
HETATM    3  C9  UNK     1      18.170   2.173  33.758  1.00  0.00     0.182 C 
HETATM    4  O5  UNK     1      18.193   1.716  32.605  1.00  0.00    -0.288 OA
BRANCH   3   5
HETATM    5  C3  UNK     1      18.184   1.288  34.912  1.00  0.00     0.017 A 
HETATM    6  C6  UNK     1      17.753   1.767  36.161  1.00  0.00     0.018 A 
HETATM    7  C5  UNK     1      17.758   0.934  37.284  1.00  0.00     0.040 A 
HETATM    8  C2  UNK     1      18.200  -0.362  37.115  1.00  0.00     0.105 A 
HETATM    9  C1  UNK     1      18.622  -0.831  35.893  1.00  0.00     0.105 A 
HETATM   10  O2  UNK     1      18.273  -1.312  38.087  1.00  0.00    -0.323 OA
HETATM   11  O1  UNK     1      19.013  -2.134  35.946  1.00  0.00    -0.323 OA
HETATM   12  C4  UNK     1      18.627  -0.029  34.770  1.00  0.00     0.055 A 
HETATM   13  C7  UNK     1      18.791  -2.431  37.339  1.00  0.00     0.352 A 
ENDBRANCH   3   5
ENDBRANCH   2   3
BRANCH   1  14
HETATM   14  C8  UNK     1      18.098   5.978  33.082  1.00  0.00    -0.033 A 
HETATM   15  C10 UNK     1      17.074   6.708  32.500  1.00  0.00     0.051 A 
HETATM   16  C12 UNK     1      17.072   8.097  32.620  1.00  0.00     0.102 A 
HETATM   17  C15 UNK     1      18.094   8.738  33.320  1.00  0.00     0.101 A 
HETATM   18  C16 UNK     1      19.119   7.989  33.900  1.00  0.00     0.040 A 
HETATM   19  C14 UNK     1      19.121   6.600  33.779  1.00  0.00     0.014 A 
BRANCH  16  20
HETATM   20  O3  UNK     1      16.066   8.818  32.050  1.00  0.00    -0.353 OA
HETATM   21  C17 UNK     1      14.856   8.945  32.795  1.00  0.00     0.210 C 
ENDBRANCH  16  20
BRANCH  17  22
HETATM   22  O4  UNK     1      18.103  10.095  33.445  1.00  0.00    -0.353 OA
HETATM   23  C18 UNK     1      19.174  10.670  34.190  1.00  0.00     0.210 C 
ENDBRANCH  17  22
ENDBRANCH   1  14
TORSDOF 5
ENDMDL
MODEL 7
REMARK VINA RESULT:      -7.9      1.889      3.554
REMARK  5 active torsions:
REMARK  status: ('A' for Active; 'I' for Inactive)
REMARK    1  A    between atoms: C12_17  and  O3_3 
REMARK    2  A    between atoms: C15_20  and  O4_4 
REMARK    3  A    between atoms: C3_8  and  C9_14 
REMARK    4  A    between atoms: C11_16  and  C8_13 
REMARK    5  A    between atoms: C13_18  and  C9_14 
ROOT
HETATM    1  C11 UNK     1      17.977   5.253  33.481  1.00  0.00     0.015 C 
HETATM    2  C13 UNK     1      17.887   4.458  32.405  1.00  0.00     0.056 C 
ENDROOT
BRANCH   2   3
HETATM    3  C9  UNK     1      18.245   3.001  32.498  1.00  0.00     0.182 C 
HETATM    4  O5  UNK     1      18.324   2.441  33.601  1.00  0.00    -0.288 OA
BRANCH   3   5
HETATM    5  C3  UNK     1      18.469   2.259  31.267  1.00  0.00     0.017 A 
HETATM    6  C6  UNK     1      17.898   2.716  30.066  1.00  0.00     0.018 A 
HETATM    7  C5  UNK     1      18.100   2.019  28.871  1.00  0.00     0.040 A 
HETATM    8  C2  UNK     1      18.874   0.877  28.921  1.00  0.00     0.105 A 
HETATM    9  C1  UNK     1      19.432   0.430  30.096  1.00  0.00     0.105 A 
HETATM   10  O2  UNK     1      19.179   0.074  27.865  1.00  0.00    -0.323 OA
HETATM   11  O1  UNK     1      20.157  -0.709  29.923  1.00  0.00    -0.323 OA
HETATM   12  C4  UNK     1      19.248   1.099  31.288  1.00  0.00     0.055 A 
HETATM   13  C7  UNK     1      19.991  -0.929  28.508  1.00  0.00     0.352 A 
ENDBRANCH   3   5
ENDBRANCH   2   3
BRANCH   1  14
HETATM   14  C8  UNK     1      17.634   6.686  33.492  1.00  0.00    -0.033 A 
HETATM   15  C10 UNK     1      18.604   7.613  33.836  1.00  0.00     0.051 A 
HETATM   16  C12 UNK     1      18.279   8.969  33.846  1.00  0.00     0.102 A 
HETATM   17  C15 UNK     1      16.988   9.380  33.512  1.00  0.00     0.101 A 
HETATM   18  C16 UNK     1      16.022   8.433  33.169  1.00  0.00     0.040 A 
HETATM   19  C14 UNK     1      16.347   7.077  33.159  1.00  0.00     0.014 A 
BRANCH  16  20
HETATM   20  O3  UNK     1      19.231   9.884  34.183  1.00  0.00    -0.353 OA
HETATM   21  C17 UNK     1      20.528   9.382  34.501  1.00  0.00     0.210 C 
ENDBRANCH  16  20
BRANCH  17  22
HETATM   22  O4  UNK     1      16.659  10.702  33.517  1.00  0.00    -0.353 OA
HETATM   23  C18 UNK     1      15.339  11.039  33.940  1.00  0.00     0.210 C 
ENDBRANCH  17  22
ENDBRANCH   1  14
TORSDOF 5
ENDMDL
MODEL 8
REMARK VINA RESULT:      -7.9     12.834     15.783
REMARK  5 active torsions:
REMARK  status: ('A' for Active; 'I' for Inactive)
REMARK    1  A    between atoms: C12_17  and  O3_3 
REMARK    2  A    between atoms: C15_20  and  O4_4 
REMARK    3  A    between atoms: C3_8  and  C9_14 
REMARK    4  A    between atoms: C11_16  and  C8_13 
REMARK    5  A    between atoms: C13_18  and  C9_14 
ROOT
HETATM    1  C11 UNK     1      18.964  -0.570  16.439  1.00  0.00     0.015 C 
HETATM    2  C13 UNK     1      18.540  -1.837  16.320  1.00  0.00     0.056 C 
ENDROOT
BRANCH   2   3
HETATM    3  C9  UNK     1      18.606  -2.545  14.996  1.00  0.00     0.182 C 
HETATM    4  O5  UNK     1      17.971  -2.117  14.020  1.00  0.00    -0.288 OA
BRANCH   3   5
HETATM    5  C3  UNK     1      19.450  -3.724  14.877  1.00  0.00     0.017 A 
HETATM    6  C6  UNK     1      20.465  -3.950  15.822  1.00  0.00     0.018 A 
HETATM    7  C5  UNK     1      21.288  -5.077  15.728  1.00  0.00     0.040 A 
HETATM    8  C2  UNK     1      21.063  -5.946  14.680  1.00  0.00     0.105 A 
HETATM    9  C1  UNK     1      20.069  -5.725  13.755  1.00  0.00     0.105 A 
HETATM   10  O2  UNK     1      21.758  -7.089  14.430  1.00  0.00    -0.323 OA
HETATM   11  O1  UNK     1      20.017  -6.702  12.809  1.00  0.00    -0.323 OA
HETATM   12  C4  UNK     1      19.244  -4.621  13.826  1.00  0.00     0.055 A 
HETATM   13  C7  UNK     1      21.090  -7.562  13.242  1.00  0.00     0.352 A 
ENDBRANCH   3   5
ENDBRANCH   2   3
BRANCH   1  14
HETATM   14  C8  UNK     1      18.953   0.199  17.695  1.00  0.00    -0.033 A 
HETATM   15  C10 UNK     1      19.127   1.573  17.650  1.00  0.00     0.051 A 
HETATM   16  C12 UNK     1      19.117   2.301  18.839  1.00  0.00     0.102 A 
HETATM   17  C15 UNK     1      18.934   1.646  20.057  1.00  0.00     0.101 A 
HETATM   18  C16 UNK     1      18.760   0.262  20.085  1.00  0.00     0.040 A 
HETATM   19  C14 UNK     1      18.770  -0.466  18.896  1.00  0.00     0.014 A 
BRANCH  16  20
HETATM   20  O3  UNK     1      19.287   3.653  18.799  1.00  0.00    -0.353 OA
HETATM   21  C17 UNK     1      20.607   4.132  18.549  1.00  0.00     0.210 C 
ENDBRANCH  16  20
BRANCH  17  22
HETATM   22  O4  UNK     1      18.921   2.347  21.226  1.00  0.00    -0.353 OA
HETATM   23  C18 UNK     1      20.095   2.285  22.032  1.00  0.00     0.210 C 
ENDBRANCH  17  22
ENDBRANCH   1  14
TORSDOF 5
ENDMDL
MODEL 9
REMARK VINA RESULT:      -7.8      6.879     10.151
REMARK  5 active torsions:
REMARK  status: ('A' for Active; 'I' for Inactive)
REMARK    1  A    between atoms: C12_17  and  O3_3 
REMARK    2  A    between atoms: C15_20  and  O4_4 
REMARK    3  A    between atoms: C3_8  and  C9_14 
REMARK    4  A    between atoms: C11_16  and  C8_13 
REMARK    5  A    between atoms: C13_18  and  C9_14 
ROOT
HETATM    1  C11 UNK     1      20.436  -3.586  36.529  1.00  0.00     0.015 C 
HETATM    2  C13 UNK     1      20.604  -4.131  37.743  1.00  0.00     0.056 C 
ENDROOT
BRANCH   2   3
HETATM    3  C9  UNK     1      21.578  -5.258  37.948  1.00  0.00     0.182 C 
HETATM    4  O5  UNK     1      22.797  -5.035  37.991  1.00  0.00    -0.288 OA
BRANCH   3   5
HETATM    5  C3  UNK     1      21.058  -6.605  38.122  1.00  0.00     0.017 A 
HETATM    6  C6  UNK     1      20.382  -6.942  39.308  1.00  0.00     0.018 A 
HETATM    7  C5  UNK     1      19.874  -8.230  39.496  1.00  0.00     0.040 A 
HETATM    8  C2  UNK     1      20.063  -9.147  38.482  1.00  0.00     0.105 A 
HETATM    9  C1  UNK     1      20.725  -8.817  37.322  1.00  0.00     0.105 A 
HETATM   10  O2  UNK     1      19.640 -10.440  38.487  1.00  0.00    -0.323 OA
HETATM   11  O1  UNK     1      20.800  -9.863  36.454  1.00  0.00    -0.323 OA
HETATM   12  C4  UNK     1      21.236  -7.553  37.111  1.00  0.00     0.055 A 
HETATM   13  C7  UNK     1      20.111 -10.888  37.199  1.00  0.00     0.352 A 
ENDBRANCH   3   5
ENDBRANCH   2   3
BRANCH   1  14
HETATM   14  C8  UNK     1      19.519  -2.472  36.234  1.00  0.00    -0.033 A 
HETATM   15  C10 UNK     1      19.551  -1.879  34.982  1.00  0.00     0.051 A 
HETATM   16  C12 UNK     1      18.683  -0.824  34.703  1.00  0.00     0.102 A 
HETATM   17  C15 UNK     1      17.794  -0.376  35.679  1.00  0.00     0.101 A 
HETATM   18  C16 UNK     1      17.773  -0.983  36.936  1.00  0.00     0.040 A 
HETATM   19  C14 UNK     1      18.641  -2.038  37.215  1.00  0.00     0.014 A 
BRANCH  16  20
HETATM   20  O3  UNK     1      18.713  -0.239  33.473  1.00  0.00    -0.353 OA
HETATM   21  C17 UNK     1      19.010  -1.082  32.361  1.00  0.00     0.210 C 
ENDBRANCH  16  20
BRANCH  17  22
HETATM   22  O4  UNK     1      16.939   0.653  35.419  1.00  0.00    -0.353 OA
HETATM   23  C18 UNK     1      15.612   0.539  35.927  1.00  0.00     0.210 C 
ENDBRANCH  17  22
ENDBRANCH   1  14
TORSDOF 5
ENDMDL
MODEL 10
REMARK VINA RESULT:      -7.7      3.065      8.398
REMARK  5 active torsions:
REMARK  status: ('A' for Active; 'I' for Inactive)
REMARK    1  A    between atoms: C12_17  and  O3_3 
REMARK    2  A    between atoms: C15_20  and  O4_4 
REMARK    3  A    between atoms: C3_8  and  C9_14 
REMARK    4  A    between atoms: C11_16  and  C8_13 
REMARK    5  A    between atoms: C13_18  and  C9_14 
ROOT
HETATM    1  C11 UNK     1      18.318   3.878  33.662  1.00  0.00     0.015 C 
HETATM    2  C13 UNK     1      18.206   4.116  32.347  1.00  0.00     0.056 C 
ENDROOT
BRANCH   2   3
HETATM    3  C9  UNK     1      18.231   5.522  31.819  1.00  0.00     0.182 C 
HETATM    4  O5  UNK     1      18.660   5.759  30.679  1.00  0.00    -0.288 OA
BRANCH   3   5
HETATM    5  C3  UNK     1      17.717   6.592  32.660  1.00  0.00     0.017 A 
HETATM    6  C6  UNK     1      18.614   7.424  33.352  1.00  0.00     0.018 A 
HETATM    7  C5  UNK     1      18.142   8.458  34.166  1.00  0.00     0.040 A 
HETATM    8  C2  UNK     1      16.775   8.624  34.260  1.00  0.00     0.105 A 
HETATM    9  C1  UNK     1      15.898   7.809  33.583  1.00  0.00     0.105 A 
HETATM   10  O2  UNK     1      16.137   9.573  34.999  1.00  0.00    -0.323 OA
HETATM   11  O1  UNK     1      14.599   8.145  33.812  1.00  0.00    -0.323 OA
HETATM   12  C4  UNK     1      16.338   6.782  32.774  1.00  0.00     0.055 A 
HETATM   13  C7  UNK     1      14.758   9.262  34.711  1.00  0.00     0.352 A 
ENDBRANCH   3   5
ENDBRANCH   2   3
BRANCH   1  14
HETATM   14  C8  UNK     1      18.320   2.536  34.271  1.00  0.00    -0.033 A 
HETATM   15  C10 UNK     1      18.152   1.424  33.463  1.00  0.00     0.051 A 
HETATM   16  C12 UNK     1      18.154   0.154  34.040  1.00  0.00     0.102 A 
HETATM   17  C15 UNK     1      18.324   0.014  35.417  1.00  0.00     0.101 A 
HETATM   18  C16 UNK     1      18.492   1.144  36.218  1.00  0.00     0.040 A 
HETATM   19  C14 UNK     1      18.490   2.414  35.641  1.00  0.00     0.014 A 
BRANCH  16  20
HETATM   20  O3  UNK     1      17.988  -0.942  33.247  1.00  0.00    -0.353 OA
HETATM   21  C17 UNK     1      19.020  -1.221  32.303  1.00  0.00     0.210 C 
ENDBRANCH  16  20
BRANCH  17  22
HETATM   22  O4  UNK     1      18.328  -1.221  35.993  1.00  0.00    -0.353 OA
HETATM   23  C18 UNK     1      18.003  -1.292  37.379  1.00  0.00     0.210 C 
ENDBRANCH  17  22
ENDBRANCH   1  14
TORSDOF 5
ENDMDL
