MODEL 1
REMARK VINA RESULT:      -7.9      0.000      0.000
REMARK  4 active torsions:
REMARK  status: ('A' for Active; 'I' for Inactive)
REMARK    1  A    between atoms: C4_11  and  N1_5 
REMARK    2  A    between atoms: C2_9  and  N2_6 
REMARK       I    between atoms: C7_14  and  N2_6 
REMARK    3  A    between atoms: C1_8  and  C2_9 
REMARK    4  A    between atoms: C7_14  and  C8_15 
ROOT
HETATM    1  O2  UNK     1      10.890   7.163   6.731  1.00  0.00    -0.267 OA
HETATM    2  N2  UNK     1      11.444   5.589   8.356  1.00  0.00    -0.348 N 
HETATM    3  C7  UNK     1      10.613   6.545   7.766  1.00  0.00     0.259 C 
HETATM    4  C9  UNK     1      11.074   4.884   9.580  1.00  0.00     0.153 C 
ENDROOT
BRANCH   3   5
HETATM    5  C8  UNK     1       9.337   6.841   8.431  1.00  0.00     0.108 A 
HETATM    6  C12 UNK     1       9.328   7.897   9.251  1.00  0.00     0.037 A 
HETATM    7  C11 UNK     1       8.111   8.268   9.956  1.00  0.00     0.000 A 
HETATM    8  C13 UNK     1       6.962   7.508   9.760  1.00  0.00     0.089 A 
HETATM    9  C15 UNK     1       8.056   9.363  10.822  1.00  0.00     0.033 A 
HETATM   10  O1  UNK     1       6.977   6.398   8.894  1.00  0.00    -0.274 OA
HETATM   11  C16 UNK     1       5.764   7.811  10.404  1.00  0.00     0.039 A 
HETATM   12  C14 UNK     1       8.127   6.018   8.207  1.00  0.00     0.304 A 
HETATM   13  O3  UNK     1       8.131   5.049   7.455  1.00  0.00    -0.259 OA
HETATM   14  C18 UNK     1       5.717   8.904  11.266  1.00  0.00     0.022 A 
HETATM   15  C17 UNK     1       6.861   9.679  11.475  1.00  0.00     0.011 A 
HETATM   16 Br1  UNK     1       6.791  11.161  12.647  1.00  0.00    -0.051 Br
ENDBRANCH   3   5
BRANCH   2  17
HETATM   17  C2  UNK     1      12.738   5.230   7.789  1.00  0.00     0.167 C 
BRANCH  17  18
HETATM   18  C1  UNK     1      13.863   5.666   8.688  1.00  0.00     0.003 A 
HETATM   19  C3  UNK     1      14.285   6.935   8.904  1.00  0.00     0.036 A 
HETATM   20  N1  UNK     1      15.315   6.813   9.791  1.00  0.00    -0.274 N 
HETATM   21  C6  UNK     1      13.835   8.236   8.375  1.00  0.00     0.070 C 
HETATM   22  N3  UNK     1      15.572   5.545  10.152  1.00  0.00    -0.184 NA
HETATM   23  C5  UNK     1      14.669   4.843   9.463  1.00  0.00     0.149 A 
BRANCH  20  24
HETATM   24  C4  UNK     1      16.111   7.880  10.348  1.00  0.00     0.146 C 
HETATM   25  C10 UNK     1      15.640   8.286  11.733  1.00  0.00     0.028 C 
ENDBRANCH  20  24
ENDBRANCH  17  18
ENDBRANCH   2  17
TORSDOF 4
ENDMDL
MODEL 2
REMARK VINA RESULT:      -7.7     23.089     25.075
REMARK  4 active torsions:
REMARK  status: ('A' for Active; 'I' for Inactive)
REMARK    1  A    between atoms: C4_11  and  N1_5 
REMARK    2  A    between atoms: C2_9  and  N2_6 
REMARK       I    between atoms: C7_14  and  N2_6 
REMARK    3  A    between atoms: C1_8  and  C2_9 
REMARK    4  A    between atoms: C7_14  and  C8_15 
ROOT
HETATM    1  O2  UNK     1      17.199   8.105  31.597  1.00  0.00    -0.267 OA
HETATM    2  N2  UNK     1      18.391   7.640  33.544  1.00  0.00    -0.348 N 
HETATM    3  C7  UNK     1      17.343   8.218  32.821  1.00  0.00     0.259 C 
HETATM    4  C9  UNK     1      18.521   7.801  34.990  1.00  0.00     0.153 C 
ENDROOT
BRANCH   3   5
HETATM    5  C8  UNK     1      16.364   9.019  33.565  1.00  0.00     0.108 A 
HETATM    6  C12 UNK     1      16.713  10.283  33.832  1.00  0.00     0.037 A 
HETATM    7  C11 UNK     1      15.809  11.154  34.565  1.00  0.00     0.000 A 
HETATM    8  C13 UNK     1      14.579  10.653  34.980  1.00  0.00     0.089 A 
HETATM    9  C15 UNK     1      16.133  12.479  34.866  1.00  0.00     0.033 A 
HETATM   10  O1  UNK     1      14.216   9.322  34.695  1.00  0.00    -0.274 OA
HETATM   11  C16 UNK     1      13.668  11.436  35.685  1.00  0.00     0.039 A 
HETATM   12  C14 UNK     1      15.061   8.464  33.996  1.00  0.00     0.304 A 
HETATM   13  O3  UNK     1      14.737   7.306  33.752  1.00  0.00    -0.259 OA
HETATM   14  C18 UNK     1      13.998  12.756  35.982  1.00  0.00     0.022 A 
HETATM   15  C17 UNK     1      15.228  13.277  35.573  1.00  0.00     0.011 A 
HETATM   16 Br1  UNK     1      15.671  15.070  35.978  1.00  0.00    -0.051 Br
ENDBRANCH   3   5
BRANCH   2  17
HETATM   17  C2  UNK     1      19.427   6.839  32.904  1.00  0.00     0.167 C 
BRANCH  17  18
HETATM   18  C1  UNK     1      18.889   5.501  32.476  1.00  0.00     0.003 A 
HETATM   19  C3  UNK     1      18.927   4.971  31.230  1.00  0.00     0.036 A 
HETATM   20  N1  UNK     1      18.323   3.753  31.351  1.00  0.00    -0.274 N 
HETATM   21  C6  UNK     1      19.460   5.476  29.951  1.00  0.00     0.070 C 
HETATM   22  N3  UNK     1      17.906   3.476  32.598  1.00  0.00    -0.184 NA
HETATM   23  C5  UNK     1      18.260   4.565  33.286  1.00  0.00     0.149 A 
BRANCH  20  24
HETATM   24  C4  UNK     1      18.109   2.783  30.304  1.00  0.00     0.146 C 
HETATM   25  C10 UNK     1      19.008   1.568  30.452  1.00  0.00     0.028 C 
ENDBRANCH  20  24
ENDBRANCH  17  18
ENDBRANCH   2  17
TORSDOF 4
ENDMDL
MODEL 3
REMARK VINA RESULT:      -7.5     28.837     30.871
REMARK  4 active torsions:
REMARK  status: ('A' for Active; 'I' for Inactive)
REMARK    1  A    between atoms: C4_11  and  N1_5 
REMARK    2  A    between atoms: C2_9  and  N2_6 
REMARK       I    between atoms: C7_14  and  N2_6 
REMARK    3  A    between atoms: C1_8  and  C2_9 
REMARK    4  A    between atoms: C7_14  and  C8_15 
ROOT
HETATM    1  O2  UNK     1      21.497  -4.610  37.275  1.00  0.00    -0.267 OA
HETATM    2  N2  UNK     1      19.453  -5.687  36.977  1.00  0.00    -0.348 N 
HETATM    3  C7  UNK     1      20.332  -4.606  36.859  1.00  0.00     0.259 C 
HETATM    4  C9  UNK     1      18.085  -5.636  36.470  1.00  0.00     0.153 C 
ENDROOT
BRANCH   3   5
HETATM    5  C8  UNK     1      19.830  -3.388  36.212  1.00  0.00     0.108 A 
HETATM    6  C12 UNK     1      19.132  -2.551  36.987  1.00  0.00     0.037 A 
HETATM    7  C11 UNK     1      18.592  -1.318  36.436  1.00  0.00     0.000 A 
HETATM    8  C13 UNK     1      18.817  -1.026  35.094  1.00  0.00     0.089 A 
HETATM    9  C15 UNK     1      17.856  -0.416  37.208  1.00  0.00     0.033 A 
HETATM   10  O1  UNK     1      19.554  -1.911  34.283  1.00  0.00    -0.274 OA
HETATM   11  C16 UNK     1      18.328   0.138  34.505  1.00  0.00     0.039 A 
HETATM   12  C14 UNK     1      20.081  -3.098  34.782  1.00  0.00     0.304 A 
HETATM   13  O3  UNK     1      20.722  -3.863  34.068  1.00  0.00    -0.259 OA
HETATM   14  C18 UNK     1      17.595   1.032  35.282  1.00  0.00     0.022 A 
HETATM   15  C17 UNK     1      17.360   0.757  36.631  1.00  0.00     0.011 A 
HETATM   16 Br1  UNK     1      16.365   1.975  37.680  1.00  0.00    -0.051 Br
ENDBRANCH   3   5
BRANCH   2  17
HETATM   17  C2  UNK     1      19.843  -6.938  37.615  1.00  0.00     0.167 C 
BRANCH  17  18
HETATM   18  C1  UNK     1      20.431  -7.896  36.616  1.00  0.00     0.003 A 
HETATM   19  C3  UNK     1      20.682  -9.214  36.804  1.00  0.00     0.036 A 
HETATM   20  N1  UNK     1      21.204  -9.642  35.618  1.00  0.00    -0.274 N 
HETATM   21  C6  UNK     1      20.489 -10.107  37.962  1.00  0.00     0.070 C 
HETATM   22  N3  UNK     1      21.299  -8.677  34.688  1.00  0.00    -0.184 NA
HETATM   23  C5  UNK     1      20.819  -7.601  35.316  1.00  0.00     0.149 A 
BRANCH  20  24
HETATM   24  C4  UNK     1      21.639 -10.979  35.294  1.00  0.00     0.146 C 
HETATM   25  C10 UNK     1      23.071 -11.239  35.725  1.00  0.00     0.028 C 
ENDBRANCH  20  24
ENDBRANCH  17  18
ENDBRANCH   2  17
TORSDOF 4
ENDMDL
MODEL 4
REMARK VINA RESULT:      -7.5     28.665     30.835
REMARK  4 active torsions:
REMARK  status: ('A' for Active; 'I' for Inactive)
REMARK    1  A    between atoms: C4_11  and  N1_5 
REMARK    2  A    between atoms: C2_9  and  N2_6 
REMARK       I    between atoms: C7_14  and  N2_6 
REMARK    3  A    between atoms: C1_8  and  C2_9 
REMARK    4  A    between atoms: C7_14  and  C8_15 
ROOT
HETATM    1  O2  UNK     1      21.450  -4.054  37.833  1.00  0.00    -0.267 OA
HETATM    2  N2  UNK     1      19.629  -5.434  37.383  1.00  0.00    -0.348 N 
HETATM    3  C7  UNK     1      20.400  -4.280  37.219  1.00  0.00     0.259 C 
HETATM    4  C9  UNK     1      18.393  -5.658  36.636  1.00  0.00     0.153 C 
ENDROOT
BRANCH   3   5
HETATM    5  C8  UNK     1      19.920  -3.270  36.268  1.00  0.00     0.108 A 
HETATM    6  C12 UNK     1      20.355  -3.389  35.009  1.00  0.00     0.037 A 
HETATM    7  C11 UNK     1      19.936  -2.434  33.995  1.00  0.00     0.000 A 
HETATM    8  C13 UNK     1      19.077  -1.402  34.357  1.00  0.00     0.089 A 
HETATM    9  C15 UNK     1      20.366  -2.520  32.668  1.00  0.00     0.033 A 
HETATM   10  O1  UNK     1      18.621  -1.282  35.684  1.00  0.00    -0.274 OA
HETATM   11  C16 UNK     1      18.637  -0.455  33.433  1.00  0.00     0.039 A 
HETATM   12  C14 UNK     1      19.006  -2.179  36.676  1.00  0.00     0.304 A 
HETATM   13  O3  UNK     1      18.604  -2.068  37.830  1.00  0.00    -0.259 OA
HETATM   14  C18 UNK     1      19.071  -0.548  32.113  1.00  0.00     0.022 A 
HETATM   15  C17 UNK     1      19.934  -1.578  31.730  1.00  0.00     0.011 A 
HETATM   16 Br1  UNK     1      20.518  -1.698  29.937  1.00  0.00    -0.051 Br
ENDBRANCH   3   5
BRANCH   2  17
HETATM   17  C2  UNK     1      20.004  -6.493  38.312  1.00  0.00     0.167 C 
BRANCH  17  18
HETATM   18  C1  UNK     1      20.798  -7.566  37.617  1.00  0.00     0.003 A 
HETATM   19  C3  UNK     1      20.321  -8.724  37.102  1.00  0.00     0.036 A 
HETATM   20  N1  UNK     1      21.416  -9.350  36.581  1.00  0.00    -0.274 N 
HETATM   21  C6  UNK     1      18.966  -9.304  37.046  1.00  0.00     0.070 C 
HETATM   22  N3  UNK     1      22.558  -8.660  36.733  1.00  0.00    -0.184 NA
HETATM   23  C5  UNK     1      22.165  -7.558  37.376  1.00  0.00     0.149 A 
BRANCH  20  24
HETATM   24  C4  UNK     1      21.448 -10.628  35.910  1.00  0.00     0.146 C 
HETATM   25  C10 UNK     1      22.865 -11.115  35.668  1.00  0.00     0.028 C 
ENDBRANCH  20  24
ENDBRANCH  17  18
ENDBRANCH   2  17
TORSDOF 4
ENDMDL
MODEL 5
REMARK VINA RESULT:      -7.5     13.130     14.796
REMARK  4 active torsions:
REMARK  status: ('A' for Active; 'I' for Inactive)
REMARK    1  A    between atoms: C4_11  and  N1_5 
REMARK    2  A    between atoms: C2_9  and  N2_6 
REMARK       I    between atoms: C7_14  and  N2_6 
REMARK    3  A    between atoms: C1_8  and  C2_9 
REMARK    4  A    between atoms: C7_14  and  C8_15 
ROOT
HETATM    1  O2  UNK     1      17.614  -3.498  14.970  1.00  0.00    -0.267 OA
HETATM    2  N2  UNK     1      19.924  -3.772  14.850  1.00  0.00    -0.348 N 
HETATM    3  C7  UNK     1      18.757  -3.040  15.089  1.00  0.00     0.259 C 
HETATM    4  C9  UNK     1      21.254  -3.188  15.004  1.00  0.00     0.153 C 
ENDROOT
BRANCH   3   5
HETATM    5  C8  UNK     1      18.904  -1.636  15.492  1.00  0.00     0.108 A 
HETATM    6  C12 UNK     1      18.846  -1.388  16.806  1.00  0.00     0.037 A 
HETATM    7  C11 UNK     1      18.980  -0.028  17.303  1.00  0.00     0.000 A 
HETATM    8  C13 UNK     1      19.172   1.005  16.391  1.00  0.00     0.089 A 
HETATM    9  C15 UNK     1      18.924   0.276  18.665  1.00  0.00     0.033 A 
HETATM   10  O1  UNK     1      19.233   0.738  15.009  1.00  0.00    -0.274 OA
HETATM   11  C16 UNK     1      19.308   2.330  16.801  1.00  0.00     0.039 A 
HETATM   12  C14 UNK     1      19.107  -0.552  14.504  1.00  0.00     0.304 A 
HETATM   13  O3  UNK     1      19.162  -0.776  13.300  1.00  0.00    -0.259 OA
HETATM   14  C18 UNK     1      19.251   2.625  18.161  1.00  0.00     0.022 A 
HETATM   15  C17 UNK     1      19.060   1.601  19.092  1.00  0.00     0.011 A 
HETATM   16 Br1  UNK     1      18.984   2.008  20.936  1.00  0.00    -0.051 Br
ENDBRANCH   3   5
BRANCH   2  17
HETATM   17  C2  UNK     1      19.893  -5.167  14.431  1.00  0.00     0.167 C 
BRANCH  17  18
HETATM   18  C1  UNK     1      19.547  -5.287  12.972  1.00  0.00     0.003 A 
HETATM   19  C3  UNK     1      18.581  -6.065  12.428  1.00  0.00     0.036 A 
HETATM   20  N1  UNK     1      18.655  -5.825  11.086  1.00  0.00    -0.274 N 
HETATM   21  C6  UNK     1      17.606  -7.000  13.020  1.00  0.00     0.070 C 
HETATM   22  N3  UNK     1      19.608  -4.942  10.746  1.00  0.00    -0.184 NA
HETATM   23  C5  UNK     1      20.154  -4.616  11.920  1.00  0.00     0.149 A 
BRANCH  20  24
HETATM   24  C4  UNK     1      17.833  -6.410  10.053  1.00  0.00     0.146 C 
HETATM   25  C10 UNK     1      18.555  -7.515   9.302  1.00  0.00     0.028 C 
ENDBRANCH  20  24
ENDBRANCH  17  18
ENDBRANCH   2  17
TORSDOF 4
ENDMDL
MODEL 6
REMARK VINA RESULT:      -7.4      4.089      7.758
REMARK  4 active torsions:
REMARK  status: ('A' for Active; 'I' for Inactive)
REMARK    1  A    between atoms: C4_11  and  N1_5 
REMARK    2  A    between atoms: C2_9  and  N2_6 
REMARK       I    between atoms: C7_14  and  N2_6 
REMARK    3  A    between atoms: C1_8  and  C2_9 
REMARK    4  A    between atoms: C7_14  and  C8_15 
ROOT
HETATM    1  O2  UNK     1      14.631   5.947  10.589  1.00  0.00    -0.267 OA
HETATM    2  N2  UNK     1      13.730   6.837   8.633  1.00  0.00    -0.348 N 
HETATM    3  C7  UNK     1      14.419   6.914   9.847  1.00  0.00     0.259 C 
HETATM    4  C9  UNK     1      13.504   8.007   7.790  1.00  0.00     0.153 C 
ENDROOT
BRANCH   3   5
HETATM    5  C8  UNK     1      14.907   8.233  10.269  1.00  0.00     0.108 A 
HETATM    6  C12 UNK     1      16.094   8.609   9.779  1.00  0.00     0.037 A 
HETATM    7  C11 UNK     1      16.662   9.899  10.140  1.00  0.00     0.000 A 
HETATM    8  C13 UNK     1      15.950  10.729  11.000  1.00  0.00     0.089 A 
HETATM    9  C15 UNK     1      17.897  10.332   9.653  1.00  0.00     0.033 A 
HETATM   10  O1  UNK     1      14.701  10.329  11.513  1.00  0.00    -0.274 OA
HETATM   11  C16 UNK     1      16.438  11.977  11.385  1.00  0.00     0.039 A 
HETATM   12  C14 UNK     1      14.133   9.101  11.186  1.00  0.00     0.304 A 
HETATM   13  O3  UNK     1      13.045   8.759  11.636  1.00  0.00    -0.259 OA
HETATM   14  C18 UNK     1      17.671  12.401  10.895  1.00  0.00     0.022 A 
HETATM   15  C17 UNK     1      18.399  11.581  10.030  1.00  0.00     0.011 A 
HETATM   16 Br1  UNK     1      20.071  12.163   9.367  1.00  0.00    -0.051 Br
ENDBRANCH   3   5
BRANCH   2  17
HETATM   17  C2  UNK     1      13.189   5.581   8.127  1.00  0.00     0.167 C 
BRANCH  17  18
HETATM   18  C1  UNK     1      11.712   5.482   8.392  1.00  0.00     0.003 A 
HETATM   19  C3  UNK     1      10.711   5.871   7.566  1.00  0.00     0.036 A 
HETATM   20  N1  UNK     1       9.564   5.574   8.245  1.00  0.00    -0.274 N 
HETATM   21  C6  UNK     1      10.710   6.485   6.225  1.00  0.00     0.070 C 
HETATM   22  N3  UNK     1       9.776   5.020   9.450  1.00  0.00    -0.184 NA
HETATM   23  C5  UNK     1      11.108   4.968   9.531  1.00  0.00     0.149 A 
BRANCH  20  24
HETATM   24  C4  UNK     1       8.210   5.793   7.797  1.00  0.00     0.146 C 
HETATM   25  C10 UNK     1       7.699   7.175   8.164  1.00  0.00     0.028 C 
ENDBRANCH  20  24
ENDBRANCH  17  18
ENDBRANCH   2  17
TORSDOF 4
ENDMDL
MODEL 7
REMARK VINA RESULT:      -7.4      3.417      7.396
REMARK  4 active torsions:
REMARK  status: ('A' for Active; 'I' for Inactive)
REMARK    1  A    between atoms: C4_11  and  N1_5 
REMARK    2  A    between atoms: C2_9  and  N2_6 
REMARK       I    between atoms: C7_14  and  N2_6 
REMARK    3  A    between atoms: C1_8  and  C2_9 
REMARK    4  A    between atoms: C7_14  and  C8_15 
ROOT
HETATM    1  O2  UNK     1      14.254   5.218  10.542  1.00  0.00    -0.267 OA
HETATM    2  N2  UNK     1      13.721   5.877   8.373  1.00  0.00    -0.348 N 
HETATM    3  C7  UNK     1      14.393   5.999   9.592  1.00  0.00     0.259 C 
HETATM    4  C9  UNK     1      13.917   6.824   7.278  1.00  0.00     0.153 C 
ENDROOT
BRANCH   3   5
HETATM    5  C8  UNK     1      15.308   7.134   9.755  1.00  0.00     0.108 A 
HETATM    6  C12 UNK     1      14.754   8.293  10.128  1.00  0.00     0.037 A 
HETATM    7  C11 UNK     1      15.580   9.476  10.313  1.00  0.00     0.000 A 
HETATM    8  C13 UNK     1      16.951   9.379  10.099  1.00  0.00     0.089 A 
HETATM    9  C15 UNK     1      15.043  10.706  10.701  1.00  0.00     0.033 A 
HETATM   10  O1  UNK     1      17.530   8.156   9.707  1.00  0.00    -0.274 OA
HETATM   11  C16 UNK     1      17.798  10.474  10.260  1.00  0.00     0.039 A 
HETATM   12  C14 UNK     1      16.765   7.008   9.521  1.00  0.00     0.304 A 
HETATM   13  O3  UNK     1      17.277   5.947   9.180  1.00  0.00    -0.259 OA
HETATM   14  C18 UNK     1      17.255  11.697  10.647  1.00  0.00     0.022 A 
HETATM   15  C17 UNK     1      15.880  11.814  10.867  1.00  0.00     0.011 A 
HETATM   16 Br1  UNK     1      15.150  13.476  11.392  1.00  0.00    -0.051 Br
ENDBRANCH   3   5
BRANCH   2  17
HETATM   17  C2  UNK     1      12.778   4.797   8.110  1.00  0.00     0.167 C 
BRANCH  17  18
HETATM   18  C1  UNK     1      11.367   5.227   8.400  1.00  0.00     0.003 A 
HETATM   19  C3  UNK     1      10.503   5.814   7.537  1.00  0.00     0.036 A 
HETATM   20  N1  UNK     1       9.362   6.004   8.262  1.00  0.00    -0.274 N 
HETATM   21  C6  UNK     1      10.627   6.212   6.123  1.00  0.00     0.070 C 
HETATM   22  N3  UNK     1       9.449   5.574   9.532  1.00  0.00    -0.184 NA
HETATM   23  C5  UNK     1      10.693   5.096   9.607  1.00  0.00     0.149 A 
BRANCH  20  24
HETATM   24  C4  UNK     1       8.130   6.598   7.801  1.00  0.00     0.146 C 
HETATM   25  C10 UNK     1       7.564   7.594   8.798  1.00  0.00     0.028 C 
ENDBRANCH  20  24
ENDBRANCH  17  18
ENDBRANCH   2  17
TORSDOF 4
ENDMDL
MODEL 8
REMARK VINA RESULT:      -7.3     26.692     29.003
REMARK  4 active torsions:
REMARK  status: ('A' for Active; 'I' for Inactive)
REMARK    1  A    between atoms: C4_11  and  N1_5 
REMARK    2  A    between atoms: C2_9  and  N2_6 
REMARK       I    between atoms: C7_14  and  N2_6 
REMARK    3  A    between atoms: C1_8  and  C2_9 
REMARK    4  A    between atoms: C7_14  and  C8_15 
ROOT
HETATM    1  O2  UNK     1      17.525  -2.047  36.692  1.00  0.00    -0.267 OA
HETATM    2  N2  UNK     1      19.823  -2.364  36.488  1.00  0.00    -0.348 N 
HETATM    3  C7  UNK     1      18.600  -1.783  36.141  1.00  0.00     0.259 C 
HETATM    4  C9  UNK     1      21.070  -2.022  35.808  1.00  0.00     0.153 C 
ENDROOT
BRANCH   3   5
HETATM    5  C8  UNK     1      18.597  -0.809  35.042  1.00  0.00     0.108 A 
HETATM    6  C12 UNK     1      18.980  -1.266  33.844  1.00  0.00     0.037 A 
HETATM    7  C11 UNK     1      19.011  -0.376  32.695  1.00  0.00     0.000 A 
HETATM    8  C13 UNK     1      18.635   0.953  32.863  1.00  0.00     0.089 A 
HETATM    9  C15 UNK     1      19.404  -0.811  31.427  1.00  0.00     0.033 A 
HETATM   10  O1  UNK     1      18.232   1.429  34.126  1.00  0.00    -0.274 OA
HETATM   11  C16 UNK     1      18.642   1.857  31.802  1.00  0.00     0.039 A 
HETATM   12  C14 UNK     1      18.194   0.601  35.244  1.00  0.00     0.304 A 
HETATM   13  O3  UNK     1      17.842   1.024  36.340  1.00  0.00    -0.259 OA
HETATM   14  C18 UNK     1      19.036   1.416  30.541  1.00  0.00     0.022 A 
HETATM   15  C17 UNK     1      19.416   0.084  30.353  1.00  0.00     0.011 A 
HETATM   16 Br1  UNK     1      19.948  -0.508  28.639  1.00  0.00    -0.051 Br
ENDBRANCH   3   5
BRANCH   2  17
HETATM   17  C2  UNK     1      19.938  -3.354  37.552  1.00  0.00     0.167 C 
BRANCH  17  18
HETATM   18  C1  UNK     1      20.119  -4.737  36.989  1.00  0.00     0.003 A 
HETATM   19  C3  UNK     1      21.042  -5.653  37.368  1.00  0.00     0.036 A 
HETATM   20  N1  UNK     1      20.802  -6.737  36.575  1.00  0.00    -0.274 N 
HETATM   21  C6  UNK     1      22.114  -5.624  38.380  1.00  0.00     0.070 C 
HETATM   22  N3  UNK     1      19.782  -6.566  35.717  1.00  0.00    -0.184 NA
HETATM   23  C5  UNK     1      19.367  -5.325  35.981  1.00  0.00     0.149 A 
BRANCH  20  24
HETATM   24  C4  UNK     1      21.514  -7.993  36.582  1.00  0.00     0.146 C 
HETATM   25  C10 UNK     1      21.357  -8.751  35.276  1.00  0.00     0.028 C 
ENDBRANCH  20  24
ENDBRANCH  17  18
ENDBRANCH   2  17
TORSDOF 4
ENDMDL
MODEL 9
REMARK VINA RESULT:      -7.3      3.496      7.439
REMARK  4 active torsions:
REMARK  status: ('A' for Active; 'I' for Inactive)
REMARK    1  A    between atoms: C4_11  and  N1_5 
REMARK    2  A    between atoms: C2_9  and  N2_6 
REMARK       I    between atoms: C7_14  and  N2_6 
REMARK    3  A    between atoms: C1_8  and  C2_9 
REMARK    4  A    between atoms: C7_14  and  C8_15 
ROOT
HETATM    1  O2  UNK     1      11.243   5.754   7.365  1.00  0.00    -0.267 OA
HETATM    2  N2  UNK     1      10.023   7.369   8.517  1.00  0.00    -0.348 N 
HETATM    3  C7  UNK     1      11.196   6.696   8.166  1.00  0.00     0.259 C 
HETATM    4  C9  UNK     1      10.016   8.477   9.469  1.00  0.00     0.153 C 
ENDROOT
BRANCH   3   5
HETATM    5  C8  UNK     1      12.446   7.129   8.801  1.00  0.00     0.108 A 
HETATM    6  C12 UNK     1      13.044   8.198   8.264  1.00  0.00     0.037 A 
HETATM    7  C11 UNK     1      14.288   8.702   8.824  1.00  0.00     0.000 A 
HETATM    8  C13 UNK     1      14.841   8.055   9.924  1.00  0.00     0.089 A 
HETATM    9  C15 UNK     1      14.947   9.815   8.295  1.00  0.00     0.033 A 
HETATM   10  O1  UNK     1      14.207   6.930  10.487  1.00  0.00    -0.274 OA
HETATM   11  C16 UNK     1      16.031   8.487  10.508  1.00  0.00     0.039 A 
HETATM   12  C14 UNK     1      13.017   6.424   9.972  1.00  0.00     0.304 A 
HETATM   13  O3  UNK     1      12.471   5.445  10.468  1.00  0.00    -0.259 OA
HETATM   14  C18 UNK     1      16.681   9.597   9.975  1.00  0.00     0.022 A 
HETATM   15  C17 UNK     1      16.141  10.260   8.870  1.00  0.00     0.011 A 
HETATM   16 Br1  UNK     1      17.028  11.766   8.150  1.00  0.00    -0.051 Br
ENDBRANCH   3   5
BRANCH   2  17
HETATM   17  C2  UNK     1       8.725   7.011   7.958  1.00  0.00     0.167 C 
BRANCH  17  18
HETATM   18  C1  UNK     1       7.741   6.675   9.045  1.00  0.00     0.003 A 
HETATM   19  C3  UNK     1       7.803   5.625   9.900  1.00  0.00     0.036 A 
HETATM   20  N1  UNK     1       6.698   5.755  10.690  1.00  0.00    -0.274 N 
HETATM   21  C6  UNK     1       8.772   4.525  10.054  1.00  0.00     0.070 C 
HETATM   22  N3  UNK     1       5.939   6.823  10.391  1.00  0.00    -0.184 NA
HETATM   23  C5  UNK     1       6.594   7.385   9.371  1.00  0.00     0.149 A 
BRANCH  20  24
HETATM   24  C4  UNK     1       6.297   4.885  11.770  1.00  0.00     0.146 C 
HETATM   25  C10 UNK     1       5.157   3.964  11.373  1.00  0.00     0.028 C 
ENDBRANCH  20  24
ENDBRANCH  17  18
ENDBRANCH   2  17
TORSDOF 4
ENDMDL
MODEL 10
REMARK VINA RESULT:      -7.3      4.443      7.816
REMARK  4 active torsions:
REMARK  status: ('A' for Active; 'I' for Inactive)
REMARK    1  A    between atoms: C4_11  and  N1_5 
REMARK    2  A    between atoms: C2_9  and  N2_6 
REMARK       I    between atoms: C7_14  and  N2_6 
REMARK    3  A    between atoms: C1_8  and  C2_9 
REMARK    4  A    between atoms: C7_14  and  C8_15 
ROOT
HETATM    1  O2  UNK     1       7.018   3.892   9.005  1.00  0.00    -0.267 OA
HETATM    2  N2  UNK     1       6.617   5.845  10.208  1.00  0.00    -0.348 N 
HETATM    3  C7  UNK     1       7.360   5.030   9.350  1.00  0.00     0.259 C 
HETATM    4  C9  UNK     1       7.061   7.184  10.589  1.00  0.00     0.153 C 
ENDROOT
BRANCH   3   5
HETATM    5  C8  UNK     1       8.632   5.557   8.841  1.00  0.00     0.108 A 
HETATM    6  C12 UNK     1       9.740   5.118   9.449  1.00  0.00     0.037 A 
HETATM    7  C11 UNK     1      11.048   5.584   9.017  1.00  0.00     0.000 A 
HETATM    8  C13 UNK     1      11.125   6.490   7.963  1.00  0.00     0.089 A 
HETATM    9  C15 UNK     1      12.230   5.153   9.623  1.00  0.00     0.033 A 
HETATM   10  O1  UNK     1       9.955   6.949   7.327  1.00  0.00    -0.274 OA
HETATM   11  C16 UNK     1      12.346   6.975   7.501  1.00  0.00     0.039 A 
HETATM   12  C14 UNK     1       8.690   6.521   7.719  1.00  0.00     0.304 A 
HETATM   13  O3  UNK     1       7.676   6.925   7.159  1.00  0.00    -0.259 OA
HETATM   14  C18 UNK     1      13.521   6.540   8.110  1.00  0.00     0.022 A 
HETATM   15  C17 UNK     1      13.464   5.631   9.169  1.00  0.00     0.011 A 
HETATM   16 Br1  UNK     1      15.061   5.044   9.992  1.00  0.00    -0.051 Br
ENDBRANCH   3   5
BRANCH   2  17
HETATM   17  C2  UNK     1       5.348   5.415  10.783  1.00  0.00     0.167 C 
BRANCH  17  18
HETATM   18  C1  UNK     1       5.546   4.821  12.150  1.00  0.00     0.003 A 
HETATM   19  C3  UNK     1       5.515   3.506  12.476  1.00  0.00     0.036 A 
HETATM   20  N1  UNK     1       5.751   3.476  13.820  1.00  0.00    -0.274 N 
HETATM   21  C6  UNK     1       5.290   2.289  11.676  1.00  0.00     0.070 C 
HETATM   22  N3  UNK     1       5.932   4.690  14.367  1.00  0.00    -0.184 NA
HETATM   23  C5  UNK     1       5.802   5.515  13.325  1.00  0.00     0.149 A 
BRANCH  20  24
HETATM   24  C4  UNK     1       5.823   2.305  14.662  1.00  0.00     0.146 C 
HETATM   25  C10 UNK     1       4.478   1.952  15.272  1.00  0.00     0.028 C 
ENDBRANCH  20  24
ENDBRANCH  17  18
ENDBRANCH   2  17
TORSDOF 4
ENDMDL
