MODEL 1
REMARK VINA RESULT:      -8.6      0.000      0.000
REMARK  3 active torsions:
REMARK  status: ('A' for Active; 'I' for Inactive)
REMARK    1  A    between atoms: C12_17  and  O2_3 
REMARK    2  A    between atoms: C13_18  and  O3_4 
REMARK    3  A    between atoms: C2_7  and  C4_9 
ROOT
HETATM    1 Cl1  UNK     1      13.329  11.492  33.908  1.00  0.00    -0.084 Cl
HETATM    2  O1  UNK     1      18.669   9.013  33.872  1.00  0.00    -0.274 OA
HETATM    3  O4  UNK     1      20.098   7.347  33.280  1.00  0.00    -0.259 OA
HETATM    4  C1  UNK     1      16.595   7.622  32.528  1.00  0.00    -0.032 A 
HETATM    5  C2  UNK     1      17.846   7.111  32.559  1.00  0.00     0.057 A 
HETATM    6  C3  UNK     1      16.329   8.910  33.202  1.00  0.00     0.006 A 
HETATM    7  C5  UNK     1      17.376   9.561  33.850  1.00  0.00     0.090 A 
HETATM    8  C6  UNK     1      18.963   7.811  33.254  1.00  0.00     0.300 A 
HETATM    9  C7  UNK     1      15.432   6.950  31.837  1.00  0.00     0.050 C 
HETATM   10  C9  UNK     1      15.072   9.533  33.233  1.00  0.00     0.038 A 
HETATM   11  C11 UNK     1      17.208  10.781  34.510  1.00  0.00     0.040 A 
HETATM   12  C15 UNK     1      14.886  10.755  33.889  1.00  0.00     0.035 A 
HETATM   13  C16 UNK     1      15.955  11.380  34.528  1.00  0.00     0.026 A 
ENDROOT
BRANCH   5  14
HETATM   14  C4  UNK     1      18.150   5.841  31.903  1.00  0.00    -0.017 A 
HETATM   15  C10 UNK     1      18.745   5.837  30.645  1.00  0.00     0.015 A 
HETATM   16  C14 UNK     1      19.036   4.626  30.019  1.00  0.00     0.040 A 
HETATM   17  C13 UNK     1      18.730   3.422  30.655  1.00  0.00     0.101 A 
HETATM   18  C12 UNK     1      18.134   3.431  31.915  1.00  0.00     0.102 A 
HETATM   19  C8  UNK     1      17.844   4.642  32.542  1.00  0.00     0.052 A 
BRANCH  17  20
HETATM   20  O3  UNK     1      19.019   2.245  30.034  1.00  0.00    -0.353 OA
HETATM   21  C18 UNK     1      18.237   1.908  28.889  1.00  0.00     0.210 C 
ENDBRANCH  17  20
BRANCH  18  22
HETATM   22  O2  UNK     1      17.832   2.261  32.547  1.00  0.00    -0.353 OA
HETATM   23  C17 UNK     1      18.138   2.178  33.937  1.00  0.00     0.210 C 
ENDBRANCH  18  22
ENDBRANCH   5  14
TORSDOF 3
ENDMDL
MODEL 2
REMARK VINA RESULT:      -7.9      3.614      7.736
REMARK  3 active torsions:
REMARK  status: ('A' for Active; 'I' for Inactive)
REMARK    1  A    between atoms: C12_17  and  O2_3 
REMARK    2  A    between atoms: C13_18  and  O3_4 
REMARK    3  A    between atoms: C2_7  and  C4_9 
ROOT
HETATM    1 Cl1  UNK     1      19.820  -0.755  28.181  1.00  0.00    -0.084 Cl
HETATM    2  O1  UNK     1      18.555   1.679  33.390  1.00  0.00    -0.274 OA
HETATM    3  O4  UNK     1      18.060   3.475  34.692  1.00  0.00    -0.259 OA
HETATM    4  C1  UNK     1      18.687   3.419  31.155  1.00  0.00    -0.032 A 
HETATM    5  C2  UNK     1      18.401   3.910  32.381  1.00  0.00     0.057 A 
HETATM    6  C3  UNK     1      18.928   1.969  31.001  1.00  0.00     0.006 A 
HETATM    7  C5  UNK     1      18.853   1.150  32.124  1.00  0.00     0.090 A 
HETATM    8  C6  UNK     1      18.322   3.029  33.580  1.00  0.00     0.300 A 
HETATM    9  C7  UNK     1      18.778   4.271  29.911  1.00  0.00     0.050 C 
HETATM   10  C9  UNK     1      19.231   1.352  29.777  1.00  0.00     0.038 A 
HETATM   11  C11 UNK     1      19.066  -0.230  32.063  1.00  0.00     0.040 A 
HETATM   12  C15 UNK     1      19.448  -0.029  29.698  1.00  0.00     0.035 A 
HETATM   13  C16 UNK     1      19.366  -0.820  30.842  1.00  0.00     0.026 A 
ENDROOT
BRANCH   5  14
HETATM   14  C4  UNK     1      18.154   5.337  32.575  1.00  0.00    -0.017 A 
HETATM   15  C10 UNK     1      19.199   6.175  32.951  1.00  0.00     0.015 A 
HETATM   16  C14 UNK     1      18.964   7.537  33.136  1.00  0.00     0.040 A 
HETATM   17  C13 UNK     1      17.682   8.055  32.944  1.00  0.00     0.101 A 
HETATM   18  C12 UNK     1      16.638   7.211  32.568  1.00  0.00     0.102 A 
HETATM   19  C8  UNK     1      16.874   5.850  32.382  1.00  0.00     0.052 A 
BRANCH  17  20
HETATM   20  O3  UNK     1      17.465   9.387  33.129  1.00  0.00    -0.353 OA
HETATM   21  C18 UNK     1      18.417  10.096  33.919  1.00  0.00     0.210 C 
ENDBRANCH  17  20
BRANCH  18  22
HETATM   22  O2  UNK     1      15.383   7.706  32.377  1.00  0.00    -0.353 OA
HETATM   23  C17 UNK     1      14.448   7.526  33.440  1.00  0.00     0.210 C 
ENDBRANCH  18  22
ENDBRANCH   5  14
TORSDOF 3
ENDMDL
MODEL 3
REMARK VINA RESULT:      -7.8      3.368      7.491
REMARK  3 active torsions:
REMARK  status: ('A' for Active; 'I' for Inactive)
REMARK    1  A    between atoms: C12_17  and  O2_3 
REMARK    2  A    between atoms: C13_18  and  O3_4 
REMARK    3  A    between atoms: C2_7  and  C4_9 
ROOT
HETATM    1 Cl1  UNK     1      18.854  -1.270  32.450  1.00  0.00    -0.084 Cl
HETATM    2  O1  UNK     1      18.936   3.925  29.682  1.00  0.00    -0.274 OA
HETATM    3  O4  UNK     1      18.752   6.191  29.672  1.00  0.00    -0.259 OA
HETATM    4  C1  UNK     1      18.415   3.961  32.469  1.00  0.00    -0.032 A 
HETATM    5  C2  UNK     1      18.449   5.117  31.770  1.00  0.00     0.057 A 
HETATM    6  C3  UNK     1      18.653   2.686  31.759  1.00  0.00     0.006 A 
HETATM    7  C5  UNK     1      18.906   2.713  30.390  1.00  0.00     0.090 A 
HETATM    8  C6  UNK     1      18.720   5.141  30.305  1.00  0.00     0.300 A 
HETATM    9  C7  UNK     1      18.146   3.885  33.953  1.00  0.00     0.050 C 
HETATM   10  C9  UNK     1      18.642   1.428  32.383  1.00  0.00     0.038 A 
HETATM   11  C11 UNK     1      19.141   1.554  29.646  1.00  0.00     0.040 A 
HETATM   12  C15 UNK     1      18.876   0.257  31.653  1.00  0.00     0.035 A 
HETATM   13  C16 UNK     1      19.125   0.319  30.284  1.00  0.00     0.026 A 
ENDROOT
BRANCH   5  14
HETATM   14  C4  UNK     1      18.221   6.397  32.435  1.00  0.00    -0.017 A 
HETATM   15  C10 UNK     1      19.270   7.031  33.095  1.00  0.00     0.015 A 
HETATM   16  C14 UNK     1      19.053   8.253  33.728  1.00  0.00     0.040 A 
HETATM   17  C13 UNK     1      17.786   8.838  33.699  1.00  0.00     0.101 A 
HETATM   18  C12 UNK     1      16.738   8.200  33.037  1.00  0.00     0.102 A 
HETATM   19  C8  UNK     1      16.956   6.978  32.403  1.00  0.00     0.052 A 
BRANCH  17  20
HETATM   20  O3  UNK     1      17.586  10.033  34.323  1.00  0.00    -0.353 OA
HETATM   21  C18 UNK     1      18.435  11.114  33.941  1.00  0.00     0.210 C 
ENDBRANCH  17  20
BRANCH  18  22
HETATM   22  O2  UNK     1      15.497   8.762  33.001  1.00  0.00    -0.353 OA
HETATM   23  C17 UNK     1      14.518   8.227  33.890  1.00  0.00     0.210 C 
ENDBRANCH  18  22
ENDBRANCH   5  14
TORSDOF 3
ENDMDL
MODEL 4
REMARK VINA RESULT:      -7.6      3.498      7.643
REMARK  3 active torsions:
REMARK  status: ('A' for Active; 'I' for Inactive)
REMARK    1  A    between atoms: C12_17  and  O2_3 
REMARK    2  A    between atoms: C13_18  and  O3_4 
REMARK    3  A    between atoms: C2_7  and  C4_9 
ROOT
HETATM    1 Cl1  UNK     1      19.254  -1.664  31.961  1.00  0.00    -0.084 Cl
HETATM    2  O1  UNK     1      18.956   3.802  29.796  1.00  0.00    -0.274 OA
HETATM    3  O4  UNK     1      18.566   6.029  30.030  1.00  0.00    -0.259 OA
HETATM    4  C1  UNK     1      18.336   3.471  32.543  1.00  0.00    -0.032 A 
HETATM    5  C2  UNK     1      18.289   4.698  31.980  1.00  0.00     0.057 A 
HETATM    6  C3  UNK     1      18.715   2.312  31.707  1.00  0.00     0.006 A 
HETATM    7  C5  UNK     1      19.013   2.519  30.363  1.00  0.00     0.090 A 
HETATM    8  C6  UNK     1      18.608   4.914  30.540  1.00  0.00     0.300 A 
HETATM    9  C7  UNK     1      18.023   3.202  33.996  1.00  0.00     0.050 C 
HETATM   10  C9  UNK     1      18.798   0.995  32.186  1.00  0.00     0.038 A 
HETATM   11  C11 UNK     1      19.380   1.477  29.506  1.00  0.00     0.040 A 
HETATM   12  C15 UNK     1      19.164  -0.060  31.342  1.00  0.00     0.035 A 
HETATM   13  C16 UNK     1      19.455   0.181  30.001  1.00  0.00     0.026 A 
ENDROOT
BRANCH   5  14
HETATM   14  C4  UNK     1      17.921   5.869  32.772  1.00  0.00    -0.017 A 
HETATM   15  C10 UNK     1      16.612   6.340  32.745  1.00  0.00     0.015 A 
HETATM   16  C14 UNK     1      16.261   7.457  33.501  1.00  0.00     0.040 A 
HETATM   17  C13 UNK     1      17.222   8.101  34.282  1.00  0.00     0.101 A 
HETATM   18  C12 UNK     1      18.533   7.626  34.305  1.00  0.00     0.102 A 
HETATM   19  C8  UNK     1      18.884   6.508  33.550  1.00  0.00     0.052 A 
BRANCH  17  20
HETATM   20  O3  UNK     1      16.868   9.192  35.016  1.00  0.00    -0.353 OA
HETATM   21  C18 UNK     1      15.524   9.653  34.885  1.00  0.00     0.210 C 
ENDBRANCH  17  20
BRANCH  18  22
HETATM   22  O2  UNK     1      19.480   8.246  35.064  1.00  0.00    -0.353 OA
HETATM   23  C17 UNK     1      20.252   9.265  34.431  1.00  0.00     0.210 C 
ENDBRANCH  18  22
ENDBRANCH   5  14
TORSDOF 3
ENDMDL
MODEL 5
REMARK VINA RESULT:      -7.2      3.553      7.731
REMARK  3 active torsions:
REMARK  status: ('A' for Active; 'I' for Inactive)
REMARK    1  A    between atoms: C12_17  and  O2_3 
REMARK    2  A    between atoms: C13_18  and  O3_4 
REMARK    3  A    between atoms: C2_7  and  C4_9 
ROOT
HETATM    1 Cl1  UNK     1      18.617  -1.919  35.606  1.00  0.00    -0.084 Cl
HETATM    2  O1  UNK     1      18.790   1.685  30.955  1.00  0.00    -0.274 OA
HETATM    3  O4  UNK     1      18.637   3.750  30.016  1.00  0.00    -0.259 OA
HETATM    4  C1  UNK     1      18.248   2.864  33.476  1.00  0.00    -0.032 A 
HETATM    5  C2  UNK     1      18.303   3.632  32.366  1.00  0.00     0.057 A 
HETATM    6  C3  UNK     1      18.474   1.408  33.354  1.00  0.00     0.006 A 
HETATM    7  C5  UNK     1      18.738   0.870  32.097  1.00  0.00     0.090 A 
HETATM    8  C6  UNK     1      18.585   3.051  31.023  1.00  0.00     0.300 A 
HETATM    9  C7  UNK     1      17.966   3.405  34.858  1.00  0.00     0.050 C 
HETATM   10  C9  UNK     1      18.442   0.517  34.438  1.00  0.00     0.038 A 
HETATM   11  C11 UNK     1      18.964  -0.495  31.896  1.00  0.00     0.040 A 
HETATM   12  C15 UNK     1      18.666  -0.853  34.255  1.00  0.00     0.035 A 
HETATM   13  C16 UNK     1      18.926  -1.359  32.983  1.00  0.00     0.026 A 
ENDROOT
BRANCH   5  14
HETATM   14  C4  UNK     1      18.088   5.074  32.445  1.00  0.00    -0.017 A 
HETATM   15  C10 UNK     1      19.069   5.892  32.998  1.00  0.00     0.015 A 
HETATM   16  C14 UNK     1      18.864   7.269  33.072  1.00  0.00     0.040 A 
HETATM   17  C13 UNK     1      17.676   7.823  32.594  1.00  0.00     0.101 A 
HETATM   18  C12 UNK     1      16.695   7.001  32.042  1.00  0.00     0.102 A 
HETATM   19  C8  UNK     1      16.901   5.624  31.966  1.00  0.00     0.052 A 
BRANCH  17  20
HETATM   20  O3  UNK     1      17.486   9.170  32.673  1.00  0.00    -0.353 OA
HETATM   21  C18 UNK     1      17.349   9.730  33.978  1.00  0.00     0.210 C 
ENDBRANCH  17  20
BRANCH  18  22
HETATM   22  O2  UNK     1      15.531   7.530  31.571  1.00  0.00    -0.353 OA
HETATM   23  C17 UNK     1      14.359   7.319  32.356  1.00  0.00     0.210 C 
ENDBRANCH  18  22
ENDBRANCH   5  14
TORSDOF 3
ENDMDL
MODEL 6
REMARK VINA RESULT:      -7.1     18.101     20.774
REMARK  3 active torsions:
REMARK  status: ('A' for Active; 'I' for Inactive)
REMARK    1  A    between atoms: C12_17  and  O2_3 
REMARK    2  A    between atoms: C13_18  and  O3_4 
REMARK    3  A    between atoms: C2_7  and  C4_9 
ROOT
HETATM    1 Cl1  UNK     1      28.030  -6.994  39.555  1.00  0.00    -0.084 Cl
HETATM    2  O1  UNK     1      32.031  -3.824  36.623  1.00  0.00    -0.274 OA
HETATM    3  O4  UNK     1      33.819  -3.652  35.229  1.00  0.00    -0.259 OA
HETATM    4  C1  UNK     1      32.163  -6.642  36.339  1.00  0.00    -0.032 A 
HETATM    5  C2  UNK     1      33.050  -5.853  35.694  1.00  0.00     0.057 A 
HETATM    6  C3  UNK     1      31.130  -6.014  37.189  1.00  0.00     0.006 A 
HETATM    7  C5  UNK     1      31.100  -4.626  37.301  1.00  0.00     0.090 A 
HETATM    8  C6  UNK     1      33.014  -4.368  35.817  1.00  0.00     0.300 A 
HETATM    9  C7  UNK     1      32.158  -8.149  36.245  1.00  0.00     0.050 C 
HETATM   10  C9  UNK     1      30.159  -6.735  37.903  1.00  0.00     0.038 A 
HETATM   11  C11 UNK     1      30.156  -3.955  38.083  1.00  0.00     0.040 A 
HETATM   12  C15 UNK     1      29.206  -6.079  38.691  1.00  0.00     0.035 A 
HETATM   13  C16 UNK     1      29.204  -4.689  38.782  1.00  0.00     0.026 A 
ENDROOT
BRANCH   5  14
HETATM   14  C4  UNK     1      34.085  -6.434  34.842  1.00  0.00    -0.017 A 
HETATM   15  C10 UNK     1      35.322  -6.767  35.386  1.00  0.00     0.015 A 
HETATM   16  C14 UNK     1      36.310  -7.322  34.573  1.00  0.00     0.040 A 
HETATM   17  C13 UNK     1      36.056  -7.541  33.218  1.00  0.00     0.101 A 
HETATM   18  C12 UNK     1      34.816  -7.205  32.678  1.00  0.00     0.102 A 
HETATM   19  C8  UNK     1      33.827  -6.651  33.491  1.00  0.00     0.052 A 
BRANCH  17  20
HETATM   20  O3  UNK     1      37.029  -8.083  32.434  1.00  0.00    -0.353 OA
HETATM   21  C18 UNK     1      37.394  -9.436  32.697  1.00  0.00     0.210 C 
ENDBRANCH  17  20
BRANCH  18  22
HETATM   22  O2  UNK     1      34.556  -7.415  31.357  1.00  0.00    -0.353 OA
HETATM   23  C17 UNK     1      33.206  -7.706  31.000  1.00  0.00     0.210 C 
ENDBRANCH  18  22
ENDBRANCH   5  14
TORSDOF 3
ENDMDL
MODEL 7
REMARK VINA RESULT:      -7.1     22.817     24.798
REMARK  3 active torsions:
REMARK  status: ('A' for Active; 'I' for Inactive)
REMARK    1  A    between atoms: C12_17  and  O2_3 
REMARK    2  A    between atoms: C13_18  and  O3_4 
REMARK    3  A    between atoms: C2_7  and  C4_9 
ROOT
HETATM    1 Cl1  UNK     1       6.542   7.713   9.657  1.00  0.00    -0.084 Cl
HETATM    2  O1  UNK     1      11.559   6.570   6.797  1.00  0.00    -0.274 OA
HETATM    3  O4  UNK     1      13.801   6.813   6.513  1.00  0.00    -0.259 OA
HETATM    4  C1  UNK     1      11.719   8.307   9.032  1.00  0.00    -0.032 A 
HETATM    5  C2  UNK     1      12.832   8.001   8.330  1.00  0.00     0.057 A 
HETATM    6  C3  UNK     1      10.426   7.724   8.618  1.00  0.00     0.006 A 
HETATM    7  C5  UNK     1      10.391   6.875   7.515  1.00  0.00     0.090 A 
HETATM    8  C6  UNK     1      12.790   7.092   7.150  1.00  0.00     0.300 A 
HETATM    9  C7  UNK     1      11.712   9.222  10.234  1.00  0.00     0.050 C 
HETATM   10  C9  UNK     1       9.209   7.972   9.274  1.00  0.00     0.038 A 
HETATM   11  C11 UNK     1       9.210   6.283   7.059  1.00  0.00     0.040 A 
HETATM   12  C15 UNK     1       8.017   7.387   8.831  1.00  0.00     0.035 A 
HETATM   13  C16 UNK     1       8.017   6.542   7.723  1.00  0.00     0.026 A 
ENDROOT
BRANCH   5  14
HETATM   14  C4  UNK     1      14.130   8.555   8.708  1.00  0.00    -0.017 A 
HETATM   15  C10 UNK     1      14.466   9.852   8.332  1.00  0.00     0.015 A 
HETATM   16  C14 UNK     1      15.704  10.381   8.693  1.00  0.00     0.040 A 
HETATM   17  C13 UNK     1      16.603   9.608   9.430  1.00  0.00     0.101 A 
HETATM   18  C12 UNK     1      16.263   8.309   9.804  1.00  0.00     0.102 A 
HETATM   19  C8  UNK     1      15.024   7.781   9.444  1.00  0.00     0.052 A 
BRANCH  17  20
HETATM   20  O3  UNK     1      17.811  10.135   9.776  1.00  0.00    -0.353 OA
HETATM   21  C18 UNK     1      18.316  11.189   8.959  1.00  0.00     0.210 C 
ENDBRANCH  17  20
BRANCH  18  22
HETATM   22  O2  UNK     1      17.133   7.546  10.524  1.00  0.00    -0.353 OA
HETATM   23  C17 UNK     1      17.806   6.500   9.827  1.00  0.00     0.210 C 
ENDBRANCH  18  22
ENDBRANCH   5  14
TORSDOF 3
ENDMDL
MODEL 8
REMARK VINA RESULT:      -6.9     22.812     25.040
REMARK  3 active torsions:
REMARK  status: ('A' for Active; 'I' for Inactive)
REMARK    1  A    between atoms: C12_17  and  O2_3 
REMARK    2  A    between atoms: C13_18  and  O3_4 
REMARK    3  A    between atoms: C2_7  and  C4_9 
ROOT
HETATM    1 Cl1  UNK     1       6.694   7.714   9.682  1.00  0.00    -0.084 Cl
HETATM    2  O1  UNK     1      11.733   6.611   6.846  1.00  0.00    -0.274 OA
HETATM    3  O4  UNK     1      13.974   6.876   6.570  1.00  0.00    -0.259 OA
HETATM    4  C1  UNK     1      11.867   8.358   9.075  1.00  0.00    -0.032 A 
HETATM    5  C2  UNK     1      12.986   8.061   8.378  1.00  0.00     0.057 A 
HETATM    6  C3  UNK     1      10.581   7.760   8.658  1.00  0.00     0.006 A 
HETATM    7  C5  UNK     1      10.560   6.907   7.558  1.00  0.00     0.090 A 
HETATM    8  C6  UNK     1      12.957   7.147   7.201  1.00  0.00     0.300 A 
HETATM    9  C7  UNK     1      11.845   9.277  10.274  1.00  0.00     0.050 C 
HETATM   10  C9  UNK     1       9.360   7.998   9.308  1.00  0.00     0.038 A 
HETATM   11  C11 UNK     1       9.386   6.301   7.100  1.00  0.00     0.040 A 
HETATM   12  C15 UNK     1       8.175   7.400   8.862  1.00  0.00     0.035 A 
HETATM   13  C16 UNK     1       8.188   6.551   7.758  1.00  0.00     0.026 A 
ENDROOT
BRANCH   5  14
HETATM   14  C4  UNK     1      14.276   8.629   8.759  1.00  0.00    -0.017 A 
HETATM   15  C10 UNK     1      15.059   7.989   9.716  1.00  0.00     0.015 A 
HETATM   16  C14 UNK     1      16.291   8.530  10.079  1.00  0.00     0.040 A 
HETATM   17  C13 UNK     1      16.735   9.712   9.485  1.00  0.00     0.101 A 
HETATM   18  C12 UNK     1      15.948  10.350   8.527  1.00  0.00     0.102 A 
HETATM   19  C8  UNK     1      14.716   9.807   8.163  1.00  0.00     0.052 A 
BRANCH  17  20
HETATM   20  O3  UNK     1      17.941  10.232   9.849  1.00  0.00    -0.353 OA
HETATM   21  C18 UNK     1      17.923  11.446  10.597  1.00  0.00     0.210 C 
ENDBRANCH  17  20
BRANCH  18  22
HETATM   22  O2  UNK     1      16.372  11.504   7.939  1.00  0.00    -0.353 OA
HETATM   23  C17 UNK     1      15.373  12.466   7.607  1.00  0.00     0.210 C 
ENDBRANCH  18  22
ENDBRANCH   5  14
TORSDOF 3
ENDMDL
MODEL 9
REMARK VINA RESULT:      -6.9      3.744      7.836
REMARK  3 active torsions:
REMARK  status: ('A' for Active; 'I' for Inactive)
REMARK    1  A    between atoms: C12_17  and  O2_3 
REMARK    2  A    between atoms: C13_18  and  O3_4 
REMARK    3  A    between atoms: C2_7  and  C4_9 
ROOT
HETATM    1 Cl1  UNK     1      18.290   3.765  33.209  1.00  0.00    -0.084 Cl
HETATM    2  O1  UNK     1      18.401   9.614  33.867  1.00  0.00    -0.274 OA
HETATM    3  O4  UNK     1      17.365  11.614  34.171  1.00  0.00    -0.259 OA
HETATM    4  C1  UNK     1      15.857   8.364  33.901  1.00  0.00    -0.032 A 
HETATM    5  C2  UNK     1      15.956   9.703  34.048  1.00  0.00     0.057 A 
HETATM    6  C3  UNK     1      17.089   7.567  33.725  1.00  0.00     0.006 A 
HETATM    7  C5  UNK     1      18.319   8.221  33.715  1.00  0.00     0.090 A 
HETATM    8  C6  UNK     1      17.274  10.398  34.036  1.00  0.00     0.300 A 
HETATM    9  C7  UNK     1      14.545   7.615  33.907  1.00  0.00     0.050 C 
HETATM   10  C9  UNK     1      17.104   6.172  33.566  1.00  0.00     0.038 A 
HETATM   11  C11 UNK     1      19.530   7.541  33.554  1.00  0.00     0.040 A 
HETATM   12  C15 UNK     1      18.308   5.476  33.403  1.00  0.00     0.035 A 
HETATM   13  C16 UNK     1      19.521   6.161  33.397  1.00  0.00     0.026 A 
ENDROOT
BRANCH   5  14
HETATM   14  C4  UNK     1      14.763  10.526  34.227  1.00  0.00    -0.017 A 
HETATM   15  C10 UNK     1      14.019  10.917  33.118  1.00  0.00     0.015 A 
HETATM   16  C14 UNK     1      12.879  11.702  33.288  1.00  0.00     0.040 A 
HETATM   17  C13 UNK     1      12.488  12.093  34.570  1.00  0.00     0.101 A 
HETATM   18  C12 UNK     1      13.236  11.699  35.678  1.00  0.00     0.102 A 
HETATM   19  C8  UNK     1      14.375  10.913  35.507  1.00  0.00     0.052 A 
BRANCH  17  20
HETATM   20  O3  UNK     1      11.373  12.860  34.724  1.00  0.00    -0.353 OA
HETATM   21  C18 UNK     1      10.625  13.161  33.547  1.00  0.00     0.210 C 
ENDBRANCH  17  20
BRANCH  18  22
HETATM   22  O2  UNK     1      12.864  12.074  36.934  1.00  0.00    -0.353 OA
HETATM   23  C17 UNK     1      13.474  11.385  38.024  1.00  0.00     0.210 C 
ENDBRANCH  18  22
ENDBRANCH   5  14
TORSDOF 3
ENDMDL
MODEL 10
REMARK VINA RESULT:      -6.8      3.603      8.069
REMARK  3 active torsions:
REMARK  status: ('A' for Active; 'I' for Inactive)
REMARK    1  A    between atoms: C12_17  and  O2_3 
REMARK    2  A    between atoms: C13_18  and  O3_4 
REMARK    3  A    between atoms: C2_7  and  C4_9 
ROOT
HETATM    1 Cl1  UNK     1      21.683   6.205  32.590  1.00  0.00    -0.084 Cl
HETATM    2  O1  UNK     1      15.811   6.459  32.255  1.00  0.00    -0.274 OA
HETATM    3  O4  UNK     1      13.830   7.515  32.612  1.00  0.00    -0.259 OA
HETATM    4  C1  UNK     1      17.129   8.673  33.438  1.00  0.00    -0.032 A 
HETATM    5  C2  UNK     1      15.782   8.665  33.329  1.00  0.00     0.057 A 
HETATM    6  C3  UNK     1      17.898   7.516  32.934  1.00  0.00     0.006 A 
HETATM    7  C5  UNK     1      17.211   6.450  32.359  1.00  0.00     0.090 A 
HETATM    8  C6  UNK     1      15.052   7.521  32.713  1.00  0.00     0.300 A 
HETATM    9  C7  UNK     1      17.913   9.809  34.053  1.00  0.00     0.050 C 
HETATM   10  C9  UNK     1      19.297   7.419  32.995  1.00  0.00     0.038 A 
HETATM   11  C11 UNK     1      17.862   5.319  31.858  1.00  0.00     0.040 A 
HETATM   12  C15 UNK     1      19.965   6.294  32.498  1.00  0.00     0.035 A 
HETATM   13  C16 UNK     1      19.248   5.243  31.929  1.00  0.00     0.026 A 
ENDROOT
BRANCH   5  14
HETATM   14  C4  UNK     1      14.987   9.791  33.813  1.00  0.00    -0.017 A 
HETATM   15  C10 UNK     1      14.735   9.925  35.175  1.00  0.00     0.015 A 
HETATM   16  C14 UNK     1      13.976  11.000  35.637  1.00  0.00     0.040 A 
HETATM   17  C13 UNK     1      13.471  11.935  34.733  1.00  0.00     0.101 A 
HETATM   18  C12 UNK     1      13.724  11.796  33.370  1.00  0.00     0.102 A 
HETATM   19  C8  UNK     1      14.485  10.722  32.908  1.00  0.00     0.052 A 
BRANCH  17  20
HETATM   20  O3  UNK     1      12.729  12.981  35.197  1.00  0.00    -0.353 OA
HETATM   21  C18 UNK     1      11.767  12.694  36.210  1.00  0.00     0.210 C 
ENDBRANCH  17  20
BRANCH  18  22
HETATM   22  O2  UNK     1      13.237  12.704  32.478  1.00  0.00    -0.353 OA
HETATM   23  C17 UNK     1      14.004  13.890  32.276  1.00  0.00     0.210 C 
ENDBRANCH  18  22
ENDBRANCH   5  14
TORSDOF 3
ENDMDL
