MODEL 1
REMARK VINA RESULT:     -10.3      0.000      0.000
REMARK  5 active torsions:
REMARK  status: ('A' for Active; 'I' for Inactive)
REMARK    1  A    between atoms: C5_12  and  N1_5 
REMARK    2  A    between atoms: C6_13  and  N2_6 
REMARK    3  A    between atoms: C17_24  and  N3_7 
REMARK       I    between atoms: C9_16  and  N3_7 
REMARK    4  A    between atoms: C5_12  and  C7_14 
REMARK    5  A    between atoms: C6_13  and  C9_16 
ROOT
HETATM    1  N1  UNK     1      19.253  -3.130  36.195  1.00  0.00     0.096 N 
HETATM    2  N2  UNK     1      18.293  -0.521  35.401  1.00  0.00     0.100 N 
HETATM    3  C1  UNK     1      20.015  -2.287  35.265  1.00  0.00     0.303 C 
HETATM    4  C2  UNK     1      18.462  -2.298  37.110  1.00  0.00     0.303 C 
HETATM    5  C3  UNK     1      19.082  -1.353  34.486  1.00  0.00     0.303 C 
HETATM    6  C4  UNK     1      17.530  -1.363  36.330  1.00  0.00     0.303 C 
ENDROOT
BRANCH   1   7
HETATM    7  C5  UNK     1      20.144  -4.017  36.940  1.00  0.00     0.312 C 
BRANCH   7   8
HETATM    8  C7  UNK     1      20.157  -5.398  36.381  1.00  0.00    -0.011 A 
HETATM    9  C10 UNK     1      20.246  -5.611  35.062  1.00  0.00     0.092 A 
HETATM   10  C13 UNK     1      20.262  -6.957  34.464  1.00  0.00     0.288 A 
HETATM   11  O1  UNK     1      20.180  -8.029  35.340  1.00  0.00    -0.275 OA
HETATM   12  O3  UNK     1      20.345  -7.113  33.251  1.00  0.00    -0.260 OA
HETATM   13  C11 UNK     1      20.086  -7.836  36.733  1.00  0.00     0.090 A 
HETATM   14  C8  UNK     1      20.071  -6.554  37.284  1.00  0.00     0.006 A 
HETATM   15  C14 UNK     1      20.008  -8.988  37.518  1.00  0.00     0.045 A 
HETATM   16  C12 UNK     1      19.974  -6.448  38.678  1.00  0.00     0.015 A 
HETATM   17  C16 UNK     1      19.896  -7.592  39.479  1.00  0.00     0.007 A 
HETATM   18  C15 UNK     1      19.913  -8.860  38.901  1.00  0.00    -0.059 A 
HETATM   19  C18 UNK     1      19.830 -10.075  39.760  1.00  0.00     0.048 C 
ENDBRANCH   7   8
ENDBRANCH   1   7
BRANCH   2  20
HETATM   20  C6  UNK     1      17.404   0.369  34.657  1.00  0.00     0.375 C 
BRANCH  20  21
HETATM   21  C9  UNK     1      18.163   1.621  34.254  1.00  0.00     0.250 C 
HETATM   22  O2  UNK     1      19.044   2.114  34.951  1.00  0.00    -0.271 OA
HETATM   23  N3  UNK     1      17.711   2.082  33.020  1.00  0.00    -0.326 N 
HETATM   24  H15 UNK     1      16.965   1.561  32.564  1.00  0.00     0.169 HD
BRANCH  23  25
HETATM   25  C17 UNK     1      18.162   3.217  32.303  1.00  0.00     0.036 A 
HETATM   26  C19 UNK     1      18.255   4.454  32.940  1.00  0.00     0.053 A 
HETATM   27  C21 UNK     1      18.699   5.571  32.232  1.00  0.00     0.036 A 
HETATM   28 Cl1  UNK     1      18.814   7.098  33.017  1.00  0.00    -0.084 Cl
HETATM   29  C23 UNK     1      19.051   5.449  30.887  1.00  0.00     0.024 A 
HETATM   30  C22 UNK     1      18.957   4.212  30.251  1.00  0.00     0.004 A 
HETATM   31  C20 UNK     1      18.513   3.095  30.958  1.00  0.00     0.029 A 
ENDBRANCH  23  25
ENDBRANCH  20  21
ENDBRANCH   2  20
TORSDOF 5
ENDMDL
MODEL 2
REMARK VINA RESULT:     -10.2      1.542      1.775
REMARK  5 active torsions:
REMARK  status: ('A' for Active; 'I' for Inactive)
REMARK    1  A    between atoms: C5_12  and  N1_5 
REMARK    2  A    between atoms: C6_13  and  N2_6 
REMARK    3  A    between atoms: C17_24  and  N3_7 
REMARK       I    between atoms: C9_16  and  N3_7 
REMARK    4  A    between atoms: C5_12  and  C7_14 
REMARK    5  A    between atoms: C6_13  and  C9_16 
ROOT
HETATM    1  N1  UNK     1      19.318  -2.620  35.901  1.00  0.00     0.096 N 
HETATM    2  N2  UNK     1      18.392  -0.022  35.035  1.00  0.00     0.100 N 
HETATM    3  C1  UNK     1      19.827  -2.000  34.672  1.00  0.00     0.303 C 
HETATM    4  C2  UNK     1      18.924  -1.589  36.870  1.00  0.00     0.303 C 
HETATM    5  C3  UNK     1      18.785  -1.053  34.067  1.00  0.00     0.303 C 
HETATM    6  C4  UNK     1      17.883  -0.641  36.264  1.00  0.00     0.303 C 
ENDROOT
BRANCH   1   7
HETATM    7  C5  UNK     1      20.314  -3.520  36.479  1.00  0.00     0.312 C 
BRANCH   7   8
HETATM    8  C7  UNK     1      19.720  -4.821  36.898  1.00  0.00    -0.011 A 
HETATM    9  C10 UNK     1      18.491  -5.180  36.504  1.00  0.00     0.092 A 
HETATM   10  C13 UNK     1      17.863  -6.454  36.893  1.00  0.00     0.288 A 
HETATM   11  O1  UNK     1      18.610  -7.295  37.703  1.00  0.00    -0.275 OA
HETATM   12  O3  UNK     1      16.735  -6.749  36.513  1.00  0.00    -0.260 OA
HETATM   13  C11 UNK     1      19.906  -6.945  38.132  1.00  0.00     0.090 A 
HETATM   14  C8  UNK     1      20.487  -5.733  37.757  1.00  0.00     0.006 A 
HETATM   15  C14 UNK     1      20.565  -7.869  38.946  1.00  0.00     0.045 A 
HETATM   16  C12 UNK     1      21.779  -5.460  38.226  1.00  0.00     0.015 A 
HETATM   17  C16 UNK     1      22.453  -6.375  39.042  1.00  0.00     0.007 A 
HETATM   18  C15 UNK     1      21.847  -7.578  39.401  1.00  0.00    -0.059 A 
HETATM   19  C18 UNK     1      22.571  -8.549  40.270  1.00  0.00     0.048 C 
ENDBRANCH   7   8
ENDBRANCH   1   7
BRANCH   2  20
HETATM   20  C6  UNK     1      17.398   0.880  34.458  1.00  0.00     0.375 C 
BRANCH  20  21
HETATM   21  C9  UNK     1      18.054   2.209  34.125  1.00  0.00     0.250 C 
HETATM   22  O2  UNK     1      18.749   2.823  34.927  1.00  0.00    -0.271 OA
HETATM   23  N3  UNK     1      17.748   2.583  32.818  1.00  0.00    -0.326 N 
HETATM   24  H15 UNK     1      17.150   1.963  32.276  1.00  0.00     0.169 HD
BRANCH  23  25
HETATM   25  C17 UNK     1      18.165   3.750  32.133  1.00  0.00     0.036 A 
HETATM   26  C19 UNK     1      17.976   5.005  32.711  1.00  0.00     0.053 A 
HETATM   27  C21 UNK     1      18.387   6.154  32.035  1.00  0.00     0.036 A 
HETATM   28 Cl1  UNK     1      18.153   7.703  32.748  1.00  0.00    -0.084 Cl
HETATM   29  C23 UNK     1      18.988   6.046  30.780  1.00  0.00     0.024 A 
HETATM   30  C22 UNK     1      19.176   4.791  30.203  1.00  0.00     0.004 A 
HETATM   31  C20 UNK     1      18.765   3.643  30.879  1.00  0.00     0.029 A 
ENDBRANCH  23  25
ENDBRANCH  20  21
ENDBRANCH   2  20
TORSDOF 5
ENDMDL
MODEL 3
REMARK VINA RESULT:     -10.1      6.525     12.937
REMARK  5 active torsions:
REMARK  status: ('A' for Active; 'I' for Inactive)
REMARK    1  A    between atoms: C5_12  and  N1_5 
REMARK    2  A    between atoms: C6_13  and  N2_6 
REMARK    3  A    between atoms: C17_24  and  N3_7 
REMARK       I    between atoms: C9_16  and  N3_7 
REMARK    4  A    between atoms: C5_12  and  C7_14 
REMARK    5  A    between atoms: C6_13  and  C9_16 
ROOT
HETATM    1  N1  UNK     1      18.248   6.095  32.212  1.00  0.00     0.096 N 
HETATM    2  N2  UNK     1      18.994   4.105  30.252  1.00  0.00     0.100 N 
HETATM    3  C1  UNK     1      18.168   4.661  32.513  1.00  0.00     0.303 C 
HETATM    4  C2  UNK     1      19.306   6.354  31.227  1.00  0.00     0.303 C 
HETATM    5  C3  UNK     1      17.936   3.847  31.235  1.00  0.00     0.303 C 
HETATM    6  C4  UNK     1      19.074   5.539  29.950  1.00  0.00     0.303 C 
ENDROOT
BRANCH   1   7
HETATM    7  C5  UNK     1      18.474   6.869  33.431  1.00  0.00     0.312 C 
BRANCH   7   8
HETATM    8  C7  UNK     1      17.353   7.809  33.716  1.00  0.00    -0.011 A 
HETATM    9  C10 UNK     1      16.086   7.377  33.775  1.00  0.00     0.092 A 
HETATM   10  C13 UNK     1      14.946   8.268  34.052  1.00  0.00     0.288 A 
HETATM   11  O1  UNK     1      15.237   9.607  34.257  1.00  0.00    -0.275 OA
HETATM   12  O3  UNK     1      13.799   7.837  34.099  1.00  0.00    -0.260 OA
HETATM   13  C11 UNK     1      16.561  10.090  34.203  1.00  0.00     0.090 A 
HETATM   14  C8  UNK     1      17.630   9.234  33.937  1.00  0.00     0.006 A 
HETATM   15  C14 UNK     1      16.736  11.458  34.424  1.00  0.00     0.045 A 
HETATM   16  C12 UNK     1      18.915   9.793  33.899  1.00  0.00     0.015 A 
HETATM   17  C16 UNK     1      19.107  11.161  34.120  1.00  0.00     0.007 A 
HETATM   18  C15 UNK     1      18.019  11.992  34.382  1.00  0.00    -0.059 A 
HETATM   19  C18 UNK     1      18.231  13.449  34.617  1.00  0.00     0.048 C 
ENDBRANCH   7   8
ENDBRANCH   1   7
BRANCH   2  20
HETATM   20  C6  UNK     1      18.771   3.329  29.034  1.00  0.00     0.375 C 
BRANCH  20  21
HETATM   21  C9  UNK     1      18.589   1.865  29.393  1.00  0.00     0.250 C 
HETATM   22  O2  UNK     1      17.503   1.299  29.331  1.00  0.00    -0.271 OA
HETATM   23  N3  UNK     1      19.807   1.308  29.777  1.00  0.00    -0.326 N 
HETATM   24  H15 UNK     1      20.625   1.914  29.779  1.00  0.00     0.169 HD
BRANCH  23  25
HETATM   25  C17 UNK     1      20.058  -0.025  30.184  1.00  0.00     0.036 A 
HETATM   26  C19 UNK     1      19.882  -0.393  31.517  1.00  0.00     0.053 A 
HETATM   27  C21 UNK     1      20.130  -1.707  31.916  1.00  0.00     0.036 A 
HETATM   28 Cl1  UNK     1      19.913  -2.162  33.561  1.00  0.00    -0.084 Cl
HETATM   29  C23 UNK     1      20.554  -2.651  30.980  1.00  0.00     0.024 A 
HETATM   30  C22 UNK     1      20.731  -2.282  29.648  1.00  0.00     0.004 A 
HETATM   31  C20 UNK     1      20.482  -0.968  29.248  1.00  0.00     0.029 A 
ENDBRANCH  23  25
ENDBRANCH  20  21
ENDBRANCH   2  20
TORSDOF 5
ENDMDL
MODEL 4
REMARK VINA RESULT:     -10.0      6.602     12.545
REMARK  5 active torsions:
REMARK  status: ('A' for Active; 'I' for Inactive)
REMARK    1  A    between atoms: C5_12  and  N1_5 
REMARK    2  A    between atoms: C6_13  and  N2_6 
REMARK    3  A    between atoms: C17_24  and  N3_7 
REMARK       I    between atoms: C9_16  and  N3_7 
REMARK    4  A    between atoms: C5_12  and  C7_14 
REMARK    5  A    between atoms: C6_13  and  C9_16 
ROOT
HETATM    1  N1  UNK     1      18.203   5.612  32.878  1.00  0.00     0.096 N 
HETATM    2  N2  UNK     1      18.895   4.017  30.568  1.00  0.00     0.100 N 
HETATM    3  C1  UNK     1      18.172   4.145  32.927  1.00  0.00     0.303 C 
HETATM    4  C2  UNK     1      19.205   6.071  31.907  1.00  0.00     0.303 C 
HETATM    5  C3  UNK     1      17.894   3.560  31.538  1.00  0.00     0.303 C 
HETATM    6  C4  UNK     1      18.927   5.484  30.518  1.00  0.00     0.303 C 
ENDROOT
BRANCH   1   7
HETATM    7  C5  UNK     1      18.472   6.169  34.202  1.00  0.00     0.312 C 
BRANCH   7   8
HETATM    8  C7  UNK     1      18.460   7.659  34.198  1.00  0.00    -0.011 A 
HETATM    9  C10 UNK     1      19.589   8.362  34.356  1.00  0.00     0.092 A 
HETATM   10  C13 UNK     1      19.626   9.834  34.359  1.00  0.00     0.288 A 
HETATM   11  O1  UNK     1      18.416  10.488  34.187  1.00  0.00    -0.275 OA
HETATM   12  O3  UNK     1      20.680  10.443  34.507  1.00  0.00    -0.260 OA
HETATM   13  C11 UNK     1      17.212   9.775  34.016  1.00  0.00     0.090 A 
HETATM   14  C8  UNK     1      17.193   8.380  34.017  1.00  0.00     0.006 A 
HETATM   15  C14 UNK     1      16.054  10.538  33.852  1.00  0.00     0.045 A 
HETATM   16  C12 UNK     1      15.954   7.748  33.843  1.00  0.00     0.015 A 
HETATM   17  C16 UNK     1      14.785   8.497  33.675  1.00  0.00     0.007 A 
HETATM   18  C15 UNK     1      14.834   9.890  33.680  1.00  0.00    -0.059 A 
HETATM   19  C18 UNK     1      13.585  10.683  33.501  1.00  0.00     0.048 C 
ENDBRANCH   7   8
ENDBRANCH   1   7
BRANCH   2  20
HETATM   20  C6  UNK     1      18.629   3.458  29.244  1.00  0.00     0.375 C 
BRANCH  20  21
HETATM   21  C9  UNK     1      18.532   1.946  29.344  1.00  0.00     0.250 C 
HETATM   22  O2  UNK     1      17.553   1.320  28.953  1.00  0.00    -0.271 OA
HETATM   23  N3  UNK     1      19.689   1.425  29.919  1.00  0.00    -0.326 N 
HETATM   24  H15 UNK     1      20.417   2.081  30.195  1.00  0.00     0.169 HD
BRANCH  23  25
HETATM   25  C17 UNK     1      19.987   0.067  30.183  1.00  0.00     0.036 A 
HETATM   26  C19 UNK     1      19.925  -0.421  31.488  1.00  0.00     0.053 A 
HETATM   27  C21 UNK     1      20.220  -1.760  31.747  1.00  0.00     0.036 A 
HETATM   28 Cl1  UNK     1      20.145  -2.363  33.357  1.00  0.00    -0.084 Cl
HETATM   29  C23 UNK     1      20.575  -2.610  30.699  1.00  0.00     0.024 A 
HETATM   30  C22 UNK     1      20.637  -2.122  29.395  1.00  0.00     0.004 A 
HETATM   31  C20 UNK     1      20.342  -0.783  29.136  1.00  0.00     0.029 A 
ENDBRANCH  23  25
ENDBRANCH  20  21
ENDBRANCH   2  20
TORSDOF 5
ENDMDL
MODEL 5
REMARK VINA RESULT:      -9.7      4.915     10.838
REMARK  5 active torsions:
REMARK  status: ('A' for Active; 'I' for Inactive)
REMARK    1  A    between atoms: C5_12  and  N1_5 
REMARK    2  A    between atoms: C6_13  and  N2_6 
REMARK    3  A    between atoms: C17_24  and  N3_7 
REMARK       I    between atoms: C9_16  and  N3_7 
REMARK    4  A    between atoms: C5_12  and  C7_14 
REMARK    5  A    between atoms: C6_13  and  C9_16 
ROOT
HETATM    1  N1  UNK     1      20.035  -3.976  36.758  1.00  0.00     0.096 N 
HETATM    2  N2  UNK     1      20.220  -6.847  37.045  1.00  0.00     0.100 N 
HETATM    3  C1  UNK     1      20.984  -4.588  37.695  1.00  0.00     0.303 C 
HETATM    4  C2  UNK     1      19.783  -4.874  35.624  1.00  0.00     0.303 C 
HETATM    5  C3  UNK     1      20.471  -5.949  38.179  1.00  0.00     0.303 C 
HETATM    6  C4  UNK     1      19.271  -6.235  36.108  1.00  0.00     0.303 C 
ENDROOT
BRANCH   1   7
HETATM    7  C5  UNK     1      20.526  -2.680  36.295  1.00  0.00     0.312 C 
BRANCH   7   8
HETATM    8  C7  UNK     1      19.540  -1.985  35.421  1.00  0.00    -0.011 A 
HETATM    9  C10 UNK     1      18.441  -1.415  35.934  1.00  0.00     0.092 A 
HETATM   10  C13 UNK     1      17.439  -0.718  35.112  1.00  0.00     0.288 A 
HETATM   11  O1  UNK     1      17.678  -0.668  33.747  1.00  0.00    -0.275 OA
HETATM   12  O3  UNK     1      16.445  -0.208  35.617  1.00  0.00    -0.260 OA
HETATM   13  C11 UNK     1      18.825  -1.257  33.179  1.00  0.00     0.090 A 
HETATM   14  C8  UNK     1      19.766  -1.916  33.971  1.00  0.00     0.006 A 
HETATM   15  C14 UNK     1      18.963  -1.146  31.793  1.00  0.00     0.045 A 
HETATM   16  C12 UNK     1      20.879  -2.475  33.329  1.00  0.00     0.015 A 
HETATM   17  C16 UNK     1      21.031  -2.372  31.942  1.00  0.00     0.007 A 
HETATM   18  C15 UNK     1      20.075  -1.708  31.175  1.00  0.00    -0.059 A 
HETATM   19  C18 UNK     1      20.244  -1.601  29.698  1.00  0.00     0.048 C 
ENDBRANCH   7   8
ENDBRANCH   1   7
BRANCH   2  20
HETATM   20  C6  UNK     1      19.732  -8.143  37.508  1.00  0.00     0.375 C 
BRANCH  20  21
HETATM   21  C9  UNK     1      20.909  -9.068  37.760  1.00  0.00     0.250 C 
HETATM   22  O2  UNK     1      21.113  -9.599  38.847  1.00  0.00    -0.271 OA
HETATM   23  N3  UNK     1      21.671  -9.205  36.602  1.00  0.00    -0.326 N 
HETATM   24  H15 UNK     1      21.371  -8.693  35.774  1.00  0.00     0.169 HD
BRANCH  23  25
HETATM   25  C17 UNK     1      22.844  -9.977  36.425  1.00  0.00     0.036 A 
HETATM   26  C19 UNK     1      24.088  -9.447  36.767  1.00  0.00     0.053 A 
HETATM   27  C21 UNK     1      25.243 -10.209  36.592  1.00  0.00     0.036 A 
HETATM   28 Cl1  UNK     1      26.778  -9.555  37.013  1.00  0.00    -0.084 Cl
HETATM   29  C23 UNK     1      25.153 -11.502  36.074  1.00  0.00     0.024 A 
HETATM   30  C22 UNK     1      23.910 -12.032  35.732  1.00  0.00     0.004 A 
HETATM   31  C20 UNK     1      22.755 -11.270  35.908  1.00  0.00     0.029 A 
ENDBRANCH  23  25
ENDBRANCH  20  21
ENDBRANCH   2  20
TORSDOF 5
ENDMDL
MODEL 6
REMARK VINA RESULT:      -9.4      2.830      3.668
REMARK  5 active torsions:
REMARK  status: ('A' for Active; 'I' for Inactive)
REMARK    1  A    between atoms: C5_12  and  N1_5 
REMARK    2  A    between atoms: C6_13  and  N2_6 
REMARK    3  A    between atoms: C17_24  and  N3_7 
REMARK       I    between atoms: C9_16  and  N3_7 
REMARK    4  A    between atoms: C5_12  and  C7_14 
REMARK    5  A    between atoms: C6_13  and  C9_16 
ROOT
HETATM    1  N1  UNK     1      19.484  -4.153  36.704  1.00  0.00     0.096 N 
HETATM    2  N2  UNK     1      18.706  -1.605  35.580  1.00  0.00     0.100 N 
HETATM    3  C1  UNK     1      18.110  -3.653  36.829  1.00  0.00     0.303 C 
HETATM    4  C2  UNK     1      20.108  -3.638  35.479  1.00  0.00     0.303 C 
HETATM    5  C3  UNK     1      18.083  -2.120  36.805  1.00  0.00     0.303 C 
HETATM    6  C4  UNK     1      20.080  -2.105  35.455  1.00  0.00     0.303 C 
ENDROOT
BRANCH   1   7
HETATM    7  C5  UNK     1      19.508  -5.614  36.723  1.00  0.00     0.312 C 
BRANCH   7   8
HETATM    8  C7  UNK     1      20.802  -6.148  37.232  1.00  0.00    -0.011 A 
HETATM    9  C10 UNK     1      21.548  -5.448  38.096  1.00  0.00     0.092 A 
HETATM   10  C13 UNK     1      22.833  -5.935  38.626  1.00  0.00     0.288 A 
HETATM   11  O1  UNK     1      23.257  -7.180  38.188  1.00  0.00    -0.275 OA
HETATM   12  O3  UNK     1      23.490  -5.265  39.416  1.00  0.00    -0.260 OA
HETATM   13  C11 UNK     1      22.492  -7.940  37.280  1.00  0.00     0.090 A 
HETATM   14  C8  UNK     1      21.276  -7.465  36.785  1.00  0.00     0.006 A 
HETATM   15  C14 UNK     1      23.016  -9.180  36.907  1.00  0.00     0.045 A 
HETATM   16  C12 UNK     1      20.578  -8.281  35.886  1.00  0.00     0.015 A 
HETATM   17  C16 UNK     1      21.089  -9.526  35.504  1.00  0.00     0.007 A 
HETATM   18  C15 UNK     1      22.306  -9.975  36.014  1.00  0.00    -0.059 A 
HETATM   19  C18 UNK     1      22.845 -11.302  35.602  1.00  0.00     0.048 C 
ENDBRANCH   7   8
ENDBRANCH   1   7
BRANCH   2  20
HETATM   20  C6  UNK     1      18.680  -0.145  35.559  1.00  0.00     0.375 C 
BRANCH  20  21
HETATM   21  C9  UNK     1      18.050   0.332  34.262  1.00  0.00     0.250 C 
HETATM   22  O2  UNK     1      16.836   0.412  34.107  1.00  0.00    -0.271 OA
HETATM   23  N3  UNK     1      19.039   0.650  33.334  1.00  0.00    -0.326 N 
HETATM   24  H15 UNK     1      20.010   0.526  33.616  1.00  0.00     0.169 HD
BRANCH  23  25
HETATM   25  C17 UNK     1      18.863   1.129  32.013  1.00  0.00     0.036 A 
HETATM   26  C19 UNK     1      19.189   0.318  30.927  1.00  0.00     0.053 A 
HETATM   27  C21 UNK     1      19.016   0.791  29.626  1.00  0.00     0.036 A 
HETATM   28 Cl1  UNK     1      19.418  -0.210  28.285  1.00  0.00    -0.084 Cl
HETATM   29  C23 UNK     1      18.517   2.076  29.413  1.00  0.00     0.024 A 
HETATM   30  C22 UNK     1      18.192   2.887  30.499  1.00  0.00     0.004 A 
HETATM   31  C20 UNK     1      18.365   2.414  31.800  1.00  0.00     0.029 A 
ENDBRANCH  23  25
ENDBRANCH  20  21
ENDBRANCH   2  20
TORSDOF 5
ENDMDL
MODEL 7
REMARK VINA RESULT:      -9.4      4.552     12.620
REMARK  5 active torsions:
REMARK  status: ('A' for Active; 'I' for Inactive)
REMARK    1  A    between atoms: C5_12  and  N1_5 
REMARK    2  A    between atoms: C6_13  and  N2_6 
REMARK    3  A    between atoms: C17_24  and  N3_7 
REMARK       I    between atoms: C9_16  and  N3_7 
REMARK    4  A    between atoms: C5_12  and  C7_14 
REMARK    5  A    between atoms: C6_13  and  C9_16 
ROOT
HETATM    1  N1  UNK     1      18.077   5.368  31.625  1.00  0.00     0.096 N 
HETATM    2  N2  UNK     1      19.018   2.707  30.998  1.00  0.00     0.100 N 
HETATM    3  C1  UNK     1      18.304   4.371  32.678  1.00  0.00     0.303 C 
HETATM    4  C2  UNK     1      18.974   5.124  30.488  1.00  0.00     0.303 C 
HETATM    5  C3  UNK     1      18.121   2.950  32.133  1.00  0.00     0.303 C 
HETATM    6  C4  UNK     1      18.792   3.703  29.944  1.00  0.00     0.303 C 
ENDROOT
BRANCH   1   7
HETATM    7  C5  UNK     1      18.255   6.722  32.145  1.00  0.00     0.312 C 
BRANCH   7   8
HETATM    8  C7  UNK     1      16.954   7.399  32.406  1.00  0.00    -0.011 A 
HETATM    9  C10 UNK     1      15.795   6.840  32.034  1.00  0.00     0.092 A 
HETATM   10  C13 UNK     1      14.486   7.471  32.271  1.00  0.00     0.288 A 
HETATM   11  O1  UNK     1      14.494   8.701  32.911  1.00  0.00    -0.275 OA
HETATM   12  O3  UNK     1      13.445   6.929  31.916  1.00  0.00    -0.260 OA
HETATM   13  C11 UNK     1      15.698   9.313  33.315  1.00  0.00     0.090 A 
HETATM   14  C8  UNK     1      16.931   8.703  33.083  1.00  0.00     0.006 A 
HETATM   15  C14 UNK     1      15.585  10.552  33.950  1.00  0.00     0.045 A 
HETATM   16  C12 UNK     1      18.081   9.378  33.514  1.00  0.00     0.015 A 
HETATM   17  C16 UNK     1      17.985  10.619  34.153  1.00  0.00     0.007 A 
HETATM   18  C15 UNK     1      16.739  11.205  34.371  1.00  0.00    -0.059 A 
HETATM   19  C18 UNK     1      16.644  12.527  35.053  1.00  0.00     0.048 C 
ENDBRANCH   7   8
ENDBRANCH   1   7
BRANCH   2  20
HETATM   20  C6  UNK     1      18.843   1.352  30.479  1.00  0.00     0.375 C 
BRANCH  20  21
HETATM   21  C9  UNK     1      19.612   0.374  31.349  1.00  0.00     0.250 C 
HETATM   22  O2  UNK     1      20.770   0.048  31.113  1.00  0.00    -0.271 OA
HETATM   23  N3  UNK     1      18.815  -0.060  32.407  1.00  0.00    -0.326 N 
HETATM   24  H15 UNK     1      17.866   0.303  32.464  1.00  0.00     0.169 HD
BRANCH  23  25
HETATM   25  C17 UNK     1      19.163  -0.970  33.434  1.00  0.00     0.036 A 
HETATM   26  C19 UNK     1      18.634  -0.813  34.715  1.00  0.00     0.053 A 
HETATM   27  C21 UNK     1      18.978  -1.710  35.726  1.00  0.00     0.036 A 
HETATM   28 Cl1  UNK     1      18.326  -1.516  37.307  1.00  0.00    -0.084 Cl
HETATM   29  C23 UNK     1      19.850  -2.764  35.455  1.00  0.00     0.024 A 
HETATM   30  C22 UNK     1      20.379  -2.921  34.175  1.00  0.00     0.004 A 
HETATM   31  C20 UNK     1      20.036  -2.024  33.163  1.00  0.00     0.029 A 
ENDBRANCH  23  25
ENDBRANCH  20  21
ENDBRANCH   2  20
TORSDOF 5
ENDMDL
MODEL 8
REMARK VINA RESULT:      -9.3      6.810     13.770
REMARK  5 active torsions:
REMARK  status: ('A' for Active; 'I' for Inactive)
REMARK    1  A    between atoms: C5_12  and  N1_5 
REMARK    2  A    between atoms: C6_13  and  N2_6 
REMARK    3  A    between atoms: C17_24  and  N3_7 
REMARK       I    between atoms: C9_16  and  N3_7 
REMARK    4  A    between atoms: C5_12  and  C7_14 
REMARK    5  A    between atoms: C6_13  and  C9_16 
ROOT
HETATM    1  N1  UNK     1      18.201   7.777  33.265  1.00  0.00     0.096 N 
HETATM    2  N2  UNK     1      18.394   5.237  31.896  1.00  0.00     0.100 N 
HETATM    3  C1  UNK     1      17.107   6.800  33.314  1.00  0.00     0.303 C 
HETATM    4  C2  UNK     1      19.491   7.094  33.102  1.00  0.00     0.303 C 
HETATM    5  C3  UNK     1      17.105   5.920  32.058  1.00  0.00     0.303 C 
HETATM    6  C4  UNK     1      19.488   6.214  31.847  1.00  0.00     0.303 C 
ENDROOT
BRANCH   1   7
HETATM    7  C5  UNK     1      18.205   8.612  34.465  1.00  0.00     0.312 C 
BRANCH   7   8
HETATM    8  C7  UNK     1      17.854  10.028  34.164  1.00  0.00    -0.011 A 
HETATM    9  C10 UNK     1      18.773  10.887  33.703  1.00  0.00     0.092 A 
HETATM   10  C13 UNK     1      18.473  12.294  33.393  1.00  0.00     0.288 A 
HETATM   11  O1  UNK     1      17.169  12.714  33.600  1.00  0.00    -0.275 OA
HETATM   12  O3  UNK     1      19.341  13.051  32.972  1.00  0.00    -0.260 OA
HETATM   13  C11 UNK     1      16.180  11.834  34.083  1.00  0.00     0.090 A 
HETATM   14  C8  UNK     1      16.479  10.502  34.374  1.00  0.00     0.006 A 
HETATM   15  C14 UNK     1      14.900  12.366  34.254  1.00  0.00     0.045 A 
HETATM   16  C12 UNK     1      15.440   9.692  34.851  1.00  0.00     0.015 A 
HETATM   17  C16 UNK     1      14.152  10.210  35.027  1.00  0.00     0.007 A 
HETATM   18  C15 UNK     1      13.882  11.545  34.728  1.00  0.00    -0.059 A 
HETATM   19  C18 UNK     1      12.508  12.090  34.918  1.00  0.00     0.048 C 
ENDBRANCH   7   8
ENDBRANCH   1   7
BRANCH   2  20
HETATM   20  C6  UNK     1      18.391   4.400  30.699  1.00  0.00     0.375 C 
BRANCH  20  21
HETATM   21  C9  UNK     1      18.474   2.939  31.103  1.00  0.00     0.250 C 
HETATM   22  O2  UNK     1      17.903   2.492  32.092  1.00  0.00    -0.271 OA
HETATM   23  N3  UNK     1      19.264   2.233  30.198  1.00  0.00    -0.326 N 
HETATM   24  H15 UNK     1      19.675   2.751  29.424  1.00  0.00     0.169 HD
BRANCH  23  25
HETATM   25  C17 UNK     1      19.585   0.854  30.223  1.00  0.00     0.036 A 
HETATM   26  C19 UNK     1      19.540   0.148  31.425  1.00  0.00     0.053 A 
HETATM   27  C21 UNK     1      19.857  -1.210  31.448  1.00  0.00     0.036 A 
HETATM   28 Cl1  UNK     1      19.802  -2.082  32.930  1.00  0.00    -0.084 Cl
HETATM   29  C23 UNK     1      20.219  -1.862  30.268  1.00  0.00     0.024 A 
HETATM   30  C22 UNK     1      20.264  -1.155  29.067  1.00  0.00     0.004 A 
HETATM   31  C20 UNK     1      19.947   0.203  29.044  1.00  0.00     0.029 A 
ENDBRANCH  23  25
ENDBRANCH  20  21
ENDBRANCH   2  20
TORSDOF 5
ENDMDL
MODEL 9
REMARK VINA RESULT:      -9.2     14.375     17.205
REMARK  5 active torsions:
REMARK  status: ('A' for Active; 'I' for Inactive)
REMARK    1  A    between atoms: C5_12  and  N1_5 
REMARK    2  A    between atoms: C6_13  and  N2_6 
REMARK    3  A    between atoms: C17_24  and  N3_7 
REMARK       I    between atoms: C9_16  and  N3_7 
REMARK    4  A    between atoms: C5_12  and  C7_14 
REMARK    5  A    between atoms: C6_13  and  C9_16 
ROOT
HETATM    1  N1  UNK     1      32.186  -6.028  35.940  1.00  0.00     0.096 N 
HETATM    2  N2  UNK     1      34.810  -6.548  34.842  1.00  0.00     0.100 N 
HETATM    3  C1  UNK     1      33.076  -4.931  35.541  1.00  0.00     0.303 C 
HETATM    4  C2  UNK     1      32.451  -7.224  35.130  1.00  0.00     0.303 C 
HETATM    5  C3  UNK     1      34.546  -5.353  35.653  1.00  0.00     0.303 C 
HETATM    6  C4  UNK     1      33.921  -7.645  35.242  1.00  0.00     0.303 C 
ENDROOT
BRANCH   1   7
HETATM    7  C5  UNK     1      30.786  -5.626  35.829  1.00  0.00     0.312 C 
BRANCH   7   8
HETATM    8  C7  UNK     1      30.100  -5.606  37.151  1.00  0.00    -0.011 A 
HETATM    9  C10 UNK     1      30.126  -4.516  37.929  1.00  0.00     0.092 A 
HETATM   10  C13 UNK     1      29.464  -4.450  39.242  1.00  0.00     0.288 A 
HETATM   11  O1  UNK     1      28.792  -5.588  39.659  1.00  0.00    -0.275 OA
HETATM   12  O3  UNK     1      29.510  -3.434  39.927  1.00  0.00    -0.260 OA
HETATM   13  C11 UNK     1      28.745  -6.750  38.862  1.00  0.00     0.090 A 
HETATM   14  C8  UNK     1      29.379  -6.797  37.620  1.00  0.00     0.006 A 
HETATM   15  C14 UNK     1      28.040  -7.836  39.383  1.00  0.00     0.045 A 
HETATM   16  C12 UNK     1      29.287  -7.990  36.889  1.00  0.00     0.015 A 
HETATM   17  C16 UNK     1      28.583  -9.087  37.397  1.00  0.00     0.007 A 
HETATM   18  C15 UNK     1      27.960  -9.011  38.641  1.00  0.00    -0.059 A 
HETATM   19  C18 UNK     1      27.211 -10.183  39.176  1.00  0.00     0.048 C 
ENDBRANCH   7   8
ENDBRANCH   1   7
BRANCH   2  20
HETATM   20  C6  UNK     1      36.211  -6.949  34.951  1.00  0.00     0.375 C 
BRANCH  20  21
HETATM   21  C9  UNK     1      36.592  -7.789  33.745  1.00  0.00     0.250 C 
HETATM   22  O2  UNK     1      36.595  -7.344  32.602  1.00  0.00    -0.271 OA
HETATM   23  N3  UNK     1      36.925  -9.082  34.144  1.00  0.00    -0.326 N 
HETATM   24  H15 UNK     1      36.870  -9.300  35.137  1.00  0.00     0.169 HD
BRANCH  23  25
HETATM   25  C17 UNK     1      37.333 -10.162  33.324  1.00  0.00     0.036 A 
HETATM   26  C19 UNK     1      38.568 -10.120  32.678  1.00  0.00     0.053 A 
HETATM   27  C21 UNK     1      38.969 -11.184  31.870  1.00  0.00     0.036 A 
HETATM   28 Cl1  UNK     1      40.493 -11.133  31.073  1.00  0.00    -0.084 Cl
HETATM   29  C23 UNK     1      38.134 -12.290  31.710  1.00  0.00     0.024 A 
HETATM   30  C22 UNK     1      36.899 -12.331  32.355  1.00  0.00     0.004 A 
HETATM   31  C20 UNK     1      36.498 -11.267  33.163  1.00  0.00     0.029 A 
ENDBRANCH  23  25
ENDBRANCH  20  21
ENDBRANCH   2  20
TORSDOF 5
ENDMDL
MODEL 10
REMARK VINA RESULT:      -9.1      6.485      9.422
REMARK  5 active torsions:
REMARK  status: ('A' for Active; 'I' for Inactive)
REMARK    1  A    between atoms: C5_12  and  N1_5 
REMARK    2  A    between atoms: C6_13  and  N2_6 
REMARK    3  A    between atoms: C17_24  and  N3_7 
REMARK       I    between atoms: C9_16  and  N3_7 
REMARK    4  A    between atoms: C5_12  and  C7_14 
REMARK    5  A    between atoms: C6_13  and  C9_16 
ROOT
HETATM    1  N1  UNK     1      18.362   4.944  32.560  1.00  0.00     0.096 N 
HETATM    2  N2  UNK     1      18.490   7.739  33.287  1.00  0.00     0.100 N 
HETATM    3  C1  UNK     1      17.146   5.759  32.672  1.00  0.00     0.303 C 
HETATM    4  C2  UNK     1      19.506   5.781  32.175  1.00  0.00     0.303 C 
HETATM    5  C3  UNK     1      17.347   6.903  33.673  1.00  0.00     0.303 C 
HETATM    6  C4  UNK     1      19.705   6.925  33.175  1.00  0.00     0.303 C 
ENDROOT
BRANCH   1   7
HETATM    7  C5  UNK     1      18.170   3.856  31.603  1.00  0.00     0.312 C 
BRANCH   7   8
HETATM    8  C7  UNK     1      18.375   2.518  32.225  1.00  0.00    -0.011 A 
HETATM    9  C10 UNK     1      18.055   2.293  33.506  1.00  0.00     0.092 A 
HETATM   10  C13 UNK     1      18.239   0.989  34.164  1.00  0.00     0.288 A 
HETATM   11  O1  UNK     1      18.772  -0.030  33.389  1.00  0.00    -0.275 OA
HETATM   12  O3  UNK     1      17.934   0.821  35.339  1.00  0.00    -0.260 OA
HETATM   13  C11 UNK     1      19.118   0.177  32.038  1.00  0.00     0.090 A 
HETATM   14  C8  UNK     1      18.938   1.419  31.429  1.00  0.00     0.006 A 
HETATM   15  C14 UNK     1      19.647  -0.921  31.355  1.00  0.00     0.045 A 
HETATM   16  C12 UNK     1      19.308   1.542  30.083  1.00  0.00     0.015 A 
HETATM   17  C16 UNK     1      19.839   0.452  29.385  1.00  0.00     0.007 A 
HETATM   18  C15 UNK     1      20.008  -0.777  30.019  1.00  0.00    -0.059 A 
HETATM   19  C18 UNK     1      20.573  -1.935  29.269  1.00  0.00     0.048 C 
ENDBRANCH   7   8
ENDBRANCH   1   7
BRANCH   2  20
HETATM   20  C6  UNK     1      18.680   8.829  34.241  1.00  0.00     0.375 C 
BRANCH  20  21
HETATM   21  C9  UNK     1      17.675   9.932  33.958  1.00  0.00     0.250 C 
HETATM   22  O2  UNK     1      17.981  10.975  33.390  1.00  0.00    -0.271 OA
HETATM   23  N3  UNK     1      16.414   9.567  34.424  1.00  0.00    -0.326 N 
HETATM   24  H15 UNK     1      16.322   8.661  34.880  1.00  0.00     0.169 HD
BRANCH  23  25
HETATM   25  C17 UNK     1      15.215  10.316  34.351  1.00  0.00     0.036 A 
HETATM   26  C19 UNK     1      14.818  11.105  35.431  1.00  0.00     0.053 A 
HETATM   27  C21 UNK     1      13.636  11.843  35.358  1.00  0.00     0.036 A 
HETATM   28 Cl1  UNK     1      13.145  12.816  36.689  1.00  0.00    -0.084 Cl
HETATM   29  C23 UNK     1      12.852  11.791  34.205  1.00  0.00     0.024 A 
HETATM   30  C22 UNK     1      13.250  11.001  33.126  1.00  0.00     0.004 A 
HETATM   31  C20 UNK     1      14.432  10.264  33.199  1.00  0.00     0.029 A 
ENDBRANCH  23  25
ENDBRANCH  20  21
ENDBRANCH   2  20
TORSDOF 5
ENDMDL
