MODEL 1
REMARK VINA RESULT:      -8.7      0.000      0.000
REMARK  6 active torsions:
REMARK  status: ('A' for Active; 'I' for Inactive)
REMARK    1  A    between atoms: C1_7  and  O1_4 
REMARK    2  A    between atoms: C4_10  and  O1_4 
REMARK    3  A    between atoms: C3_9  and  O2_5 
REMARK    4  A    between atoms: C2_8  and  C9_15 
REMARK    5  A    between atoms: C4_10  and  C8_14 
REMARK    6  A    between atoms: C10_16  and  C11_17 
ROOT
HETATM    1  N1  UNK     1      21.904  -1.709  35.348  1.00  0.00    -0.191 NA
HETATM    2  C9  UNK     1      18.548  -2.237  35.939  1.00  0.00     0.036 C 
HETATM    3  C10 UNK     1      19.726  -2.880  36.155  1.00  0.00     0.055 C 
HETATM    4  C23 UNK     1      20.926  -2.225  35.705  1.00  0.00     0.100 C 
ENDROOT
BRANCH   3   5
HETATM    5  C11 UNK     1      19.836  -4.172  36.813  1.00  0.00    -0.015 A 
HETATM    6  C16 UNK     1      18.884  -5.162  36.570  1.00  0.00     0.014 A 
HETATM    7  C19 UNK     1      18.988  -6.401  37.201  1.00  0.00     0.024 A 
HETATM    8  C21 UNK     1      20.045  -6.651  38.076  1.00  0.00     0.034 A 
HETATM    9  C20 UNK     1      20.998  -5.661  38.320  1.00  0.00     0.024 A 
HETATM   10 Cl2  UNK     1      20.175  -8.179  38.856  1.00  0.00    -0.084 Cl
HETATM   11  C17 UNK     1      20.893  -4.422  37.688  1.00  0.00     0.014 A 
ENDBRANCH   3   5
BRANCH   2  12
HETATM   12  C2  UNK     1      18.391  -0.930  35.285  1.00  0.00    -0.015 A 
HETATM   13  C5  UNK     1      18.599  -0.880  33.912  1.00  0.00     0.052 A 
HETATM   14  C3  UNK     1      18.464   0.334  33.238  1.00  0.00     0.102 A 
HETATM   15  C1  UNK     1      18.122   1.488  33.943  1.00  0.00     0.103 A 
HETATM   16  C6  UNK     1      17.916   1.428  35.322  1.00  0.00     0.059 A 
HETATM   17  C7  UNK     1      18.052   0.214  35.995  1.00  0.00     0.024 A 
HETATM   18 Br1  UNK     1      17.756   0.202  37.872  1.00  0.00    -0.050 Br
BRANCH  14  19
HETATM   19  O2  UNK     1      18.669   0.380  31.892  1.00  0.00    -0.353 OA
HETATM   20  C22 UNK     1      19.773  -0.362  31.379  1.00  0.00     0.210 C 
ENDBRANCH  14  19
BRANCH  15  21
HETATM   21  O1  UNK     1      17.988   2.679  33.297  1.00  0.00    -0.344 OA
BRANCH  21  22
HETATM   22  C4  UNK     1      18.583   3.820  33.910  1.00  0.00     0.214 C 
BRANCH  22  23
HETATM   23  C8  UNK     1      17.911   5.059  33.396  1.00  0.00    -0.034 A 
HETATM   24  C12 UNK     1      17.247   5.900  34.283  1.00  0.00     0.011 A 
HETATM   25  C14 UNK     1      16.621   7.052  33.807  1.00  0.00     0.024 A 
HETATM   26  C18 UNK     1      16.662   7.355  32.446  1.00  0.00     0.034 A 
HETATM   27  C15 UNK     1      17.329   6.507  31.562  1.00  0.00     0.024 A 
HETATM   28 Cl1  UNK     1      15.889   8.775  31.856  1.00  0.00    -0.084 Cl
HETATM   29  C13 UNK     1      17.955   5.356  32.038  1.00  0.00     0.011 A 
ENDBRANCH  22  23
ENDBRANCH  21  22
ENDBRANCH  15  21
ENDBRANCH   2  12
TORSDOF 6
ENDMDL
MODEL 2
REMARK VINA RESULT:      -8.7      6.285      8.329
REMARK  6 active torsions:
REMARK  status: ('A' for Active; 'I' for Inactive)
REMARK    1  A    between atoms: C1_7  and  O1_4 
REMARK    2  A    between atoms: C4_10  and  O1_4 
REMARK    3  A    between atoms: C3_9  and  O2_5 
REMARK    4  A    between atoms: C2_8  and  C9_15 
REMARK    5  A    between atoms: C4_10  and  C8_14 
REMARK    6  A    between atoms: C10_16  and  C11_17 
ROOT
HETATM    1  N1  UNK     1      18.138   3.067  34.330  1.00  0.00    -0.191 NA
HETATM    2  C9  UNK     1      18.049   4.889  31.404  1.00  0.00     0.036 C 
HETATM    3  C10 UNK     1      18.274   3.604  31.790  1.00  0.00     0.055 C 
HETATM    4  C23 UNK     1      18.197   3.316  33.197  1.00  0.00     0.100 C 
ENDROOT
BRANCH   3   5
HETATM    5  C11 UNK     1      18.577   2.522  30.866  1.00  0.00    -0.015 A 
HETATM    6  C16 UNK     1      19.353   1.442  31.286  1.00  0.00     0.014 A 
HETATM    7  C19 UNK     1      19.643   0.404  30.401  1.00  0.00     0.024 A 
HETATM    8  C21 UNK     1      19.157   0.446  29.094  1.00  0.00     0.034 A 
HETATM    9  C20 UNK     1      18.381   1.526  28.673  1.00  0.00     0.024 A 
HETATM   10 Cl2  UNK     1      19.516  -0.833  28.001  1.00  0.00    -0.084 Cl
HETATM   11  C17 UNK     1      18.091   2.564  29.560  1.00  0.00     0.014 A 
ENDBRANCH   3   5
BRANCH   2  12
HETATM   12  C2  UNK     1      17.735   6.010  32.300  1.00  0.00    -0.015 A 
HETATM   13  C5  UNK     1      16.391   6.281  32.528  1.00  0.00     0.052 A 
HETATM   14  C3  UNK     1      16.034   7.333  33.370  1.00  0.00     0.102 A 
HETATM   15  C1  UNK     1      17.023   8.107  33.977  1.00  0.00     0.103 A 
HETATM   16  C6  UNK     1      18.370   7.828  33.741  1.00  0.00     0.059 A 
HETATM   17  C7  UNK     1      18.726   6.775  32.899  1.00  0.00     0.024 A 
HETATM   18 Br1  UNK     1      20.577   6.449  32.621  1.00  0.00    -0.050 Br
BRANCH  14  19
HETATM   19  O2  UNK     1      14.715   7.597  33.592  1.00  0.00    -0.353 OA
HETATM   20  C22 UNK     1      13.815   7.347  32.515  1.00  0.00     0.210 C 
ENDBRANCH  14  19
BRANCH  15  21
HETATM   21  O1  UNK     1      16.687   9.138  34.801  1.00  0.00    -0.344 OA
BRANCH  21  22
HETATM   22  C4  UNK     1      16.734  10.452  34.249  1.00  0.00     0.214 C 
BRANCH  22  23
HETATM   23  C8  UNK     1      15.370  11.070  34.339  1.00  0.00    -0.034 A 
HETATM   24  C12 UNK     1      14.492  10.960  33.267  1.00  0.00     0.011 A 
HETATM   25  C14 UNK     1      13.224  11.536  33.350  1.00  0.00     0.024 A 
HETATM   26  C18 UNK     1      12.843  12.218  34.505  1.00  0.00     0.034 A 
HETATM   27  C15 UNK     1      13.728  12.326  35.577  1.00  0.00     0.024 A 
HETATM   28 Cl1  UNK     1      11.279  12.930  34.608  1.00  0.00    -0.084 Cl
HETATM   29  C13 UNK     1      14.996  11.750  35.494  1.00  0.00     0.011 A 
ENDBRANCH  22  23
ENDBRANCH  21  22
ENDBRANCH  15  21
ENDBRANCH   2  12
TORSDOF 6
ENDMDL
MODEL 3
REMARK VINA RESULT:      -8.6      4.456     10.720
REMARK  6 active torsions:
REMARK  status: ('A' for Active; 'I' for Inactive)
REMARK    1  A    between atoms: C1_7  and  O1_4 
REMARK    2  A    between atoms: C4_10  and  O1_4 
REMARK    3  A    between atoms: C3_9  and  O2_5 
REMARK    4  A    between atoms: C2_8  and  C9_15 
REMARK    5  A    between atoms: C4_10  and  C8_14 
REMARK    6  A    between atoms: C10_16  and  C11_17 
ROOT
HETATM    1  N1  UNK     1      21.584   6.179  32.718  1.00  0.00    -0.191 NA
HETATM    2  C9  UNK     1      18.138   6.224  32.832  1.00  0.00     0.036 C 
HETATM    3  C10 UNK     1      19.170   7.064  33.110  1.00  0.00     0.055 C 
HETATM    4  C23 UNK     1      20.502   6.565  32.890  1.00  0.00     0.100 C 
ENDROOT
BRANCH   3   5
HETATM    5  C11 UNK     1      19.000   8.422  33.603  1.00  0.00    -0.015 A 
HETATM    6  C16 UNK     1      17.759   9.051  33.499  1.00  0.00     0.014 A 
HETATM    7  C19 UNK     1      17.596  10.353  33.973  1.00  0.00     0.024 A 
HETATM    8  C21 UNK     1      18.673  11.026  34.549  1.00  0.00     0.034 A 
HETATM    9  C20 UNK     1      19.914  10.396  34.653  1.00  0.00     0.024 A 
HETATM   10 Cl2  UNK     1      18.473  12.632  35.132  1.00  0.00    -0.084 Cl
HETATM   11  C17 UNK     1      20.077   9.094  34.180  1.00  0.00     0.014 A 
ENDBRANCH   3   5
BRANCH   2  12
HETATM   12  C2  UNK     1      18.263   4.849  32.327  1.00  0.00    -0.015 A 
HETATM   13  C5  UNK     1      18.041   3.819  33.233  1.00  0.00     0.052 A 
HETATM   14  C3  UNK     1      18.146   2.495  32.808  1.00  0.00     0.102 A 
HETATM   15  C1  UNK     1      18.472   2.211  31.483  1.00  0.00     0.103 A 
HETATM   16  C6  UNK     1      18.695   3.252  30.581  1.00  0.00     0.059 A 
HETATM   17  C7  UNK     1      18.590   4.576  31.005  1.00  0.00     0.024 A 
HETATM   18 Br1  UNK     1      18.904   5.946  29.726  1.00  0.00    -0.050 Br
BRANCH  14  19
HETATM   19  O2  UNK     1      17.927   1.486  33.699  1.00  0.00    -0.353 OA
HETATM   20  C22 UNK     1      18.476   1.646  35.005  1.00  0.00     0.210 C 
ENDBRANCH  14  19
BRANCH  15  21
HETATM   21  O1  UNK     1      18.578   0.921  31.057  1.00  0.00    -0.344 OA
BRANCH  21  22
HETATM   22  C4  UNK     1      19.726   0.587  30.280  1.00  0.00     0.214 C 
BRANCH  22  23
HETATM   23  C8  UNK     1      20.203  -0.780  30.673  1.00  0.00    -0.034 A 
HETATM   24  C12 UNK     1      20.433  -1.738  29.692  1.00  0.00     0.011 A 
HETATM   25  C14 UNK     1      20.875  -3.010  30.056  1.00  0.00     0.024 A 
HETATM   26  C18 UNK     1      21.083  -3.316  31.401  1.00  0.00     0.034 A 
HETATM   27  C15 UNK     1      20.850  -2.351  32.381  1.00  0.00     0.024 A 
HETATM   28 Cl1  UNK     1      21.628  -4.885  31.853  1.00  0.00    -0.084 Cl
HETATM   29  C13 UNK     1      20.408  -1.079  32.016  1.00  0.00     0.011 A 
ENDBRANCH  22  23
ENDBRANCH  21  22
ENDBRANCH  15  21
ENDBRANCH   2  12
TORSDOF 6
ENDMDL
MODEL 4
REMARK VINA RESULT:      -8.4     12.561     15.087
REMARK  6 active torsions:
REMARK  status: ('A' for Active; 'I' for Inactive)
REMARK    1  A    between atoms: C1_7  and  O1_4 
REMARK    2  A    between atoms: C4_10  and  O1_4 
REMARK    3  A    between atoms: C3_9  and  O2_5 
REMARK    4  A    between atoms: C2_8  and  C9_15 
REMARK    5  A    between atoms: C4_10  and  C8_14 
REMARK    6  A    between atoms: C10_16  and  C11_17 
ROOT
HETATM    1  N1  UNK     1      27.456 -10.336  39.714  1.00  0.00    -0.191 NA
HETATM    2  C9  UNK     1      27.464  -8.572  36.751  1.00  0.00     0.036 C 
HETATM    3  C10 UNK     1      26.664  -9.462  37.397  1.00  0.00     0.055 C 
HETATM    4  C23 UNK     1      27.110  -9.941  38.679  1.00  0.00     0.100 C 
ENDROOT
BRANCH   3   5
HETATM    5  C11 UNK     1      25.395  -9.942  36.870  1.00  0.00    -0.015 A 
HETATM    6  C16 UNK     1      25.317 -11.204  36.282  1.00  0.00     0.014 A 
HETATM    7  C19 UNK     1      24.101 -11.664  35.777  1.00  0.00     0.024 A 
HETATM    8  C21 UNK     1      22.963 -10.861  35.859  1.00  0.00     0.034 A 
HETATM    9  C20 UNK     1      23.042  -9.598  36.446  1.00  0.00     0.024 A 
HETATM   10 Cl2  UNK     1      21.464 -11.427  35.235  1.00  0.00    -0.084 Cl
HETATM   11  C17 UNK     1      24.258  -9.139  36.952  1.00  0.00     0.014 A 
ENDBRANCH   3   5
BRANCH   2  12
HETATM   12  C2  UNK     1      28.748  -8.056  37.248  1.00  0.00    -0.015 A 
HETATM   13  C5  UNK     1      29.895  -8.746  36.874  1.00  0.00     0.052 A 
HETATM   14  C3  UNK     1      31.140  -8.301  37.316  1.00  0.00     0.102 A 
HETATM   15  C1  UNK     1      31.230  -7.171  38.129  1.00  0.00     0.103 A 
HETATM   16  C6  UNK     1      30.072  -6.486  38.500  1.00  0.00     0.059 A 
HETATM   17  C7  UNK     1      28.826  -6.931  38.058  1.00  0.00     0.024 A 
HETATM   18 Br1  UNK     1      27.291  -5.952  38.599  1.00  0.00    -0.050 Br
BRANCH  14  19
HETATM   19  O2  UNK     1      32.264  -8.979  36.948  1.00  0.00    -0.353 OA
HETATM   20  C22 UNK     1      32.579  -9.003  35.558  1.00  0.00     0.210 C 
ENDBRANCH  14  19
BRANCH  15  21
HETATM   21  O1  UNK     1      32.440  -6.727  38.567  1.00  0.00    -0.344 OA
BRANCH  21  22
HETATM   22  C4  UNK     1      32.868  -5.448  38.106  1.00  0.00     0.214 C 
BRANCH  22  23
HETATM   23  C8  UNK     1      33.575  -5.611  36.793  1.00  0.00    -0.034 A 
HETATM   24  C12 UNK     1      34.859  -6.143  36.764  1.00  0.00     0.011 A 
HETATM   25  C14 UNK     1      35.517  -6.294  35.543  1.00  0.00     0.024 A 
HETATM   26  C18 UNK     1      34.886  -5.913  34.359  1.00  0.00     0.034 A 
HETATM   27  C15 UNK     1      33.598  -5.380  34.395  1.00  0.00     0.024 A 
HETATM   28 Cl1  UNK     1      35.698  -6.099  32.853  1.00  0.00    -0.084 Cl
HETATM   29  C13 UNK     1      32.940  -5.229  35.616  1.00  0.00     0.011 A 
ENDBRANCH  22  23
ENDBRANCH  21  22
ENDBRANCH  15  21
ENDBRANCH   2  12
TORSDOF 6
ENDMDL
MODEL 5
REMARK VINA RESULT:      -8.2      2.077     10.261
REMARK  6 active torsions:
REMARK  status: ('A' for Active; 'I' for Inactive)
REMARK    1  A    between atoms: C1_7  and  O1_4 
REMARK    2  A    between atoms: C4_10  and  O1_4 
REMARK    3  A    between atoms: C3_9  and  O2_5 
REMARK    4  A    between atoms: C2_8  and  C9_15 
REMARK    5  A    between atoms: C4_10  and  C8_14 
REMARK    6  A    between atoms: C10_16  and  C11_17 
ROOT
HETATM    1  N1  UNK     1      20.080   2.646  36.453  1.00  0.00    -0.191 NA
HETATM    2  C9  UNK     1      18.009   1.240  34.081  1.00  0.00     0.036 C 
HETATM    3  C10 UNK     1      18.498   2.469  34.397  1.00  0.00     0.055 C 
HETATM    4  C23 UNK     1      19.372   2.558  35.536  1.00  0.00     0.100 C 
ENDROOT
BRANCH   3   5
HETATM    5  C11 UNK     1      18.192   3.679  33.649  1.00  0.00    -0.015 A 
HETATM    6  C16 UNK     1      18.129   3.641  32.256  1.00  0.00     0.014 A 
HETATM    7  C19 UNK     1      17.836   4.800  31.539  1.00  0.00     0.024 A 
HETATM    8  C21 UNK     1      17.606   5.999  32.215  1.00  0.00     0.034 A 
HETATM    9  C20 UNK     1      17.669   6.037  33.608  1.00  0.00     0.024 A 
HETATM   10 Cl2  UNK     1      17.245   7.430  31.331  1.00  0.00    -0.084 Cl
HETATM   11  C17 UNK     1      17.962   4.876  34.325  1.00  0.00     0.014 A 
ENDBRANCH   3   5
BRANCH   2  12
HETATM   12  C2  UNK     1      18.296  -0.008  34.804  1.00  0.00    -0.015 A 
HETATM   13  C5  UNK     1      19.232  -0.866  34.239  1.00  0.00     0.052 A 
HETATM   14  C3  UNK     1      19.543  -2.064  34.881  1.00  0.00     0.102 A 
HETATM   15  C1  UNK     1      18.917  -2.395  36.083  1.00  0.00     0.103 A 
HETATM   16  C6  UNK     1      17.978  -1.527  36.641  1.00  0.00     0.059 A 
HETATM   17  C7  UNK     1      17.666  -0.329  35.999  1.00  0.00     0.024 A 
HETATM   18 Br1  UNK     1      16.380   0.807  36.814  1.00  0.00    -0.050 Br
BRANCH  14  19
HETATM   19  O2  UNK     1      20.462  -2.904  34.325  1.00  0.00    -0.353 OA
HETATM   20  C22 UNK     1      20.837  -2.649  32.974  1.00  0.00     0.210 C 
ENDBRANCH  14  19
BRANCH  15  21
HETATM   21  O1  UNK     1      19.213  -3.562  36.719  1.00  0.00    -0.344 OA
BRANCH  21  22
HETATM   22  C4  UNK     1      20.520  -3.684  37.276  1.00  0.00     0.214 C 
BRANCH  22  23
HETATM   23  C8  UNK     1      20.692  -5.071  37.821  1.00  0.00    -0.034 A 
HETATM   24  C12 UNK     1      19.619  -5.956  37.805  1.00  0.00     0.011 A 
HETATM   25  C14 UNK     1      19.778  -7.245  38.313  1.00  0.00     0.024 A 
HETATM   26  C18 UNK     1      21.010  -7.641  38.835  1.00  0.00     0.034 A 
HETATM   27  C15 UNK     1      22.082  -6.749  38.849  1.00  0.00     0.024 A 
HETATM   28 Cl1  UNK     1      21.207  -9.232  39.462  1.00  0.00    -0.084 Cl
HETATM   29  C13 UNK     1      21.922  -5.460  38.341  1.00  0.00     0.011 A 
ENDBRANCH  22  23
ENDBRANCH  21  22
ENDBRANCH  15  21
ENDBRANCH   2  12
TORSDOF 6
ENDMDL
MODEL 6
REMARK VINA RESULT:      -8.1     11.249     13.925
REMARK  6 active torsions:
REMARK  status: ('A' for Active; 'I' for Inactive)
REMARK    1  A    between atoms: C1_7  and  O1_4 
REMARK    2  A    between atoms: C4_10  and  O1_4 
REMARK    3  A    between atoms: C3_9  and  O2_5 
REMARK    4  A    between atoms: C2_8  and  C9_15 
REMARK    5  A    between atoms: C4_10  and  C8_14 
REMARK    6  A    between atoms: C10_16  and  C11_17 
ROOT
HETATM    1  N1  UNK     1      26.635  -5.996  39.016  1.00  0.00    -0.191 NA
HETATM    2  C9  UNK     1      26.047  -9.103  37.641  1.00  0.00     0.036 C 
HETATM    3  C10 UNK     1      25.329  -8.086  38.187  1.00  0.00     0.055 C 
HETATM    4  C23 UNK     1      26.060  -6.933  38.644  1.00  0.00     0.100 C 
ENDROOT
BRANCH   3   5
HETATM    5  C11 UNK     1      23.880  -8.100  38.325  1.00  0.00    -0.015 A 
HETATM    6  C16 UNK     1      23.091  -8.692  37.339  1.00  0.00     0.014 A 
HETATM    7  C19 UNK     1      21.703  -8.705  37.472  1.00  0.00     0.024 A 
HETATM    8  C21 UNK     1      21.103  -8.126  38.591  1.00  0.00     0.034 A 
HETATM    9  C20 UNK     1      21.892  -7.535  39.577  1.00  0.00     0.024 A 
HETATM   10 Cl2  UNK     1      19.391  -8.142  38.754  1.00  0.00    -0.084 Cl
HETATM   11  C17 UNK     1      23.281  -7.522  39.444  1.00  0.00     0.014 A 
ENDBRANCH   3   5
BRANCH   2  12
HETATM   12  C2  UNK     1      27.508  -9.129  37.477  1.00  0.00    -0.015 A 
HETATM   13  C5  UNK     1      28.013  -8.738  36.242  1.00  0.00     0.052 A 
HETATM   14  C3  UNK     1      29.391  -8.742  36.030  1.00  0.00     0.102 A 
HETATM   15  C1  UNK     1      30.253  -9.138  37.052  1.00  0.00     0.103 A 
HETATM   16  C6  UNK     1      29.736  -9.530  38.288  1.00  0.00     0.059 A 
HETATM   17  C7  UNK     1      28.358  -9.525  38.500  1.00  0.00     0.024 A 
HETATM   18 Br1  UNK     1      27.720 -10.070  40.205  1.00  0.00    -0.050 Br
BRANCH  14  19
HETATM   19  O2  UNK     1      29.884  -8.358  34.819  1.00  0.00    -0.353 OA
HETATM   20  C22 UNK     1      29.695  -6.994  34.447  1.00  0.00     0.210 C 
ENDBRANCH  14  19
BRANCH  15  21
HETATM   21  O1  UNK     1      31.601  -9.147  36.857  1.00  0.00    -0.344 OA
BRANCH  21  22
HETATM   22  C4  UNK     1      32.396  -8.415  37.787  1.00  0.00     0.214 C 
BRANCH  22  23
HETATM   23  C8  UNK     1      32.274  -6.949  37.489  1.00  0.00    -0.034 A 
HETATM   24  C12 UNK     1      32.863  -6.429  36.341  1.00  0.00     0.011 A 
HETATM   25  C14 UNK     1      32.751  -5.066  36.064  1.00  0.00     0.024 A 
HETATM   26  C18 UNK     1      32.052  -4.233  36.937  1.00  0.00     0.034 A 
HETATM   27  C15 UNK     1      31.464  -4.761  38.086  1.00  0.00     0.024 A 
HETATM   28 Cl1  UNK     1      31.914  -2.552  36.596  1.00  0.00    -0.084 Cl
HETATM   29  C13 UNK     1      31.576  -6.123  38.364  1.00  0.00     0.011 A 
ENDBRANCH  22  23
ENDBRANCH  21  22
ENDBRANCH  15  21
ENDBRANCH   2  12
TORSDOF 6
ENDMDL
MODEL 7
REMARK VINA RESULT:      -8.0      5.845      8.161
REMARK  6 active torsions:
REMARK  status: ('A' for Active; 'I' for Inactive)
REMARK    1  A    between atoms: C1_7  and  O1_4 
REMARK    2  A    between atoms: C4_10  and  O1_4 
REMARK    3  A    between atoms: C3_9  and  O2_5 
REMARK    4  A    between atoms: C2_8  and  C9_15 
REMARK    5  A    between atoms: C4_10  and  C8_14 
REMARK    6  A    between atoms: C10_16  and  C11_17 
ROOT
HETATM    1  N1  UNK     1      19.378   5.634  29.352  1.00  0.00    -0.191 NA
HETATM    2  C9  UNK     1      17.910   4.302  32.173  1.00  0.00     0.036 C 
HETATM    3  C10 UNK     1      18.590   3.860  31.082  1.00  0.00     0.055 C 
HETATM    4  C23 UNK     1      19.022   4.849  30.129  1.00  0.00     0.100 C 
ENDROOT
BRANCH   3   5
HETATM    5  C11 UNK     1      18.904   2.461  30.835  1.00  0.00    -0.015 A 
HETATM    6  C16 UNK     1      18.999   1.568  31.903  1.00  0.00     0.014 A 
HETATM    7  C19 UNK     1      19.300   0.228  31.667  1.00  0.00     0.024 A 
HETATM    8  C21 UNK     1      19.508  -0.221  30.362  1.00  0.00     0.034 A 
HETATM    9  C20 UNK     1      19.413   0.671  29.294  1.00  0.00     0.024 A 
HETATM   10 Cl2  UNK     1      19.880  -1.875  30.070  1.00  0.00    -0.084 Cl
HETATM   11  C17 UNK     1      19.111   2.013  29.531  1.00  0.00     0.014 A 
ENDBRANCH   3   5
BRANCH   2  12
HETATM   12  C2  UNK     1      17.576   5.704  32.465  1.00  0.00    -0.015 A 
HETATM   13  C5  UNK     1      16.343   6.167  32.022  1.00  0.00     0.052 A 
HETATM   14  C3  UNK     1      15.974   7.488  32.271  1.00  0.00     0.102 A 
HETATM   15  C1  UNK     1      16.839   8.336  32.962  1.00  0.00     0.103 A 
HETATM   16  C6  UNK     1      18.076   7.862  33.402  1.00  0.00     0.059 A 
HETATM   17  C7  UNK     1      18.445   6.540  33.153  1.00  0.00     0.024 A 
HETATM   18 Br1  UNK     1      20.141   5.959  33.781  1.00  0.00    -0.050 Br
BRANCH  14  19
HETATM   19  O2  UNK     1      14.764   7.940  31.835  1.00  0.00    -0.353 OA
HETATM   20  C22 UNK     1      13.605   7.359  32.427  1.00  0.00     0.210 C 
ENDBRANCH  14  19
BRANCH  15  21
HETATM   21  O1  UNK     1      16.490   9.628  33.211  1.00  0.00    -0.344 OA
BRANCH  21  22
HETATM   22  C4  UNK     1      16.008   9.929  34.519  1.00  0.00     0.214 C 
BRANCH  22  23
HETATM   23  C8  UNK     1      14.746  10.733  34.403  1.00  0.00    -0.034 A 
HETATM   24  C12 UNK     1      14.166  11.272  35.546  1.00  0.00     0.011 A 
HETATM   25  C14 UNK     1      12.992  12.019  35.439  1.00  0.00     0.024 A 
HETATM   26  C18 UNK     1      12.407  12.222  34.189  1.00  0.00     0.034 A 
HETATM   27  C15 UNK     1      12.994  11.678  33.047  1.00  0.00     0.024 A 
HETATM   28 Cl1  UNK     1      10.959  13.143  34.056  1.00  0.00    -0.084 Cl
HETATM   29  C13 UNK     1      14.167  10.931  33.154  1.00  0.00     0.011 A 
ENDBRANCH  22  23
ENDBRANCH  21  22
ENDBRANCH  15  21
ENDBRANCH   2  12
TORSDOF 6
ENDMDL
MODEL 8
REMARK VINA RESULT:      -8.0     11.612     14.671
REMARK  6 active torsions:
REMARK  status: ('A' for Active; 'I' for Inactive)
REMARK    1  A    between atoms: C1_7  and  O1_4 
REMARK    2  A    between atoms: C4_10  and  O1_4 
REMARK    3  A    between atoms: C3_9  and  O2_5 
REMARK    4  A    between atoms: C2_8  and  C9_15 
REMARK    5  A    between atoms: C4_10  and  C8_14 
REMARK    6  A    between atoms: C10_16  and  C11_17 
ROOT
HETATM    1  N1  UNK     1      29.427  -6.618  34.708  1.00  0.00    -0.191 NA
HETATM    2  C9  UNK     1      30.816  -7.777  37.644  1.00  0.00     0.036 C 
HETATM    3  C10 UNK     1      31.239  -7.339  36.428  1.00  0.00     0.055 C 
HETATM    4  C23 UNK     1      30.229  -6.943  35.483  1.00  0.00     0.100 C 
ENDROOT
BRANCH   3   5
HETATM    5  C11 UNK     1      32.639  -7.245  36.042  1.00  0.00    -0.015 A 
HETATM    6  C16 UNK     1      33.502  -6.406  36.747  1.00  0.00     0.014 A 
HETATM    7  C19 UNK     1      34.843  -6.316  36.378  1.00  0.00     0.024 A 
HETATM    8  C21 UNK     1      35.323  -7.065  35.303  1.00  0.00     0.034 A 
HETATM    9  C20 UNK     1      34.460  -7.905  34.598  1.00  0.00     0.024 A 
HETATM   10 Cl2  UNK     1      36.977  -6.954  34.846  1.00  0.00    -0.084 Cl
HETATM   11  C17 UNK     1      33.117  -7.995  34.969  1.00  0.00     0.014 A 
ENDBRANCH   3   5
BRANCH   2  12
HETATM   12  C2  UNK     1      29.415  -7.882  38.077  1.00  0.00    -0.015 A 
HETATM   13  C5  UNK     1      28.777  -9.099  37.867  1.00  0.00     0.052 A 
HETATM   14  C3  UNK     1      27.448  -9.255  38.259  1.00  0.00     0.102 A 
HETATM   15  C1  UNK     1      26.768  -8.195  38.858  1.00  0.00     0.103 A 
HETATM   16  C6  UNK     1      27.417  -6.978  39.064  1.00  0.00     0.059 A 
HETATM   17  C7  UNK     1      28.746  -6.821  38.672  1.00  0.00     0.024 A 
HETATM   18 Br1  UNK     1      29.571  -5.138  38.983  1.00  0.00    -0.050 Br
BRANCH  14  19
HETATM   19  O2  UNK     1      26.824 -10.449  38.051  1.00  0.00    -0.353 OA
HETATM   20  C22 UNK     1      26.161 -10.624  36.801  1.00  0.00     0.210 C 
ENDBRANCH  14  19
BRANCH  15  21
HETATM   21  O1  UNK     1      25.470  -8.336  39.245  1.00  0.00    -0.344 OA
BRANCH  21  22
HETATM   22  C4  UNK     1      24.526  -7.420  38.694  1.00  0.00     0.214 C 
BRANCH  22  23
HETATM   23  C8  UNK     1      23.208  -8.118  38.523  1.00  0.00    -0.034 A 
HETATM   24  C12 UNK     1      22.887  -8.692  37.298  1.00  0.00     0.011 A 
HETATM   25  C14 UNK     1      21.662  -9.340  37.138  1.00  0.00     0.024 A 
HETATM   26  C18 UNK     1      20.766  -9.408  38.205  1.00  0.00     0.034 A 
HETATM   27  C15 UNK     1      21.094  -8.830  39.431  1.00  0.00     0.024 A 
HETATM   28 Cl1  UNK     1      19.254 -10.207  38.009  1.00  0.00    -0.084 Cl
HETATM   29  C13 UNK     1      22.319  -8.182  39.590  1.00  0.00     0.011 A 
ENDBRANCH  22  23
ENDBRANCH  21  22
ENDBRANCH  15  21
ENDBRANCH   2  12
TORSDOF 6
ENDMDL
MODEL 9
REMARK VINA RESULT:      -8.0     26.955     28.684
REMARK  6 active torsions:
REMARK  status: ('A' for Active; 'I' for Inactive)
REMARK    1  A    between atoms: C1_7  and  O1_4 
REMARK    2  A    between atoms: C4_10  and  O1_4 
REMARK    3  A    between atoms: C3_9  and  O2_5 
REMARK    4  A    between atoms: C2_8  and  C9_15 
REMARK    5  A    between atoms: C4_10  and  C8_14 
REMARK    6  A    between atoms: C10_16  and  C11_17 
ROOT
HETATM    1  N1  UNK     1      13.497   6.048  10.387  1.00  0.00    -0.191 NA
HETATM    2  C9  UNK     1      12.357   8.728   8.542  1.00  0.00     0.036 C 
HETATM    3  C10 UNK     1      13.520   8.313   9.111  1.00  0.00     0.055 C 
HETATM    4  C23 UNK     1      13.498   7.058   9.815  1.00  0.00     0.100 C 
ENDROOT
BRANCH   3   5
HETATM    5  C11 UNK     1      14.769   9.057   9.038  1.00  0.00    -0.015 A 
HETATM    6  C16 UNK     1      15.892   8.604   9.730  1.00  0.00     0.014 A 
HETATM    7  C19 UNK     1      17.088   9.317   9.660  1.00  0.00     0.024 A 
HETATM    8  C21 UNK     1      17.162  10.484   8.898  1.00  0.00     0.034 A 
HETATM    9  C20 UNK     1      16.038  10.937   8.207  1.00  0.00     0.024 A 
HETATM   10 Cl2  UNK     1      18.637  11.365   8.813  1.00  0.00    -0.084 Cl
HETATM   11  C17 UNK     1      14.842  10.222   8.276  1.00  0.00     0.014 A 
ENDBRANCH   3   5
BRANCH   2  12
HETATM   12  C2  UNK     1      11.077   8.008   8.585  1.00  0.00    -0.015 A 
HETATM   13  C5  UNK     1      10.144   8.428   9.526  1.00  0.00     0.052 A 
HETATM   14  C3  UNK     1       8.912   7.781   9.611  1.00  0.00     0.102 A 
HETATM   15  C1  UNK     1       8.622   6.718   8.755  1.00  0.00     0.103 A 
HETATM   16  C6  UNK     1       9.565   6.303   7.814  1.00  0.00     0.059 A 
HETATM   17  C7  UNK     1      10.797   6.950   7.729  1.00  0.00     0.024 A 
HETATM   18 Br1  UNK     1      12.035   6.335   6.426  1.00  0.00    -0.050 Br
BRANCH  14  19
HETATM   19  O2  UNK     1       8.000   8.195  10.534  1.00  0.00    -0.353 OA
HETATM   20  C22 UNK     1       8.023   9.574  10.894  1.00  0.00     0.210 C 
ENDBRANCH  14  19
BRANCH  15  21
HETATM   21  O1  UNK     1       7.422   6.078   8.829  1.00  0.00    -0.344 OA
BRANCH  21  22
HETATM   22  C4  UNK     1       7.443   4.653   8.771  1.00  0.00     0.214 C 
BRANCH  22  23
HETATM   23  C8  UNK     1       6.705   4.104   9.957  1.00  0.00    -0.034 A 
HETATM   24  C12 UNK     1       6.548   4.888  11.094  1.00  0.00     0.011 A 
HETATM   25  C14 UNK     1       5.863   4.378  12.197  1.00  0.00     0.024 A 
HETATM   26  C18 UNK     1       5.338   3.086  12.154  1.00  0.00     0.034 A 
HETATM   27  C15 UNK     1       5.499   2.305  11.010  1.00  0.00     0.024 A 
HETATM   28 Cl1  UNK     1       4.492   2.455  13.514  1.00  0.00    -0.084 Cl
HETATM   29  C13 UNK     1       6.185   2.815   9.908  1.00  0.00     0.011 A 
ENDBRANCH  22  23
ENDBRANCH  21  22
ENDBRANCH  15  21
ENDBRANCH   2  12
TORSDOF 6
ENDMDL
MODEL 10
REMARK VINA RESULT:      -7.9      6.218      8.637
REMARK  6 active torsions:
REMARK  status: ('A' for Active; 'I' for Inactive)
REMARK    1  A    between atoms: C1_7  and  O1_4 
REMARK    2  A    between atoms: C4_10  and  O1_4 
REMARK    3  A    between atoms: C3_9  and  O2_5 
REMARK    4  A    between atoms: C2_8  and  C9_15 
REMARK    5  A    between atoms: C4_10  and  C8_14 
REMARK    6  A    between atoms: C10_16  and  C11_17 
ROOT
HETATM    1  N1  UNK     1      19.431   6.094  29.356  1.00  0.00    -0.191 NA
HETATM    2  C9  UNK     1      17.950   4.660  32.121  1.00  0.00     0.036 C 
HETATM    3  C10 UNK     1      18.598   4.255  30.996  1.00  0.00     0.055 C 
HETATM    4  C23 UNK     1      19.055   5.279  30.094  1.00  0.00     0.100 C 
ENDROOT
BRANCH   3   5
HETATM    5  C11 UNK     1      18.856   2.862  30.666  1.00  0.00    -0.015 A 
HETATM    6  C16 UNK     1      18.859   2.449  29.334  1.00  0.00     0.014 A 
HETATM    7  C19 UNK     1      19.106   1.114  29.018  1.00  0.00     0.024 A 
HETATM    8  C21 UNK     1      19.350   0.190  30.035  1.00  0.00     0.034 A 
HETATM    9  C20 UNK     1      19.347   0.603  31.367  1.00  0.00     0.024 A 
HETATM   10 Cl2  UNK     1      19.654  -1.458  29.646  1.00  0.00    -0.084 Cl
HETATM   11  C17 UNK     1      19.100   1.939  31.683  1.00  0.00     0.014 A 
ENDBRANCH   3   5
BRANCH   2  12
HETATM   12  C2  UNK     1      17.673   6.054  32.496  1.00  0.00    -0.015 A 
HETATM   13  C5  UNK     1      16.377   6.517  32.304  1.00  0.00     0.052 A 
HETATM   14  C3  UNK     1      16.058   7.831  32.643  1.00  0.00     0.102 A 
HETATM   15  C1  UNK     1      17.037   8.672  33.171  1.00  0.00     0.103 A 
HETATM   16  C6  UNK     1      18.336   8.199  33.360  1.00  0.00     0.059 A 
HETATM   17  C7  UNK     1      18.655   6.884  33.020  1.00  0.00     0.024 A 
HETATM   18 Br1  UNK     1      20.441   6.303  33.304  1.00  0.00    -0.050 Br
BRANCH  14  19
HETATM   19  O2  UNK     1      14.786   8.282  32.453  1.00  0.00    -0.353 OA
HETATM   20  C22 UNK     1      13.750   7.303  32.419  1.00  0.00     0.210 C 
ENDBRANCH  14  19
BRANCH  15  21
HETATM   21  O1  UNK     1      16.738   9.958  33.506  1.00  0.00    -0.344 OA
BRANCH  21  22
HETATM   22  C4  UNK     1      17.783  10.738  34.082  1.00  0.00     0.214 C 
BRANCH  22  23
HETATM   23  C8  UNK     1      17.387  12.186  34.053  1.00  0.00    -0.034 A 
HETATM   24  C12 UNK     1      18.292  13.139  33.600  1.00  0.00     0.011 A 
HETATM   25  C14 UNK     1      17.925  14.484  33.574  1.00  0.00     0.024 A 
HETATM   26  C18 UNK     1      16.654  14.868  34.002  1.00  0.00     0.034 A 
HETATM   27  C15 UNK     1      15.751  13.907  34.456  1.00  0.00     0.024 A 
HETATM   28 Cl1  UNK     1      16.200  16.528  33.971  1.00  0.00    -0.084 Cl
HETATM   29  C13 UNK     1      16.118  12.562  34.482  1.00  0.00     0.011 A 
ENDBRANCH  22  23
ENDBRANCH  21  22
ENDBRANCH  15  21
ENDBRANCH   2  12
TORSDOF 6
ENDMDL
