MODEL 1
REMARK VINA RESULT:      -8.5      0.000      0.000
REMARK  5 active torsions:
REMARK  status: ('A' for Active; 'I' for Inactive)
REMARK    1  A    between atoms: C2_8  and  N1_4 
REMARK    2  A    between atoms: C3_9  and  N2_5 
REMARK       I    between atoms: C5_11  and  N2_5 
REMARK    3  A    between atoms: C1_7  and  C2_8 
REMARK    4  A    between atoms: C1_7  and  C3_9 
REMARK    5  A    between atoms: C4_10  and  C5_11 
ROOT
HETATM    1  O2  UNK     1      17.965   3.185  28.645  1.00  0.00    -0.267 OA
HETATM    2  N2  UNK     1      19.221   4.255  30.292  1.00  0.00    -0.357 N 
HETATM    3  C5  UNK     1      18.649   3.162  29.667  1.00  0.00     0.257 C 
HETATM    4  H7  UNK     1      19.750   4.134  31.150  1.00  0.00     0.162 HD
ENDROOT
BRANCH   3   5
HETATM    5  C4  UNK     1      18.937   1.897  30.352  1.00  0.00     0.108 A 
HETATM    6  C11 UNK     1      18.565   1.666  31.766  1.00  0.00     0.304 A 
HETATM    7  O1  UNK     1      18.891   0.425  32.304  1.00  0.00    -0.274 OA
HETATM    8  O3  UNK     1      17.995   2.521  32.434  1.00  0.00    -0.259 OA
HETATM    9  C10 UNK     1      19.544  -0.566  31.544  1.00  0.00     0.089 A 
HETATM   10  C6  UNK     1      19.886  -0.328  30.217  1.00  0.00    -0.001 A 
HETATM   11  C14 UNK     1      19.830  -1.778  32.170  1.00  0.00     0.038 A 
HETATM   12  C12 UNK     1      20.534  -1.335  29.497  1.00  0.00     0.014 A 
HETATM   13  C8  UNK     1      19.558   0.960  29.626  1.00  0.00     0.037 A 
HETATM   14  C15 UNK     1      20.827  -2.556  30.111  1.00  0.00     0.001 A 
HETATM   15  C16 UNK     1      20.476  -2.777  31.445  1.00  0.00     0.003 A 
ENDBRANCH   3   5
BRANCH   2  16
HETATM   16  C3  UNK     1      19.078   5.608  29.803  1.00  0.00     0.124 C 
BRANCH  16  17
HETATM   17  C1  UNK     1      18.392   6.521  30.813  1.00  0.00     0.040 C 
BRANCH  17  18
HETATM   18  C2  UNK     1      19.054   6.467  32.191  1.00  0.00     0.131 C 
BRANCH  18  19
HETATM   19  N1  UNK     1      18.135   6.859  33.256  1.00  0.00    -0.350 N 
HETATM   20  C7  UNK     1      16.802   6.608  33.283  1.00  0.00     0.111 A 
HETATM   21  C13 UNK     1      16.378   7.162  34.467  1.00  0.00     0.135 A 
HETATM   22  N3  UNK     1      17.422   7.738  35.146  1.00  0.00    -0.255 NA
HETATM   23  C9  UNK     1      18.472   7.535  34.383  1.00  0.00     0.209 A 
ENDBRANCH  18  19
ENDBRANCH  17  18
ENDBRANCH  16  17
ENDBRANCH   2  16
TORSDOF 5
ENDMDL
MODEL 2
REMARK VINA RESULT:      -8.3      1.344      2.382
REMARK  5 active torsions:
REMARK  status: ('A' for Active; 'I' for Inactive)
REMARK    1  A    between atoms: C2_8  and  N1_4 
REMARK    2  A    between atoms: C3_9  and  N2_5 
REMARK       I    between atoms: C5_11  and  N2_5 
REMARK    3  A    between atoms: C1_7  and  C2_8 
REMARK    4  A    between atoms: C1_7  and  C3_9 
REMARK    5  A    between atoms: C4_10  and  C5_11 
ROOT
HETATM    1  O2  UNK     1      17.583   3.634  32.472  1.00  0.00    -0.267 OA
HETATM    2  N2  UNK     1      18.743   4.919  30.910  1.00  0.00    -0.357 N 
HETATM    3  C5  UNK     1      18.274   3.739  31.460  1.00  0.00     0.257 C 
HETATM    4  H7  UNK     1      19.330   4.898  30.082  1.00  0.00     0.162 HD
ENDROOT
BRANCH   3   5
HETATM    5  C4  UNK     1      18.683   2.553  30.700  1.00  0.00     0.108 A 
HETATM    6  C11 UNK     1      18.585   2.493  29.224  1.00  0.00     0.304 A 
HETATM    7  O1  UNK     1      19.005   1.313  28.617  1.00  0.00    -0.274 OA
HETATM    8  O3  UNK     1      18.158   3.434  28.564  1.00  0.00    -0.259 OA
HETATM    9  C10 UNK     1      19.498   0.227  29.365  1.00  0.00     0.089 A 
HETATM   10  C6  UNK     1      19.581   0.303  30.752  1.00  0.00    -0.001 A 
HETATM   11  C14 UNK     1      19.895  -0.913  28.668  1.00  0.00     0.038 A 
HETATM   12  C12 UNK     1      20.076  -0.795  31.460  1.00  0.00     0.014 A 
HETATM   13  C8  UNK     1      19.150   1.524  31.416  1.00  0.00     0.037 A 
HETATM   14  C15 UNK     1      20.477  -1.945  30.774  1.00  0.00     0.001 A 
HETATM   15  C16 UNK     1      20.386  -2.004  29.382  1.00  0.00     0.003 A 
ENDBRANCH   3   5
BRANCH   2  16
HETATM   16  C3  UNK     1      18.469   6.219  31.480  1.00  0.00     0.124 C 
BRANCH  16  17
HETATM   17  C1  UNK     1      19.455   6.588  32.583  1.00  0.00     0.040 C 
BRANCH  17  18
HETATM   18  C2  UNK     1      18.763   6.840  33.924  1.00  0.00     0.131 C 
BRANCH  18  19
HETATM   19  N1  UNK     1      18.012   8.092  33.924  1.00  0.00    -0.350 N 
HETATM   20  C7  UNK     1      16.673   8.211  34.102  1.00  0.00     0.111 A 
HETATM   21  C13 UNK     1      16.440   9.564  34.022  1.00  0.00     0.135 A 
HETATM   22  N3  UNK     1      17.605  10.255  33.800  1.00  0.00    -0.255 NA
HETATM   23  C9  UNK     1      18.538   9.330  33.747  1.00  0.00     0.209 A 
ENDBRANCH  18  19
ENDBRANCH  17  18
ENDBRANCH  16  17
ENDBRANCH   2  16
TORSDOF 5
ENDMDL
MODEL 3
REMARK VINA RESULT:      -8.0      7.584     11.841
REMARK  5 active torsions:
REMARK  status: ('A' for Active; 'I' for Inactive)
REMARK    1  A    between atoms: C2_8  and  N1_4 
REMARK    2  A    between atoms: C3_9  and  N2_5 
REMARK       I    between atoms: C5_11  and  N2_5 
REMARK    3  A    between atoms: C1_7  and  C2_8 
REMARK    4  A    between atoms: C1_7  and  C3_9 
REMARK    5  A    between atoms: C4_10  and  C5_11 
ROOT
HETATM    1  O2  UNK     1      20.997  -4.507  37.027  1.00  0.00    -0.267 OA
HETATM    2  N2  UNK     1      18.789  -5.071  36.534  1.00  0.00    -0.357 N 
HETATM    3  C5  UNK     1      19.862  -4.207  36.658  1.00  0.00     0.257 C 
HETATM    4  H7  UNK     1      17.882  -4.720  36.243  1.00  0.00     0.162 HD
ENDROOT
BRANCH   3   5
HETATM    5  C4  UNK     1      19.529  -2.826  36.291  1.00  0.00     0.108 A 
HETATM    6  C11 UNK     1      19.965  -2.228  35.009  1.00  0.00     0.304 A 
HETATM    7  O1  UNK     1      19.585  -0.909  34.774  1.00  0.00    -0.274 OA
HETATM    8  O3  UNK     1      20.624  -2.857  34.190  1.00  0.00    -0.259 OA
HETATM    9  C10 UNK     1      18.826  -0.177  35.708  1.00  0.00     0.089 A 
HETATM   10  C6  UNK     1      18.428  -0.758  36.907  1.00  0.00    -0.001 A 
HETATM   11  C14 UNK     1      18.495   1.138  35.384  1.00  0.00     0.038 A 
HETATM   12  C12 UNK     1      17.676   0.000  37.808  1.00  0.00     0.014 A 
HETATM   13  C8  UNK     1      18.808  -2.136  37.182  1.00  0.00     0.037 A 
HETATM   14  C15 UNK     1      17.336   1.320  37.497  1.00  0.00     0.001 A 
HETATM   15  C16 UNK     1      17.745   1.888  36.288  1.00  0.00     0.003 A 
ENDBRANCH   3   5
BRANCH   2  16
HETATM   16  C3  UNK     1      18.873  -6.482  36.837  1.00  0.00     0.124 C 
BRANCH  16  17
HETATM   17  C1  UNK     1      19.078  -7.331  35.587  1.00  0.00     0.040 C 
BRANCH  17  18
HETATM   18  C2  UNK     1      20.553  -7.644  35.330  1.00  0.00     0.131 C 
BRANCH  18  19
HETATM   19  N1  UNK     1      20.884  -9.028  35.658  1.00  0.00    -0.350 N 
HETATM   20  C7  UNK     1      21.712  -9.833  34.947  1.00  0.00     0.111 A 
HETATM   21  C13 UNK     1      21.707 -11.020  35.640  1.00  0.00     0.135 A 
HETATM   22  N3  UNK     1      20.897 -10.944  36.745  1.00  0.00    -0.255 NA
HETATM   23  C9  UNK     1      20.415  -9.722  36.725  1.00  0.00     0.209 A 
ENDBRANCH  18  19
ENDBRANCH  17  18
ENDBRANCH  16  17
ENDBRANCH   2  16
TORSDOF 5
ENDMDL
MODEL 4
REMARK VINA RESULT:      -8.0      1.695      2.195
REMARK  5 active torsions:
REMARK  status: ('A' for Active; 'I' for Inactive)
REMARK    1  A    between atoms: C2_8  and  N1_4 
REMARK    2  A    between atoms: C3_9  and  N2_5 
REMARK       I    between atoms: C5_11  and  N2_5 
REMARK    3  A    between atoms: C1_7  and  C2_8 
REMARK    4  A    between atoms: C1_7  and  C3_9 
REMARK    5  A    between atoms: C4_10  and  C5_11 
ROOT
HETATM    1  O2  UNK     1      18.697   4.641  30.308  1.00  0.00    -0.267 OA
HETATM    2  N2  UNK     1      17.582   4.463  32.348  1.00  0.00    -0.357 N 
HETATM    3  C5  UNK     1      18.323   3.987  31.280  1.00  0.00     0.257 C 
HETATM    4  H7  UNK     1      17.300   3.835  33.094  1.00  0.00     0.162 HD
ENDROOT
BRANCH   3   5
HETATM    5  C4  UNK     1      18.651   2.563  31.403  1.00  0.00     0.108 A 
HETATM    6  C11 UNK     1      18.387   1.800  32.644  1.00  0.00     0.304 A 
HETATM    7  O1  UNK     1      18.741   0.454  32.637  1.00  0.00    -0.274 OA
HETATM    8  O3  UNK     1      17.880   2.321  33.631  1.00  0.00    -0.259 OA
HETATM    9  C10 UNK     1      19.324  -0.156  31.509  1.00  0.00     0.089 A 
HETATM   10  C6  UNK     1      19.563   0.579  30.352  1.00  0.00    -0.001 A 
HETATM   11  C14 UNK     1      19.644  -1.509  31.597  1.00  0.00     0.038 A 
HETATM   12  C12 UNK     1      20.142  -0.061  29.254  1.00  0.00     0.014 A 
HETATM   13  C8  UNK     1      19.204   1.989  30.328  1.00  0.00     0.037 A 
HETATM   14  C15 UNK     1      20.470  -1.417  29.328  1.00  0.00     0.001 A 
HETATM   15  C16 UNK     1      20.222  -2.140  30.497  1.00  0.00     0.003 A 
ENDBRANCH   3   5
BRANCH   2  16
HETATM   16  C3  UNK     1      17.141   5.836  32.453  1.00  0.00     0.124 C 
BRANCH  16  17
HETATM   17  C1  UNK     1      17.813   6.574  33.605  1.00  0.00     0.040 C 
BRANCH  17  18
HETATM   18  C2  UNK     1      16.813   7.351  34.463  1.00  0.00     0.131 C 
BRANCH  18  19
HETATM   19  N1  UNK     1      16.949   8.794  34.290  1.00  0.00    -0.350 N 
HETATM   20  C7  UNK     1      16.013   9.721  34.613  1.00  0.00     0.111 A 
HETATM   21  C13 UNK     1      16.594  10.920  34.272  1.00  0.00     0.135 A 
HETATM   22  N3  UNK     1      17.850  10.732  33.754  1.00  0.00    -0.255 NA
HETATM   23  C9  UNK     1      18.033   9.431  33.780  1.00  0.00     0.209 A 
ENDBRANCH  18  19
ENDBRANCH  17  18
ENDBRANCH  16  17
ENDBRANCH   2  16
TORSDOF 5
ENDMDL
MODEL 5
REMARK VINA RESULT:      -8.0      5.370      9.156
REMARK  5 active torsions:
REMARK  status: ('A' for Active; 'I' for Inactive)
REMARK    1  A    between atoms: C2_8  and  N1_4 
REMARK    2  A    between atoms: C3_9  and  N2_5 
REMARK       I    between atoms: C5_11  and  N2_5 
REMARK    3  A    between atoms: C1_7  and  C2_8 
REMARK    4  A    between atoms: C1_7  and  C3_9 
REMARK    5  A    between atoms: C4_10  and  C5_11 
ROOT
HETATM    1  O2  UNK     1      17.307  -1.312  35.645  1.00  0.00    -0.267 OA
HETATM    2  N2  UNK     1      19.467  -2.189  35.586  1.00  0.00    -0.357 N 
HETATM    3  C5  UNK     1      18.399  -1.457  35.098  1.00  0.00     0.257 C 
HETATM    4  H7  UNK     1      20.322  -2.268  35.044  1.00  0.00     0.162 HD
ENDROOT
BRANCH   3   5
HETATM    5  C4  UNK     1      18.683  -0.826  33.804  1.00  0.00     0.108 A 
HETATM    6  C11 UNK     1      18.355   0.592  33.533  1.00  0.00     0.304 A 
HETATM    7  O1  UNK     1      18.675   1.076  32.268  1.00  0.00    -0.274 OA
HETATM    8  O3  UNK     1      17.831   1.310  34.377  1.00  0.00    -0.259 OA
HETATM    9  C10 UNK     1      19.278   0.261  31.290  1.00  0.00     0.089 A 
HETATM   10  C6  UNK     1      19.577  -1.069  31.565  1.00  0.00    -0.001 A 
HETATM   11  C14 UNK     1      19.560   0.835  30.052  1.00  0.00     0.038 A 
HETATM   12  C12 UNK     1      20.176  -1.846  30.570  1.00  0.00     0.014 A 
HETATM   13  C8  UNK     1      19.256  -1.605  32.880  1.00  0.00     0.037 A 
HETATM   14  C15 UNK     1      20.463  -1.284  29.324  1.00  0.00     0.001 A 
HETATM   15  C16 UNK     1      20.156   0.053  29.065  1.00  0.00     0.003 A 
ENDBRANCH   3   5
BRANCH   2  16
HETATM   16  C3  UNK     1      19.426  -2.900  36.844  1.00  0.00     0.124 C 
BRANCH  16  17
HETATM   17  C1  UNK     1      20.209  -4.208  36.796  1.00  0.00     0.040 C 
BRANCH  17  18
HETATM   18  C2  UNK     1      19.315  -5.411  36.490  1.00  0.00     0.131 C 
BRANCH  18  19
HETATM   19  N1  UNK     1      20.065  -6.511  35.890  1.00  0.00    -0.350 N 
HETATM   20  C7  UNK     1      20.763  -7.454  36.569  1.00  0.00     0.111 A 
HETATM   21  C13 UNK     1      21.286  -8.260  35.586  1.00  0.00     0.135 A 
HETATM   22  N3  UNK     1      20.919  -7.822  34.338  1.00  0.00    -0.255 NA
HETATM   23  C9  UNK     1      20.178  -6.759  34.561  1.00  0.00     0.209 A 
ENDBRANCH  18  19
ENDBRANCH  17  18
ENDBRANCH  16  17
ENDBRANCH   2  16
TORSDOF 5
ENDMDL
MODEL 6
REMARK VINA RESULT:      -8.0      7.616     11.388
REMARK  5 active torsions:
REMARK  status: ('A' for Active; 'I' for Inactive)
REMARK    1  A    between atoms: C2_8  and  N1_4 
REMARK    2  A    between atoms: C3_9  and  N2_5 
REMARK       I    between atoms: C5_11  and  N2_5 
REMARK    3  A    between atoms: C1_7  and  C2_8 
REMARK    4  A    between atoms: C1_7  and  C3_9 
REMARK    5  A    between atoms: C4_10  and  C5_11 
ROOT
HETATM    1  O2  UNK     1      21.023  -4.760  36.786  1.00  0.00    -0.267 OA
HETATM    2  N2  UNK     1      18.844  -5.260  36.124  1.00  0.00    -0.357 N 
HETATM    3  C5  UNK     1      19.909  -4.418  36.393  1.00  0.00     0.257 C 
HETATM    4  H7  UNK     1      17.953  -4.877  35.826  1.00  0.00     0.162 HD
ENDROOT
BRANCH   3   5
HETATM    5  C4  UNK     1      19.593  -3.005  36.157  1.00  0.00     0.108 A 
HETATM    6  C11 UNK     1      20.034  -2.295  34.935  1.00  0.00     0.304 A 
HETATM    7  O1  UNK     1      19.671  -0.956  34.825  1.00  0.00    -0.274 OA
HETATM    8  O3  UNK     1      20.684  -2.854  34.059  1.00  0.00    -0.259 OA
HETATM    9  C10 UNK     1      18.923  -0.304  35.825  1.00  0.00     0.089 A 
HETATM   10  C6  UNK     1      18.519  -0.990  36.967  1.00  0.00    -0.001 A 
HETATM   11  C14 UNK     1      18.608   1.039  35.626  1.00  0.00     0.038 A 
HETATM   12  C12 UNK     1      17.779  -0.309  37.936  1.00  0.00     0.014 A 
HETATM   13  C8  UNK     1      18.883  -2.391  37.111  1.00  0.00     0.037 A 
HETATM   14  C15 UNK     1      17.456   1.038  37.751  1.00  0.00     0.001 A 
HETATM   15  C16 UNK     1      17.870   1.711  36.599  1.00  0.00     0.003 A 
ENDBRANCH   3   5
BRANCH   2  16
HETATM   16  C3  UNK     1      18.915  -6.696  36.280  1.00  0.00     0.124 C 
BRANCH  16  17
HETATM   17  C1  UNK     1      18.655  -7.136  37.717  1.00  0.00     0.040 C 
BRANCH  17  18
HETATM   18  C2  UNK     1      19.570  -8.284  38.149  1.00  0.00     0.131 C 
BRANCH  18  19
HETATM   19  N1  UNK     1      20.944  -7.839  38.363  1.00  0.00    -0.350 N 
HETATM   20  C7  UNK     1      21.374  -7.069  39.393  1.00  0.00     0.111 A 
HETATM   21  C13 UNK     1      22.722  -6.921  39.164  1.00  0.00     0.135 A 
HETATM   22  N3  UNK     1      23.106  -7.581  38.024  1.00  0.00    -0.255 NA
HETATM   23  C9  UNK     1      22.002  -8.127  37.564  1.00  0.00     0.209 A 
ENDBRANCH  18  19
ENDBRANCH  17  18
ENDBRANCH  16  17
ENDBRANCH   2  16
TORSDOF 5
ENDMDL
MODEL 7
REMARK VINA RESULT:      -7.9      7.315      9.662
REMARK  5 active torsions:
REMARK  status: ('A' for Active; 'I' for Inactive)
REMARK    1  A    between atoms: C2_8  and  N1_4 
REMARK    2  A    between atoms: C3_9  and  N2_5 
REMARK       I    between atoms: C5_11  and  N2_5 
REMARK    3  A    between atoms: C1_7  and  C2_8 
REMARK    4  A    between atoms: C1_7  and  C3_9 
REMARK    5  A    between atoms: C4_10  and  C5_11 
ROOT
HETATM    1  O2  UNK     1      21.388  -3.955  37.204  1.00  0.00    -0.267 OA
HETATM    2  N2  UNK     1      19.202  -3.818  36.406  1.00  0.00    -0.357 N 
HETATM    3  C5  UNK     1      20.339  -4.480  36.835  1.00  0.00     0.257 C 
HETATM    4  H7  UNK     1      18.391  -4.344  36.097  1.00  0.00     0.162 HD
ENDROOT
BRANCH   3   5
HETATM    5  C4  UNK     1      20.190  -5.939  36.817  1.00  0.00     0.108 A 
HETATM    6  C11 UNK     1      20.199  -6.714  35.556  1.00  0.00     0.304 A 
HETATM    7  O1  UNK     1      20.051  -8.094  35.669  1.00  0.00    -0.274 OA
HETATM    8  O3  UNK     1      20.332  -6.174  34.463  1.00  0.00    -0.259 OA
HETATM    9  C10 UNK     1      19.899  -8.725  36.920  1.00  0.00     0.089 A 
HETATM   10  C6  UNK     1      19.893  -7.977  38.093  1.00  0.00    -0.001 A 
HETATM   11  C14 UNK     1      19.758 -10.111  36.932  1.00  0.00     0.038 A 
HETATM   12  C12 UNK     1      19.740  -8.639  39.314  1.00  0.00     0.014 A 
HETATM   13  C8  UNK     1      20.046  -6.533  38.008  1.00  0.00     0.037 A 
HETATM   14  C15 UNK     1      19.597 -10.029  39.342  1.00  0.00     0.001 A 
HETATM   15  C16 UNK     1      19.605 -10.764  38.154  1.00  0.00     0.003 A 
ENDBRANCH   3   5
BRANCH   2  16
HETATM   16  C3  UNK     1      19.106  -2.377  36.338  1.00  0.00     0.124 C 
BRANCH  16  17
HETATM   17  C1  UNK     1      17.782  -1.857  36.887  1.00  0.00     0.040 C 
BRANCH  17  18
HETATM   18  C2  UNK     1      17.816  -0.353  37.163  1.00  0.00     0.131 C 
BRANCH  18  19
HETATM   19  N1  UNK     1      17.770   0.431  35.932  1.00  0.00    -0.350 N 
HETATM   20  C7  UNK     1      18.622   1.432  35.599  1.00  0.00     0.111 A 
HETATM   21  C13 UNK     1      18.182   1.855  34.367  1.00  0.00     0.135 A 
HETATM   22  N3  UNK     1      17.089   1.133  33.957  1.00  0.00    -0.255 NA
HETATM   23  C9  UNK     1      16.867   0.278  34.931  1.00  0.00     0.209 A 
ENDBRANCH  18  19
ENDBRANCH  17  18
ENDBRANCH  16  17
ENDBRANCH   2  16
TORSDOF 5
ENDMDL
MODEL 8
REMARK VINA RESULT:      -7.8      4.158      6.663
REMARK  5 active torsions:
REMARK  status: ('A' for Active; 'I' for Inactive)
REMARK    1  A    between atoms: C2_8  and  N1_4 
REMARK    2  A    between atoms: C3_9  and  N2_5 
REMARK       I    between atoms: C5_11  and  N2_5 
REMARK    3  A    between atoms: C1_7  and  C2_8 
REMARK    4  A    between atoms: C1_7  and  C3_9 
REMARK    5  A    between atoms: C4_10  and  C5_11 
ROOT
HETATM    1  O2  UNK     1      18.708   2.269  35.141  1.00  0.00    -0.267 OA
HETATM    2  N2  UNK     1      17.150   0.552  34.901  1.00  0.00    -0.357 N 
HETATM    3  C5  UNK     1      18.138   1.416  34.463  1.00  0.00     0.257 C 
HETATM    4  H7  UNK     1      16.722  -0.104  34.255  1.00  0.00     0.162 HD
ENDROOT
BRANCH   3   5
HETATM    5  C4  UNK     1      18.478   1.225  33.049  1.00  0.00     0.108 A 
HETATM    6  C11 UNK     1      18.219   2.268  32.031  1.00  0.00     0.304 A 
HETATM    7  O1  UNK     1      18.587   1.969  30.722  1.00  0.00    -0.274 OA
HETATM    8  O3  UNK     1      17.707   3.344  32.321  1.00  0.00    -0.259 OA
HETATM    9  C10 UNK     1      19.176   0.737  30.379  1.00  0.00     0.089 A 
HETATM   10  C6  UNK     1      19.411  -0.230  31.351  1.00  0.00    -0.001 A 
HETATM   11  C14 UNK     1      19.511   0.530  29.042  1.00  0.00     0.038 A 
HETATM   12  C12 UNK     1      19.998  -1.440  30.971  1.00  0.00     0.014 A 
HETATM   13  C8  UNK     1      19.037   0.052  32.729  1.00  0.00     0.037 A 
HETATM   14  C15 UNK     1      20.338  -1.663  29.634  1.00  0.00     0.001 A 
HETATM   15  C16 UNK     1      20.095  -0.680  28.671  1.00  0.00     0.003 A 
ENDBRANCH   3   5
BRANCH   2  16
HETATM   16  C3  UNK     1      16.648   0.548  36.257  1.00  0.00     0.124 C 
BRANCH  16  17
HETATM   17  C1  UNK     1      17.562  -0.213  37.211  1.00  0.00     0.040 C 
BRANCH  17  18
HETATM   18  C2  UNK     1      17.582  -1.716  36.924  1.00  0.00     0.131 C 
BRANCH  18  19
HETATM   19  N1  UNK     1      18.936  -2.210  36.691  1.00  0.00    -0.350 N 
HETATM   20  C7  UNK     1      19.536  -3.222  37.366  1.00  0.00     0.111 A 
HETATM   21  C13 UNK     1      20.783  -3.316  36.795  1.00  0.00     0.135 A 
HETATM   22  N3  UNK     1      20.943  -2.387  35.798  1.00  0.00    -0.255 NA
HETATM   23  C9  UNK     1      19.802  -1.734  35.762  1.00  0.00     0.209 A 
ENDBRANCH  18  19
ENDBRANCH  17  18
ENDBRANCH  16  17
ENDBRANCH   2  16
TORSDOF 5
ENDMDL
MODEL 9
REMARK VINA RESULT:      -7.8      1.650      2.884
REMARK  5 active torsions:
REMARK  status: ('A' for Active; 'I' for Inactive)
REMARK    1  A    between atoms: C2_8  and  N1_4 
REMARK    2  A    between atoms: C3_9  and  N2_5 
REMARK       I    between atoms: C5_11  and  N2_5 
REMARK    3  A    between atoms: C1_7  and  C2_8 
REMARK    4  A    between atoms: C1_7  and  C3_9 
REMARK    5  A    between atoms: C4_10  and  C5_11 
ROOT
HETATM    1  O2  UNK     1      17.229   3.915  31.543  1.00  0.00    -0.267 OA
HETATM    2  N2  UNK     1      18.411   3.898  33.553  1.00  0.00    -0.357 N 
HETATM    3  C5  UNK     1      17.974   3.366  32.353  1.00  0.00     0.257 C 
HETATM    4  H7  UNK     1      19.008   3.352  34.166  1.00  0.00     0.162 HD
ENDROOT
BRANCH   3   5
HETATM    5  C4  UNK     1      18.498   2.019  32.101  1.00  0.00     0.108 A 
HETATM    6  C11 UNK     1      18.512   0.973  33.149  1.00  0.00     0.304 A 
HETATM    7  O1  UNK     1      19.034  -0.266  32.788  1.00  0.00    -0.274 OA
HETATM    8  O3  UNK     1      18.086   1.181  34.280  1.00  0.00    -0.259 OA
HETATM    9  C10 UNK     1      19.526  -0.516  31.492  1.00  0.00     0.089 A 
HETATM   10  C6  UNK     1      19.503   0.481  30.523  1.00  0.00    -0.001 A 
HETATM   11  C14 UNK     1      20.029  -1.788  31.225  1.00  0.00     0.038 A 
HETATM   12  C12 UNK     1      20.000   0.194  29.248  1.00  0.00     0.014 A 
HETATM   13  C8  UNK     1      18.964   1.787  30.869  1.00  0.00     0.037 A 
HETATM   14  C15 UNK     1      20.509  -1.077  28.966  1.00  0.00     0.001 A 
HETATM   15  C16 UNK     1      20.523  -2.066  29.952  1.00  0.00     0.003 A 
ENDBRANCH   3   5
BRANCH   2  16
HETATM   16  C3  UNK     1      18.030   5.213  34.018  1.00  0.00     0.124 C 
BRANCH  16  17
HETATM   17  C1  UNK     1      19.234   6.127  34.220  1.00  0.00     0.040 C 
BRANCH  17  18
HETATM   18  C2  UNK     1      19.319   7.222  33.154  1.00  0.00     0.131 C 
BRANCH  18  19
HETATM   19  N1  UNK     1      19.396   6.667  31.806  1.00  0.00    -0.350 N 
HETATM   20  C7  UNK     1      18.440   6.774  30.850  1.00  0.00     0.111 A 
HETATM   21  C13 UNK     1      18.964   6.104  29.771  1.00  0.00     0.135 A 
HETATM   22  N3  UNK     1      20.207   5.598  30.057  1.00  0.00    -0.255 NA
HETATM   23  C9  UNK     1      20.438   5.960  31.300  1.00  0.00     0.209 A 
ENDBRANCH  18  19
ENDBRANCH  17  18
ENDBRANCH  16  17
ENDBRANCH   2  16
TORSDOF 5
ENDMDL
MODEL 10
REMARK VINA RESULT:      -7.7      7.113     10.892
REMARK  5 active torsions:
REMARK  status: ('A' for Active; 'I' for Inactive)
REMARK    1  A    between atoms: C2_8  and  N1_4 
REMARK    2  A    between atoms: C3_9  and  N2_5 
REMARK       I    between atoms: C5_11  and  N2_5 
REMARK    3  A    between atoms: C1_7  and  C2_8 
REMARK    4  A    between atoms: C1_7  and  C3_9 
REMARK    5  A    between atoms: C4_10  and  C5_11 
ROOT
HETATM    1  O2  UNK     1      20.197  -5.023  35.311  1.00  0.00    -0.267 OA
HETATM    2  N2  UNK     1      20.664  -4.439  37.519  1.00  0.00    -0.357 N 
HETATM    3  C5  UNK     1      20.219  -4.206  36.230  1.00  0.00     0.257 C 
HETATM    4  H7  UNK     1      20.665  -3.689  38.203  1.00  0.00     0.162 HD
ENDROOT
BRANCH   3   5
HETATM    5  C4  UNK     1      19.745  -2.833  36.029  1.00  0.00     0.108 A 
HETATM    6  C11 UNK     1      20.061  -2.064  34.804  1.00  0.00     0.304 A 
HETATM    7  O1  UNK     1      19.553  -0.770  34.729  1.00  0.00    -0.274 OA
HETATM    8  O3  UNK     1      20.734  -2.539  33.896  1.00  0.00    -0.259 OA
HETATM    9  C10 UNK     1      18.778  -0.216  35.766  1.00  0.00     0.089 A 
HETATM   10  C6  UNK     1      18.493  -0.955  36.909  1.00  0.00    -0.001 A 
HETATM   11  C14 UNK     1      18.313   1.088  35.600  1.00  0.00     0.038 A 
HETATM   12  C12 UNK     1      17.720  -0.370  37.916  1.00  0.00     0.014 A 
HETATM   13  C8  UNK     1      19.009  -2.311  37.017  1.00  0.00     0.037 A 
HETATM   14  C15 UNK     1      17.248   0.937  37.764  1.00  0.00     0.001 A 
HETATM   15  C16 UNK     1      17.544   1.665  36.609  1.00  0.00     0.003 A 
ENDBRANCH   3   5
BRANCH   2  16
HETATM   16  C3  UNK     1      21.177  -5.718  37.958  1.00  0.00     0.124 C 
BRANCH  16  17
HETATM   17  C1  UNK     1      20.276  -6.377  38.997  1.00  0.00     0.040 C 
BRANCH  17  18
HETATM   18  C2  UNK     1      19.672  -7.690  38.496  1.00  0.00     0.131 C 
BRANCH  18  19
HETATM   19  N1  UNK     1      18.794  -7.485  37.347  1.00  0.00    -0.350 N 
HETATM   20  C7  UNK     1      18.868  -8.148  36.167  1.00  0.00     0.111 A 
HETATM   21  C13 UNK     1      17.848  -7.615  35.415  1.00  0.00     0.135 A 
HETATM   22  N3  UNK     1      17.168  -6.651  36.116  1.00  0.00    -0.255 NA
HETATM   23  C9  UNK     1      17.769  -6.599  37.284  1.00  0.00     0.209 A 
ENDBRANCH  18  19
ENDBRANCH  17  18
ENDBRANCH  16  17
ENDBRANCH   2  16
TORSDOF 5
ENDMDL
