MODEL 1
REMARK VINA RESULT:     -10.8      0.000      0.000
REMARK  6 active torsions:
REMARK  status: ('A' for Active; 'I' for Inactive)
REMARK    1  A    between atoms: C1_7  and  O1_1 
REMARK    2  A    between atoms: C6_12  and  N1_6 
REMARK    3  A    between atoms: C1_7  and  C5_11 
REMARK    4  A    between atoms: C5_11  and  C9_15 
REMARK    5  A    between atoms: C10_16  and  C6_12 
REMARK    6  A    between atoms: C13_19  and  C9_15 
ROOT
HETATM    1  O2  UNK     1      17.631   2.067  33.335  1.00  0.00    -0.269 OA
HETATM    2  N1  UNK     1      18.672   0.069  32.628  1.00  0.00    -0.310 N 
HETATM    3  C1  UNK     1      18.657   1.888  31.110  1.00  0.00     0.175 A 
HETATM    4  C2  UNK     1      19.332   0.676  30.529  1.00  0.00     0.013 A 
HETATM    5  C3  UNK     1      19.315  -0.362  31.460  1.00  0.00     0.047 A 
HETATM    6  C4  UNK     1      18.239   1.399  32.511  1.00  0.00     0.264 A 
HETATM    7  C7  UNK     1      19.910   0.502  29.283  1.00  0.00     0.013 A 
HETATM    8  C8  UNK     1      19.872  -1.599  31.183  1.00  0.00     0.030 A 
HETATM    9  C11 UNK     1      20.478  -0.738  28.986  1.00  0.00     0.001 A 
HETATM   10  C12 UNK     1      20.459  -1.781  29.928  1.00  0.00     0.002 A 
ENDROOT
BRANCH   3  11
HETATM   11  O1  UNK     1      17.486   2.185  30.374  1.00  0.00    -0.375 OA
HETATM   12  H7  UNK     1      17.205   3.091  30.584  1.00  0.00     0.211 HD
ENDBRANCH   3  11
BRANCH   3  13
HETATM   13  C5  UNK     1      19.566   3.104  31.199  1.00  0.00     0.137 C 
BRANCH  13  14
HETATM   14  C9  UNK     1      18.921   4.347  30.621  1.00  0.00     0.169 C 
HETATM   15  O3  UNK     1      18.600   4.466  29.443  1.00  0.00    -0.292 OA
BRANCH  14  16
HETATM   16  C13 UNK     1      18.684   5.458  31.565  1.00  0.00     0.086 A 
HETATM   17  C16 UNK     1      17.410   5.681  31.908  1.00  0.00     0.035 A 
HETATM   18  C18 UNK     1      17.076   6.753  32.831  1.00  0.00    -0.001 A 
HETATM   19  C21 UNK     1      18.101   7.540  33.349  1.00  0.00     0.089 A 
HETATM   20  C23 UNK     1      15.761   7.022  33.218  1.00  0.00     0.014 A 
HETATM   21  C24 UNK     1      17.849   8.583  34.237  1.00  0.00     0.038 A 
HETATM   22  O4  UNK     1      19.440   7.300  32.984  1.00  0.00    -0.274 OA
HETATM   23  C26 UNK     1      16.534   8.843  34.617  1.00  0.00     0.003 A 
HETATM   24  C25 UNK     1      15.492   8.065  34.108  1.00  0.00     0.001 A 
HETATM   25  C17 UNK     1      19.790   6.280  32.102  1.00  0.00     0.302 A 
HETATM   26  O5  UNK     1      20.959   6.080  31.790  1.00  0.00    -0.259 OA
ENDBRANCH  14  16
ENDBRANCH  13  14
ENDBRANCH   3  13
BRANCH   2  27
HETATM   27  C6  UNK     1      18.481  -0.772  33.785  1.00  0.00     0.170 C 
BRANCH  27  28
HETATM   28  C10 UNK     1      17.877  -0.017  34.934  1.00  0.00    -0.040 A 
HETATM   29  C14 UNK     1      16.508  -0.089  35.160  1.00  0.00     0.009 A 
HETATM   30  C19 UNK     1      15.946   0.611  36.228  1.00  0.00     0.001 A 
HETATM   31  C22 UNK     1      16.758   1.379  37.062  1.00  0.00     0.000 A 
HETATM   32  C20 UNK     1      18.132   1.446  36.829  1.00  0.00     0.001 A 
HETATM   33  C15 UNK     1      18.694   0.745  35.761  1.00  0.00     0.009 A 
ENDBRANCH  27  28
ENDBRANCH   2  27
TORSDOF 6
ENDMDL
MODEL 2
REMARK VINA RESULT:     -10.4     14.757     17.163
REMARK  6 active torsions:
REMARK  status: ('A' for Active; 'I' for Inactive)
REMARK    1  A    between atoms: C1_7  and  O1_1 
REMARK    2  A    between atoms: C6_12  and  N1_6 
REMARK    3  A    between atoms: C1_7  and  C5_11 
REMARK    4  A    between atoms: C5_11  and  C9_15 
REMARK    5  A    between atoms: C10_16  and  C6_12 
REMARK    6  A    between atoms: C13_19  and  C9_15 
ROOT
HETATM    1  O2  UNK     1      34.332  -4.866  35.896  1.00  0.00    -0.269 OA
HETATM    2  N1  UNK     1      33.172  -6.844  35.332  1.00  0.00    -0.310 N 
HETATM    3  C1  UNK     1      33.354  -6.306  37.631  1.00  0.00     0.175 A 
HETATM    4  C2  UNK     1      32.611  -7.595  37.412  1.00  0.00     0.013 A 
HETATM    5  C3  UNK     1      32.531  -7.865  36.047  1.00  0.00     0.047 A 
HETATM    6  C4  UNK     1      33.700  -5.870  36.193  1.00  0.00     0.264 A 
HETATM    7  C7  UNK     1      32.055  -8.459  38.340  1.00  0.00     0.013 A 
HETATM    8  C8  UNK     1      31.897  -8.996  35.563  1.00  0.00     0.030 A 
HETATM    9  C11 UNK     1      31.410  -9.605  37.870  1.00  0.00     0.001 A 
HETATM   10  C12 UNK     1      31.331  -9.872  36.493  1.00  0.00     0.002 A 
ENDROOT
BRANCH   3  11
HETATM   11  O1  UNK     1      34.561  -6.558  38.323  1.00  0.00    -0.375 OA
HETATM   12  H7  UNK     1      35.221  -6.892  37.692  1.00  0.00     0.211 HD
ENDBRANCH   3  11
BRANCH   3  13
HETATM   13  C5  UNK     1      32.530  -5.245  38.345  1.00  0.00     0.137 C 
BRANCH  13  14
HETATM   14  C9  UNK     1      31.331  -4.805  37.531  1.00  0.00     0.169 C 
HETATM   15  O3  UNK     1      31.389  -3.995  36.611  1.00  0.00    -0.292 OA
BRANCH  14  16
HETATM   16  C13 UNK     1      30.035  -5.409  37.898  1.00  0.00     0.086 A 
HETATM   17  C16 UNK     1      29.609  -6.413  37.123  1.00  0.00     0.035 A 
HETATM   18  C18 UNK     1      28.343  -7.072  37.405  1.00  0.00    -0.001 A 
HETATM   19  C21 UNK     1      27.587  -6.639  38.490  1.00  0.00     0.089 A 
HETATM   20  C23 UNK     1      27.860  -8.124  36.624  1.00  0.00     0.014 A 
HETATM   21  C24 UNK     1      26.366  -7.226  38.814  1.00  0.00     0.038 A 
HETATM   22  O4  UNK     1      28.040  -5.581  39.303  1.00  0.00    -0.274 OA
HETATM   23  C26 UNK     1      25.892  -8.275  38.030  1.00  0.00     0.003 A 
HETATM   24  C25 UNK     1      26.637  -8.723  36.937  1.00  0.00     0.001 A 
HETATM   25  C17 UNK     1      29.248  -4.933  39.057  1.00  0.00     0.302 A 
HETATM   26  O5  UNK     1      29.634  -4.012  39.769  1.00  0.00    -0.259 OA
ENDBRANCH  14  16
ENDBRANCH  13  14
ENDBRANCH   3  13
BRANCH   2  27
HETATM   27  C6  UNK     1      33.273  -6.828  33.892  1.00  0.00     0.170 C 
BRANCH  27  28
HETATM   28  C10 UNK     1      31.926  -6.728  33.236  1.00  0.00    -0.040 A 
HETATM   29  C14 UNK     1      31.006  -5.793  33.693  1.00  0.00     0.009 A 
HETATM   30  C19 UNK     1      29.755  -5.700  33.083  1.00  0.00     0.001 A 
HETATM   31  C22 UNK     1      29.432  -6.544  32.021  1.00  0.00     0.000 A 
HETATM   32  C20 UNK     1      30.362  -7.480  31.567  1.00  0.00     0.001 A 
HETATM   33  C15 UNK     1      31.613  -7.573  32.177  1.00  0.00     0.009 A 
ENDBRANCH  27  28
ENDBRANCH   2  27
TORSDOF 6
ENDMDL
MODEL 3
REMARK VINA RESULT:     -10.2     13.547     16.332
REMARK  6 active torsions:
REMARK  status: ('A' for Active; 'I' for Inactive)
REMARK    1  A    between atoms: C1_7  and  O1_1 
REMARK    2  A    between atoms: C6_12  and  N1_6 
REMARK    3  A    between atoms: C1_7  and  C5_11 
REMARK    4  A    between atoms: C5_11  and  C9_15 
REMARK    5  A    between atoms: C10_16  and  C6_12 
REMARK    6  A    between atoms: C13_19  and  C9_15 
ROOT
HETATM    1  O2  UNK     1      27.417  -6.942  35.310  1.00  0.00    -0.269 OA
HETATM    2  N1  UNK     1      29.650  -6.797  34.558  1.00  0.00    -0.310 N 
HETATM    3  C1  UNK     1      29.255  -7.963  36.581  1.00  0.00     0.175 A 
HETATM    4  C2  UNK     1      30.716  -7.930  36.228  1.00  0.00     0.013 A 
HETATM    5  C3  UNK     1      30.894  -7.236  35.032  1.00  0.00     0.047 A 
HETATM    6  C4  UNK     1      28.611  -7.180  35.419  1.00  0.00     0.264 A 
HETATM    7  C7  UNK     1      31.799  -8.465  36.905  1.00  0.00     0.013 A 
HETATM    8  C8  UNK     1      32.148  -7.054  34.474  1.00  0.00     0.030 A 
HETATM    9  C11 UNK     1      33.072  -8.292  36.357  1.00  0.00     0.001 A 
HETATM   10  C12 UNK     1      33.245  -7.592  35.151  1.00  0.00     0.002 A 
ENDROOT
BRANCH   3  11
HETATM   11  O1  UNK     1      29.034  -7.245  37.779  1.00  0.00    -0.375 OA
HETATM   12  H7  UNK     1      28.092  -7.015  37.838  1.00  0.00     0.211 HD
ENDBRANCH   3  11
BRANCH   3  13
HETATM   13  C5  UNK     1      28.687  -9.371  36.679  1.00  0.00     0.137 C 
BRANCH  13  14
HETATM   14  C9  UNK     1      27.721  -9.522  37.836  1.00  0.00     0.169 C 
HETATM   15  O3  UNK     1      28.067  -9.753  38.990  1.00  0.00    -0.292 OA
BRANCH  14  16
HETATM   16  C13 UNK     1      26.288  -9.375  37.513  1.00  0.00     0.086 A 
HETATM   17  C16 UNK     1      25.727 -10.386  36.840  1.00  0.00     0.035 A 
HETATM   18  C18 UNK     1      24.320 -10.334  36.476  1.00  0.00    -0.001 A 
HETATM   19  C21 UNK     1      23.572  -9.217  36.838  1.00  0.00     0.089 A 
HETATM   20  C23 UNK     1      23.692 -11.366  35.774  1.00  0.00     0.014 A 
HETATM   21  C24 UNK     1      22.221  -9.105  36.519  1.00  0.00     0.038 A 
HETATM   22  O4  UNK     1      24.168  -8.156  37.547  1.00  0.00    -0.274 OA
HETATM   23  C26 UNK     1      21.603 -10.139  35.820  1.00  0.00     0.003 A 
HETATM   24  C25 UNK     1      22.337 -11.267  35.448  1.00  0.00     0.001 A 
HETATM   25  C17 UNK     1      25.513  -8.179  37.909  1.00  0.00     0.302 A 
HETATM   26  O5  UNK     1      26.023  -7.249  38.525  1.00  0.00    -0.259 OA
ENDBRANCH  14  16
ENDBRANCH  13  14
ENDBRANCH   3  13
BRANCH   2  27
HETATM   27  C6  UNK     1      29.488  -6.039  33.340  1.00  0.00     0.170 C 
BRANCH  27  28
HETATM   28  C10 UNK     1      28.740  -6.813  32.293  1.00  0.00    -0.040 A 
HETATM   29  C14 UNK     1      27.574  -6.288  31.751  1.00  0.00     0.009 A 
HETATM   30  C19 UNK     1      26.880  -7.006  30.778  1.00  0.00     0.001 A 
HETATM   31  C22 UNK     1      27.356  -8.246  30.354  1.00  0.00     0.000 A 
HETATM   32  C20 UNK     1      28.529  -8.767  30.902  1.00  0.00     0.001 A 
HETATM   33  C15 UNK     1      29.223  -8.048  31.875  1.00  0.00     0.009 A 
ENDBRANCH  27  28
ENDBRANCH   2  27
TORSDOF 6
ENDMDL
MODEL 4
REMARK VINA RESULT:     -10.1     23.582     25.630
REMARK  6 active torsions:
REMARK  status: ('A' for Active; 'I' for Inactive)
REMARK    1  A    between atoms: C1_7  and  O1_1 
REMARK    2  A    between atoms: C6_12  and  N1_6 
REMARK    3  A    between atoms: C1_7  and  C5_11 
REMARK    4  A    between atoms: C5_11  and  C9_15 
REMARK    5  A    between atoms: C10_16  and  C6_12 
REMARK    6  A    between atoms: C13_19  and  C9_15 
ROOT
HETATM    1  O2  UNK     1      10.784   5.422   6.973  1.00  0.00    -0.269 OA
HETATM    2  N1  UNK     1      11.423   7.436   8.027  1.00  0.00    -0.310 N 
HETATM    3  C1  UNK     1       9.252   6.608   8.484  1.00  0.00     0.175 A 
HETATM    4  C2  UNK     1       9.523   7.901   9.202  1.00  0.00     0.013 A 
HETATM    5  C3  UNK     1      10.810   8.344   8.901  1.00  0.00     0.047 A 
HETATM    6  C4  UNK     1      10.568   6.368   7.717  1.00  0.00     0.264 A 
HETATM    7  C7  UNK     1       8.702   8.628  10.048  1.00  0.00     0.013 A 
HETATM    8  C8  UNK     1      11.321   9.517   9.430  1.00  0.00     0.030 A 
HETATM    9  C11 UNK     1       9.200   9.814  10.592  1.00  0.00     0.001 A 
HETATM   10  C12 UNK     1      10.499  10.255  10.286  1.00  0.00     0.002 A 
ENDROOT
BRANCH   3  11
HETATM   11  O1  UNK     1       8.213   6.789   7.542  1.00  0.00    -0.375 OA
HETATM   12  H7  UNK     1       8.196   7.722   7.270  1.00  0.00     0.211 HD
ENDBRANCH   3  11
BRANCH   3  13
HETATM   13  C5  UNK     1       8.941   5.449   9.420  1.00  0.00     0.137 C 
BRANCH  13  14
HETATM   14  C9  UNK     1       7.604   4.807   9.114  1.00  0.00     0.169 C 
HETATM   15  O3  UNK     1       7.323   4.293   8.036  1.00  0.00    -0.292 OA
BRANCH  14  16
HETATM   16  C13 UNK     1       6.607   4.823  10.204  1.00  0.00     0.086 A 
HETATM   17  C16 UNK     1       6.480   3.691  10.905  1.00  0.00     0.035 A 
HETATM   18  C18 UNK     1       5.524   3.609  11.998  1.00  0.00    -0.001 A 
HETATM   19  C21 UNK     1       4.748   4.725  12.299  1.00  0.00     0.089 A 
HETATM   20  C23 UNK     1       5.357   2.449  12.758  1.00  0.00     0.014 A 
HETATM   21  C24 UNK     1       3.814   4.712  13.332  1.00  0.00     0.038 A 
HETATM   22  O4  UNK     1       4.886   5.914  11.556  1.00  0.00    -0.274 OA
HETATM   23  C26 UNK     1       3.654   3.551  14.084  1.00  0.00     0.003 A 
HETATM   24  C25 UNK     1       4.424   2.421  13.798  1.00  0.00     0.001 A 
HETATM   25  C17 UNK     1       5.793   6.021  10.505  1.00  0.00     0.302 A 
HETATM   26  O5  UNK     1       5.906   7.061   9.863  1.00  0.00    -0.259 OA
ENDBRANCH  14  16
ENDBRANCH  13  14
ENDBRANCH   3  13
BRANCH   2  27
HETATM   27  C6  UNK     1      12.762   7.608   7.516  1.00  0.00     0.170 C 
BRANCH  27  28
HETATM   28  C10 UNK     1      13.795   7.038   8.445  1.00  0.00    -0.040 A 
HETATM   29  C14 UNK     1      14.633   7.892   9.150  1.00  0.00     0.009 A 
HETATM   30  C19 UNK     1      15.591   7.363  10.014  1.00  0.00     0.001 A 
HETATM   31  C22 UNK     1      15.707   5.981  10.164  1.00  0.00     0.000 A 
HETATM   32  C20 UNK     1      14.862   5.129   9.453  1.00  0.00     0.001 A 
HETATM   33  C15 UNK     1      13.902   5.659   8.589  1.00  0.00     0.009 A 
ENDBRANCH  27  28
ENDBRANCH   2  27
TORSDOF 6
ENDMDL
MODEL 5
REMARK VINA RESULT:     -10.1     15.043     18.041
REMARK  6 active torsions:
REMARK  status: ('A' for Active; 'I' for Inactive)
REMARK    1  A    between atoms: C1_7  and  O1_1 
REMARK    2  A    between atoms: C6_12  and  N1_6 
REMARK    3  A    between atoms: C1_7  and  C5_11 
REMARK    4  A    between atoms: C5_11  and  C9_15 
REMARK    5  A    between atoms: C10_16  and  C6_12 
REMARK    6  A    between atoms: C13_19  and  C9_15 
ROOT
HETATM    1  O2  UNK     1      34.203  -4.749  35.917  1.00  0.00    -0.269 OA
HETATM    2  N1  UNK     1      33.052  -6.728  35.338  1.00  0.00    -0.310 N 
HETATM    3  C1  UNK     1      33.292  -6.241  37.643  1.00  0.00     0.175 A 
HETATM    4  C2  UNK     1      32.559  -7.534  37.415  1.00  0.00     0.013 A 
HETATM    5  C3  UNK     1      32.443  -7.773  36.046  1.00  0.00     0.047 A 
HETATM    6  C4  UNK     1      33.591  -5.768  36.207  1.00  0.00     0.264 A 
HETATM    7  C7  UNK     1      32.039  -8.427  38.337  1.00  0.00     0.013 A 
HETATM    8  C8  UNK     1      31.809  -8.900  35.553  1.00  0.00     0.030 A 
HETATM    9  C11 UNK     1      31.395  -9.570  37.859  1.00  0.00     0.001 A 
HETATM   10  C12 UNK     1      31.281  -9.805  36.478  1.00  0.00     0.002 A 
ENDROOT
BRANCH   3  11
HETATM   11  O1  UNK     1      34.521  -6.494  38.295  1.00  0.00    -0.375 OA
HETATM   12  H7  UNK     1      34.340  -6.908  39.156  1.00  0.00     0.211 HD
ENDBRANCH   3  11
BRANCH   3  13
HETATM   13  C5  UNK     1      32.475  -5.208  38.405  1.00  0.00     0.137 C 
BRANCH  13  14
HETATM   14  C9  UNK     1      31.266  -4.741  37.621  1.00  0.00     0.169 C 
HETATM   15  O3  UNK     1      31.312  -3.894  36.734  1.00  0.00    -0.292 OA
BRANCH  14  16
HETATM   16  C13 UNK     1      29.976  -5.365  37.977  1.00  0.00     0.086 A 
HETATM   17  C16 UNK     1      29.571  -6.372  37.195  1.00  0.00     0.035 A 
HETATM   18  C18 UNK     1      28.313  -7.050  37.465  1.00  0.00    -0.001 A 
HETATM   19  C21 UNK     1      27.542  -6.633  38.547  1.00  0.00     0.089 A 
HETATM   20  C23 UNK     1      27.850  -8.106  36.677  1.00  0.00     0.014 A 
HETATM   21  C24 UNK     1      26.327  -7.239  38.859  1.00  0.00     0.038 A 
HETATM   22  O4  UNK     1      27.974  -5.571  39.366  1.00  0.00    -0.274 OA
HETATM   23  C26 UNK     1      25.874  -8.292  38.068  1.00  0.00     0.003 A 
HETATM   24  C25 UNK     1      26.634  -8.724  36.978  1.00  0.00     0.001 A 
HETATM   25  C17 UNK     1      29.174  -4.904  39.132  1.00  0.00     0.302 A 
HETATM   26  O5  UNK     1      29.541  -3.980  39.850  1.00  0.00    -0.259 OA
ENDBRANCH  14  16
ENDBRANCH  13  14
ENDBRANCH   3  13
BRANCH   2  27
HETATM   27  C6  UNK     1      33.112  -6.677  33.897  1.00  0.00     0.170 C 
BRANCH  27  28
HETATM   28  C10 UNK     1      34.299  -7.423  33.357  1.00  0.00    -0.040 A 
HETATM   29  C14 UNK     1      35.569  -6.872  33.475  1.00  0.00     0.009 A 
HETATM   30  C19 UNK     1      36.671  -7.565  32.976  1.00  0.00     0.001 A 
HETATM   31  C22 UNK     1      36.495  -8.804  32.359  1.00  0.00     0.000 A 
HETATM   32  C20 UNK     1      35.217  -9.350  32.245  1.00  0.00     0.001 A 
HETATM   33  C15 UNK     1      34.114  -8.658  32.746  1.00  0.00     0.009 A 
ENDBRANCH  27  28
ENDBRANCH   2  27
TORSDOF 6
ENDMDL
MODEL 6
REMARK VINA RESULT:     -10.0     15.308     17.619
REMARK  6 active torsions:
REMARK  status: ('A' for Active; 'I' for Inactive)
REMARK    1  A    between atoms: C1_7  and  O1_1 
REMARK    2  A    between atoms: C6_12  and  N1_6 
REMARK    3  A    between atoms: C1_7  and  C5_11 
REMARK    4  A    between atoms: C5_11  and  C9_15 
REMARK    5  A    between atoms: C10_16  and  C6_12 
REMARK    6  A    between atoms: C13_19  and  C9_15 
ROOT
HETATM    1  O2  UNK     1      30.097  -6.207  32.731  1.00  0.00    -0.269 OA
HETATM    2  N1  UNK     1      31.508  -6.800  30.933  1.00  0.00    -0.310 N 
HETATM    3  C1  UNK     1      32.362  -7.073  33.125  1.00  0.00     0.175 A 
HETATM    4  C2  UNK     1      33.365  -7.469  32.077  1.00  0.00     0.013 A 
HETATM    5  C3  UNK     1      32.815  -7.291  30.809  1.00  0.00     0.047 A 
HETATM    6  C4  UNK     1      31.150  -6.633  32.279  1.00  0.00     0.264 A 
HETATM    7  C7  UNK     1      34.658  -7.943  32.229  1.00  0.00     0.013 A 
HETATM    8  C8  UNK     1      33.526  -7.579  29.657  1.00  0.00     0.030 A 
HETATM    9  C11 UNK     1      35.391  -8.240  31.078  1.00  0.00     0.001 A 
HETATM   10  C12 UNK     1      34.830  -8.060  29.802  1.00  0.00     0.002 A 
ENDROOT
BRANCH   3  11
HETATM   11  O1  UNK     1      32.835  -5.952  33.845  1.00  0.00    -0.375 OA
HETATM   12  H7  UNK     1      33.491  -5.484  33.301  1.00  0.00     0.211 HD
ENDBRANCH   3  11
BRANCH   3  13
HETATM   13  C5  UNK     1      31.993  -8.208  34.068  1.00  0.00     0.137 C 
BRANCH  13  14
HETATM   14  C9  UNK     1      32.352  -7.899  35.507  1.00  0.00     0.169 C 
HETATM   15  O3  UNK     1      33.504  -7.828  35.924  1.00  0.00    -0.292 OA
BRANCH  14  16
HETATM   16  C13 UNK     1      31.220  -7.679  36.430  1.00  0.00     0.086 A 
HETATM   17  C16 UNK     1      30.754  -8.761  37.063  1.00  0.00     0.035 A 
HETATM   18  C18 UNK     1      29.641  -8.645  37.992  1.00  0.00    -0.001 A 
HETATM   19  C21 UNK     1      29.073  -7.392  38.208  1.00  0.00     0.089 A 
HETATM   20  C23 UNK     1      29.121  -9.747  38.675  1.00  0.00     0.014 A 
HETATM   21  C24 UNK     1      28.005  -7.213  39.083  1.00  0.00     0.038 A 
HETATM   22  O4  UNK     1      29.569  -6.257  37.538  1.00  0.00    -0.274 OA
HETATM   23  C26 UNK     1      27.493  -8.317  39.761  1.00  0.00     0.003 A 
HETATM   24  C25 UNK     1      28.050  -9.582  39.557  1.00  0.00     0.001 A 
HETATM   25  C17 UNK     1      30.633  -6.338  36.644  1.00  0.00     0.302 A 
HETATM   26  O5  UNK     1      31.057  -5.343  36.064  1.00  0.00    -0.259 OA
ENDBRANCH  14  16
ENDBRANCH  13  14
ENDBRANCH   3  13
BRANCH   2  27
HETATM   27  C6  UNK     1      30.662  -6.501  29.802  1.00  0.00     0.170 C 
BRANCH  27  28
HETATM   28  C10 UNK     1      29.788  -7.665  29.431  1.00  0.00    -0.040 A 
HETATM   29  C14 UNK     1      28.523  -7.781  29.992  1.00  0.00     0.009 A 
HETATM   30  C19 UNK     1      27.711  -8.861  29.647  1.00  0.00     0.001 A 
HETATM   31  C22 UNK     1      28.171  -9.819  28.744  1.00  0.00     0.000 A 
HETATM   32  C20 UNK     1      29.443  -9.695  28.185  1.00  0.00     0.001 A 
HETATM   33  C15 UNK     1      30.255  -8.614  28.529  1.00  0.00     0.009 A 
ENDBRANCH  27  28
ENDBRANCH   2  27
TORSDOF 6
ENDMDL
MODEL 7
REMARK VINA RESULT:     -10.0     14.737     17.766
REMARK  6 active torsions:
REMARK  status: ('A' for Active; 'I' for Inactive)
REMARK    1  A    between atoms: C1_7  and  O1_1 
REMARK    2  A    between atoms: C6_12  and  N1_6 
REMARK    3  A    between atoms: C1_7  and  C5_11 
REMARK    4  A    between atoms: C5_11  and  C9_15 
REMARK    5  A    between atoms: C10_16  and  C6_12 
REMARK    6  A    between atoms: C13_19  and  C9_15 
ROOT
HETATM    1  O2  UNK     1      31.548  -8.101  33.063  1.00  0.00    -0.269 OA
HETATM    2  N1  UNK     1      31.010  -9.733  31.444  1.00  0.00    -0.310 N 
HETATM    3  C1  UNK     1      31.437 -10.484  33.649  1.00  0.00     0.175 A 
HETATM    4  C2  UNK     1      31.126 -11.623  32.718  1.00  0.00     0.013 A 
HETATM    5  C3  UNK     1      30.882 -11.129  31.437  1.00  0.00     0.047 A 
HETATM    6  C4  UNK     1      31.344  -9.257  32.720  1.00  0.00     0.264 A 
HETATM    7  C7  UNK     1      31.066 -12.982  32.977  1.00  0.00     0.013 A 
HETATM    8  C8  UNK     1      30.570 -11.966  30.379  1.00  0.00     0.030 A 
HETATM    9  C11 UNK     1      30.752 -13.842  31.922  1.00  0.00     0.001 A 
HETATM   10  C12 UNK     1      30.506 -13.338  30.633  1.00  0.00     0.002 A 
ENDROOT
BRANCH   3  11
HETATM   11  O1  UNK     1      32.768 -10.593  34.114  1.00  0.00    -0.375 OA
HETATM   12  H7  UNK     1      33.186 -11.362  33.692  1.00  0.00     0.211 HD
ENDBRANCH   3  11
BRANCH   3  13
HETATM   13  C5  UNK     1      30.463 -10.370  34.812  1.00  0.00     0.137 C 
BRANCH  13  14
HETATM   14  C9  UNK     1      31.171 -10.185  36.138  1.00  0.00     0.169 C 
HETATM   15  O3  UNK     1      31.693 -11.100  36.767  1.00  0.00    -0.292 OA
BRANCH  14  16
HETATM   16  C13 UNK     1      31.212  -8.808  36.670  1.00  0.00     0.086 A 
HETATM   17  C16 UNK     1      30.122  -8.396  37.329  1.00  0.00     0.035 A 
HETATM   18  C18 UNK     1      30.067  -7.055  37.890  1.00  0.00    -0.001 A 
HETATM   19  C21 UNK     1      31.164  -6.213  37.728  1.00  0.00     0.089 A 
HETATM   20  C23 UNK     1      28.952  -6.582  38.585  1.00  0.00     0.014 A 
HETATM   21  C24 UNK     1      31.175  -4.918  38.240  1.00  0.00     0.038 A 
HETATM   22  O4  UNK     1      32.308  -6.653  37.034  1.00  0.00    -0.274 OA
HETATM   23  C26 UNK     1      30.059  -4.455  38.932  1.00  0.00     0.003 A 
HETATM   24  C25 UNK     1      28.949  -5.285  39.104  1.00  0.00     0.001 A 
HETATM   25  C17 UNK     1      32.389  -7.931  36.487  1.00  0.00     0.302 A 
HETATM   26  O5  UNK     1      33.389  -8.304  35.883  1.00  0.00    -0.259 OA
ENDBRANCH  14  16
ENDBRANCH  13  14
ENDBRANCH   3  13
BRANCH   2  27
HETATM   27  C6  UNK     1      30.826  -8.915  30.269  1.00  0.00     0.170 C 
BRANCH  27  28
HETATM   28  C10 UNK     1      29.540  -8.140  30.319  1.00  0.00    -0.040 A 
HETATM   29  C14 UNK     1      28.328  -8.820  30.316  1.00  0.00     0.009 A 
HETATM   30  C19 UNK     1      27.134  -8.101  30.363  1.00  0.00     0.001 A 
HETATM   31  C22 UNK     1      27.160  -6.708  30.413  1.00  0.00     0.000 A 
HETATM   32  C20 UNK     1      28.381  -6.033  30.416  1.00  0.00     0.001 A 
HETATM   33  C15 UNK     1      29.576  -6.751  30.369  1.00  0.00     0.009 A 
ENDBRANCH  27  28
ENDBRANCH   2  27
TORSDOF 6
ENDMDL
MODEL 8
REMARK VINA RESULT:     -10.0      5.899     10.326
REMARK  6 active torsions:
REMARK  status: ('A' for Active; 'I' for Inactive)
REMARK    1  A    between atoms: C1_7  and  O1_1 
REMARK    2  A    between atoms: C6_12  and  N1_6 
REMARK    3  A    between atoms: C1_7  and  C5_11 
REMARK    4  A    between atoms: C5_11  and  C9_15 
REMARK    5  A    between atoms: C10_16  and  C6_12 
REMARK    6  A    between atoms: C13_19  and  C9_15 
ROOT
HETATM    1  O2  UNK     1      18.648  -1.200  36.697  1.00  0.00    -0.269 OA
HETATM    2  N1  UNK     1      18.509  -0.852  34.366  1.00  0.00    -0.310 N 
HETATM    3  C1  UNK     1      20.147  -2.375  35.146  1.00  0.00     0.175 A 
HETATM    4  C2  UNK     1      20.179  -2.233  33.649  1.00  0.00     0.013 A 
HETATM    5  C3  UNK     1      19.198  -1.330  33.242  1.00  0.00     0.047 A 
HETATM    6  C4  UNK     1      19.009  -1.416  35.549  1.00  0.00     0.264 A 
HETATM    7  C7  UNK     1      21.005  -2.847  32.723  1.00  0.00     0.013 A 
HETATM    8  C8  UNK     1      19.007  -1.011  31.909  1.00  0.00     0.030 A 
HETATM    9  C11 UNK     1      20.827  -2.539  31.373  1.00  0.00     0.001 A 
HETATM   10  C12 UNK     1      19.836  -1.628  30.969  1.00  0.00     0.002 A 
ENDROOT
BRANCH   3  11
HETATM   11  O1  UNK     1      21.355  -1.891  35.700  1.00  0.00    -0.375 OA
HETATM   12  H7  UNK     1      22.049  -1.929  35.021  1.00  0.00     0.211 HD
ENDBRANCH   3  11
BRANCH   3  13
HETATM   13  C5  UNK     1      19.864  -3.795  35.614  1.00  0.00     0.137 C 
BRANCH  13  14
HETATM   14  C9  UNK     1      20.391  -4.055  37.010  1.00  0.00     0.169 C 
HETATM   15  O3  UNK     1      20.623  -3.171  37.829  1.00  0.00    -0.292 OA
BRANCH  14  16
HETATM   16  C13 UNK     1      20.628  -5.468  37.366  1.00  0.00     0.086 A 
HETATM   17  C16 UNK     1      19.654  -6.329  37.050  1.00  0.00     0.035 A 
HETATM   18  C18 UNK     1      19.794  -7.743  37.360  1.00  0.00    -0.001 A 
HETATM   19  C21 UNK     1      20.955  -8.181  37.990  1.00  0.00     0.089 A 
HETATM   20  C23 UNK     1      18.803  -8.677  37.049  1.00  0.00     0.014 A 
HETATM   21  C24 UNK     1      21.152  -9.521  38.316  1.00  0.00     0.038 A 
HETATM   22  O4  UNK     1      21.978  -7.270  38.320  1.00  0.00    -0.274 OA
HETATM   23  C26 UNK     1      20.159 -10.446  38.001  1.00  0.00     0.003 A 
HETATM   24  C25 UNK     1      18.987 -10.024  37.369  1.00  0.00     0.001 A 
HETATM   25  C17 UNK     1      21.871  -5.911  38.035  1.00  0.00     0.302 A 
HETATM   26  O5  UNK     1      22.766  -5.125  38.328  1.00  0.00    -0.259 OA
ENDBRANCH  14  16
ENDBRANCH  13  14
ENDBRANCH   3  13
BRANCH   2  27
HETATM   27  C6  UNK     1      17.433   0.107  34.288  1.00  0.00     0.170 C 
BRANCH  27  28
HETATM   28  C10 UNK     1      17.943   1.518  34.220  1.00  0.00    -0.040 A 
HETATM   29  C14 UNK     1      17.851   2.226  33.028  1.00  0.00     0.009 A 
HETATM   30  C19 UNK     1      18.324   3.536  32.965  1.00  0.00     0.001 A 
HETATM   31  C22 UNK     1      18.887   4.130  34.095  1.00  0.00     0.000 A 
HETATM   32  C20 UNK     1      18.976   3.412  35.288  1.00  0.00     0.001 A 
HETATM   33  C15 UNK     1      18.502   2.102  35.351  1.00  0.00     0.009 A 
ENDBRANCH  27  28
ENDBRANCH   2  27
TORSDOF 6
ENDMDL
MODEL 9
REMARK VINA RESULT:      -9.9     15.521     18.892
REMARK  6 active torsions:
REMARK  status: ('A' for Active; 'I' for Inactive)
REMARK    1  A    between atoms: C1_7  and  O1_1 
REMARK    2  A    between atoms: C6_12  and  N1_6 
REMARK    3  A    between atoms: C1_7  and  C5_11 
REMARK    4  A    between atoms: C5_11  and  C9_15 
REMARK    5  A    between atoms: C10_16  and  C6_12 
REMARK    6  A    between atoms: C13_19  and  C9_15 
ROOT
HETATM    1  O2  UNK     1      33.080  -8.431  36.484  1.00  0.00    -0.269 OA
HETATM    2  N1  UNK     1      31.181  -7.711  37.688  1.00  0.00    -0.310 N 
HETATM    3  C1  UNK     1      32.485  -6.051  36.615  1.00  0.00     0.175 A 
HETATM    4  C2  UNK     1      31.321  -5.457  37.358  1.00  0.00     0.013 A 
HETATM    5  C3  UNK     1      30.587  -6.473  37.969  1.00  0.00     0.047 A 
HETATM    6  C4  UNK     1      32.324  -7.559  36.889  1.00  0.00     0.264 A 
HETATM    7  C7  UNK     1      30.941  -4.132  37.488  1.00  0.00     0.013 A 
HETATM    8  C8  UNK     1      29.457  -6.205  38.722  1.00  0.00     0.030 A 
HETATM    9  C11 UNK     1      29.803  -3.842  38.243  1.00  0.00     0.001 A 
HETATM   10  C12 UNK     1      29.067  -4.870  38.856  1.00  0.00     0.002 A 
ENDROOT
BRANCH   3  11
HETATM   11  O1  UNK     1      33.699  -5.618  37.198  1.00  0.00    -0.375 OA
HETATM   12  H7  UNK     1      34.429  -5.824  36.592  1.00  0.00     0.211 HD
ENDBRANCH   3  11
BRANCH   3  13
HETATM   13  C5  UNK     1      32.464  -5.756  35.122  1.00  0.00     0.137 C 
BRANCH  13  14
HETATM   14  C9  UNK     1      33.807  -5.274  34.614  1.00  0.00     0.169 C 
HETATM   15  O3  UNK     1      34.141  -4.093  34.580  1.00  0.00    -0.292 OA
BRANCH  14  16
HETATM   16  C13 UNK     1      34.739  -6.316  34.138  1.00  0.00     0.086 A 
HETATM   17  C16 UNK     1      34.460  -6.860  32.948  1.00  0.00     0.035 A 
HETATM   18  C18 UNK     1      35.319  -7.895  32.395  1.00  0.00    -0.001 A 
HETATM   19  C21 UNK     1      36.430  -8.308  33.126  1.00  0.00     0.089 A 
HETATM   20  C23 UNK     1      35.068  -8.491  31.157  1.00  0.00     0.014 A 
HETATM   21  C24 UNK     1      37.292  -9.295  32.654  1.00  0.00     0.038 A 
HETATM   22  O4  UNK     1      36.718  -7.732  34.378  1.00  0.00    -0.274 OA
HETATM   23  C26 UNK     1      37.035  -9.883  31.418  1.00  0.00     0.003 A 
HETATM   24  C25 UNK     1      35.924  -9.482  30.671  1.00  0.00     0.001 A 
HETATM   25  C17 UNK     1      35.914  -6.739  34.932  1.00  0.00     0.302 A 
HETATM   26  O5  UNK     1      36.172  -6.244  36.024  1.00  0.00    -0.259 OA
ENDBRANCH  14  16
ENDBRANCH  13  14
ENDBRANCH   3  13
BRANCH   2  27
HETATM   27  C6  UNK     1      30.667  -8.967  38.180  1.00  0.00     0.170 C 
BRANCH  27  28
HETATM   28  C10 UNK     1      29.311  -9.279  37.615  1.00  0.00    -0.040 A 
HETATM   29  C14 UNK     1      28.255  -9.557  38.474  1.00  0.00     0.009 A 
HETATM   30  C19 UNK     1      26.996  -9.846  37.950  1.00  0.00     0.001 A 
HETATM   31  C22 UNK     1      26.802  -9.857  36.569  1.00  0.00     0.000 A 
HETATM   32  C20 UNK     1      27.867  -9.578  35.713  1.00  0.00     0.001 A 
HETATM   33  C15 UNK     1      29.127  -9.288  36.237  1.00  0.00     0.009 A 
ENDBRANCH  27  28
ENDBRANCH   2  27
TORSDOF 6
ENDMDL
MODEL 10
REMARK VINA RESULT:      -9.8     14.348     16.710
REMARK  6 active torsions:
REMARK  status: ('A' for Active; 'I' for Inactive)
REMARK    1  A    between atoms: C1_7  and  O1_1 
REMARK    2  A    between atoms: C6_12  and  N1_6 
REMARK    3  A    between atoms: C1_7  and  C5_11 
REMARK    4  A    between atoms: C5_11  and  C9_15 
REMARK    5  A    between atoms: C10_16  and  C6_12 
REMARK    6  A    between atoms: C13_19  and  C9_15 
ROOT
HETATM    1  O2  UNK     1      32.053  -8.845  31.614  1.00  0.00    -0.269 OA
HETATM    2  N1  UNK     1      30.788  -9.402  33.529  1.00  0.00    -0.310 N 
HETATM    3  C1  UNK     1      32.936  -8.467  33.876  1.00  0.00     0.175 A 
HETATM    4  C2  UNK     1      32.249  -8.791  35.173  1.00  0.00     0.013 A 
HETATM    5  C3  UNK     1      30.991  -9.336  34.914  1.00  0.00     0.047 A 
HETATM    6  C4  UNK     1      31.898  -8.910  32.826  1.00  0.00     0.264 A 
HETATM    7  C7  UNK     1      32.694  -8.623  36.473  1.00  0.00     0.013 A 
HETATM    8  C8  UNK     1      30.142  -9.727  35.935  1.00  0.00     0.030 A 
HETATM    9  C11 UNK     1      31.851  -9.010  37.516  1.00  0.00     0.001 A 
HETATM   10  C12 UNK     1      30.584  -9.559  37.249  1.00  0.00     0.002 A 
ENDROOT
BRANCH   3  11
HETATM   11  O1  UNK     1      34.090  -9.272  33.729  1.00  0.00    -0.375 OA
HETATM   12  H7  UNK     1      34.607  -8.944  32.974  1.00  0.00     0.211 HD
ENDBRANCH   3  11
BRANCH   3  13
HETATM   13  C5  UNK     1      33.279  -6.993  33.724  1.00  0.00     0.137 C 
BRANCH  13  14
HETATM   14  C9  UNK     1      32.044  -6.119  33.668  1.00  0.00     0.169 C 
HETATM   15  O3  UNK     1      31.408  -5.897  32.642  1.00  0.00    -0.292 OA
BRANCH  14  16
HETATM   16  C13 UNK     1      31.612  -5.516  34.945  1.00  0.00     0.086 A 
HETATM   17  C16 UNK     1      30.511  -6.035  35.502  1.00  0.00     0.035 A 
HETATM   18  C18 UNK     1      30.007  -5.508  36.760  1.00  0.00    -0.001 A 
HETATM   19  C21 UNK     1      30.688  -4.458  37.371  1.00  0.00     0.089 A 
HETATM   20  C23 UNK     1      28.863  -6.018  37.378  1.00  0.00     0.014 A 
HETATM   21  C24 UNK     1      30.257  -3.907  38.576  1.00  0.00     0.038 A 
HETATM   22  O4  UNK     1      31.846  -3.916  36.780  1.00  0.00    -0.274 OA
HETATM   23  C26 UNK     1      29.116  -4.423  39.185  1.00  0.00     0.003 A 
HETATM   24  C25 UNK     1      28.420  -5.476  38.587  1.00  0.00     0.001 A 
HETATM   25  C17 UNK     1      32.352  -4.401  35.576  1.00  0.00     0.302 A 
HETATM   26  O5  UNK     1      33.360  -3.921  35.069  1.00  0.00    -0.259 OA
ENDBRANCH  14  16
ENDBRANCH  13  14
ENDBRANCH   3  13
BRANCH   2  27
HETATM   27  C6  UNK     1      29.585  -9.926  32.928  1.00  0.00     0.170 C 
BRANCH  27  28
HETATM   28  C10 UNK     1      28.758  -8.845  32.294  1.00  0.00    -0.040 A 
HETATM   29  C14 UNK     1      28.339  -8.983  30.976  1.00  0.00     0.009 A 
HETATM   30  C19 UNK     1      27.571  -7.980  30.387  1.00  0.00     0.001 A 
HETATM   31  C22 UNK     1      27.227  -6.844  31.119  1.00  0.00     0.000 A 
HETATM   32  C20 UNK     1      27.651  -6.713  32.442  1.00  0.00     0.001 A 
HETATM   33  C15 UNK     1      28.419  -7.717  33.032  1.00  0.00     0.009 A 
ENDBRANCH  27  28
ENDBRANCH   2  27
TORSDOF 6
ENDMDL
