MODEL 1
REMARK VINA RESULT:      -8.1      0.000      0.000
REMARK  5 active torsions:
REMARK  status: ('A' for Active; 'I' for Inactive)
REMARK    1  A    between atoms: C1_5  and  O1_1 
REMARK    2  A    between atoms: C4_8  and  O1_1 
REMARK    3  A    between atoms: C1_5  and  C2_6 
REMARK    4  A    between atoms: C1_5  and  C3_7 
REMARK    5  A    between atoms: C2_6  and  C6_10 
ROOT
HETATM    1  O1  UNK     1      17.487   4.106  31.747  1.00  0.00    -0.340 OA
ENDROOT
BRANCH   1   2
HETATM    2  C1  UNK     1      18.202   5.202  32.282  1.00  0.00     0.168 C 
BRANCH   2   3
HETATM    3  C2  UNK     1      18.999   5.897  31.171  1.00  0.00     0.115 C 
BRANCH   3   4
HETATM    4  C6  UNK     1      20.483   6.014  31.485  1.00  0.00     0.125 C 
HETATM    5  C14 UNK     1      20.830   6.438  32.889  1.00  0.00     0.091 C 
HETATM    6  O3  UNK     1      21.363   5.773  30.661  1.00  0.00    -0.298 OA
ENDBRANCH   3   4
ENDBRANCH   2   3
BRANCH   2   7
HETATM    7  C3  UNK     1      17.211   6.144  32.926  1.00  0.00    -0.029 A 
HETATM    8  C7  UNK     1      17.405   6.537  34.240  1.00  0.00     0.010 A 
HETATM    9  C12 UNK     1      16.490   7.406  34.835  1.00  0.00     0.001 A 
HETATM   10  C16 UNK     1      15.392   7.867  34.108  1.00  0.00     0.000 A 
HETATM   11  C13 UNK     1      15.212   7.462  32.786  1.00  0.00     0.001 A 
HETATM   12  C8  UNK     1      16.127   6.593  32.191  1.00  0.00     0.010 A 
ENDBRANCH   2   7
ENDBRANCH   1   2
BRANCH   1  13
HETATM   13  C4  UNK     1      18.012   2.912  32.200  1.00  0.00     0.088 A 
HETATM   14  C10 UNK     1      17.978   2.631  33.506  1.00  0.00     0.120 A 
HETATM   15  C17 UNK     1      18.499   1.369  34.055  1.00  0.00     0.290 A 
HETATM   16  O2  UNK     1      19.021   0.464  33.142  1.00  0.00    -0.275 OA
HETATM   17  O4  UNK     1      18.463   1.135  35.258  1.00  0.00    -0.260 OA
HETATM   18  C9  UNK     1      19.080   0.751  31.762  1.00  0.00     0.092 A 
HETATM   19  C15 UNK     1      19.654  -0.230  30.950  1.00  0.00     0.038 A 
HETATM   20  C5  UNK     1      18.596   1.958  31.251  1.00  0.00     0.031 A 
HETATM   21  C19 UNK     1      19.755  -0.003  29.582  1.00  0.00     0.003 A 
HETATM   22  C18 UNK     1      19.289   1.195  29.044  1.00  0.00     0.001 A 
HETATM   23  C11 UNK     1      18.715   2.169  29.871  1.00  0.00     0.017 A 
ENDBRANCH   1  13
TORSDOF 5
ENDMDL
MODEL 2
REMARK VINA RESULT:      -7.8      2.302      4.623
REMARK  5 active torsions:
REMARK  status: ('A' for Active; 'I' for Inactive)
REMARK    1  A    between atoms: C1_5  and  O1_1 
REMARK    2  A    between atoms: C4_8  and  O1_1 
REMARK    3  A    between atoms: C1_5  and  C2_6 
REMARK    4  A    between atoms: C1_5  and  C3_7 
REMARK    5  A    between atoms: C2_6  and  C6_10 
ROOT
HETATM    1  O1  UNK     1      17.638   2.167  32.708  1.00  0.00    -0.340 OA
ENDROOT
BRANCH   1   2
HETATM    2  C1  UNK     1      18.362   2.652  31.595  1.00  0.00     0.168 C 
BRANCH   2   3
HETATM    3  C2  UNK     1      17.499   2.563  30.331  1.00  0.00     0.115 C 
BRANCH   3   4
HETATM    4  C6  UNK     1      18.260   2.033  29.125  1.00  0.00     0.125 C 
HETATM    5  C14 UNK     1      19.442   1.148  29.426  1.00  0.00     0.091 C 
HETATM    6  O3  UNK     1      17.943   2.293  27.965  1.00  0.00    -0.298 OA
ENDBRANCH   3   4
ENDBRANCH   2   3
BRANCH   2   7
HETATM    7  C3  UNK     1      18.776   4.077  31.886  1.00  0.00    -0.029 A 
HETATM    8  C7  UNK     1      19.430   4.806  30.907  1.00  0.00     0.010 A 
HETATM    9  C12 UNK     1      19.812   6.121  31.175  1.00  0.00     0.001 A 
HETATM   10  C16 UNK     1      19.534   6.687  32.420  1.00  0.00     0.000 A 
HETATM   11  C13 UNK     1      18.874   5.939  33.394  1.00  0.00     0.001 A 
HETATM   12  C8  UNK     1      18.492   4.624  33.126  1.00  0.00     0.010 A 
ENDBRANCH   2   7
ENDBRANCH   1   2
BRANCH   1  13
HETATM   13  C4  UNK     1      18.177   0.980  33.162  1.00  0.00     0.088 A 
HETATM   14  C10 UNK     1      18.779   0.157  32.299  1.00  0.00     0.120 A 
HETATM   15  C17 UNK     1      19.394  -1.113  32.716  1.00  0.00     0.290 A 
HETATM   16  O2  UNK     1      19.333  -1.416  34.069  1.00  0.00    -0.275 OA
HETATM   17  O4  UNK     1      19.937  -1.856  31.906  1.00  0.00    -0.260 OA
HETATM   18  C9  UNK     1      18.687  -0.567  34.993  1.00  0.00     0.092 A 
HETATM   19  C15 UNK     1      18.669  -0.997  36.322  1.00  0.00     0.038 A 
HETATM   20  C5  UNK     1      18.093   0.630  34.584  1.00  0.00     0.031 A 
HETATM   21  C19 UNK     1      18.036  -0.213  37.279  1.00  0.00     0.003 A 
HETATM   22  C18 UNK     1      17.426   0.983  36.901  1.00  0.00     0.001 A 
HETATM   23  C11 UNK     1      17.454   1.400  35.564  1.00  0.00     0.017 A 
ENDBRANCH   1  13
TORSDOF 5
ENDMDL
MODEL 3
REMARK VINA RESULT:      -7.8     22.576     24.501
REMARK  5 active torsions:
REMARK  status: ('A' for Active; 'I' for Inactive)
REMARK    1  A    between atoms: C1_5  and  O1_1 
REMARK    2  A    between atoms: C4_8  and  O1_1 
REMARK    3  A    between atoms: C1_5  and  C2_6 
REMARK    4  A    between atoms: C1_5  and  C3_7 
REMARK    5  A    between atoms: C2_6  and  C6_10 
ROOT
HETATM    1  O1  UNK     1      12.973   7.779   8.022  1.00  0.00    -0.340 OA
ENDROOT
BRANCH   1   2
HETATM    2  C1  UNK     1      11.830   7.741   8.854  1.00  0.00     0.168 C 
BRANCH   2   3
HETATM    3  C2  UNK     1      11.521   9.148   9.379  1.00  0.00     0.115 C 
BRANCH   3   4
HETATM    4  C6  UNK     1      11.872   9.326  10.849  1.00  0.00     0.125 C 
HETATM    5  C14 UNK     1      11.374  10.592  11.498  1.00  0.00     0.091 C 
HETATM    6  O3  UNK     1      12.515   8.496  11.489  1.00  0.00    -0.298 OA
ENDBRANCH   3   4
ENDBRANCH   2   3
BRANCH   2   7
HETATM    7  C3  UNK     1      10.679   7.183   8.048  1.00  0.00    -0.029 A 
HETATM    8  C7  UNK     1       9.410   7.162   8.604  1.00  0.00     0.010 A 
HETATM    9  C12 UNK     1       8.348   6.647   7.861  1.00  0.00     0.001 A 
HETATM   10  C16 UNK     1       8.570   6.158   6.574  1.00  0.00     0.000 A 
HETATM   11  C13 UNK     1       9.854   6.186   6.029  1.00  0.00     0.001 A 
HETATM   12  C8  UNK     1      10.916   6.701   6.772  1.00  0.00     0.010 A 
ENDBRANCH   2   7
ENDBRANCH   1   2
BRANCH   1  13
HETATM   13  C4  UNK     1      14.078   7.289   8.687  1.00  0.00     0.088 A 
HETATM   14  C10 UNK     1      14.184   5.975   8.910  1.00  0.00     0.120 A 
HETATM   15  C17 UNK     1      15.344   5.381   9.594  1.00  0.00     0.290 A 
HETATM   16  O2  UNK     1      16.346   6.256   9.989  1.00  0.00    -0.275 OA
HETATM   17  O4  UNK     1      15.417   4.174   9.794  1.00  0.00    -0.260 OA
HETATM   18  C9  UNK     1      16.244   7.648   9.777  1.00  0.00     0.092 A 
HETATM   19  C15 UNK     1      17.306   8.425  10.245  1.00  0.00     0.038 A 
HETATM   20  C5  UNK     1      15.132   8.204   9.139  1.00  0.00     0.031 A 
HETATM   21  C19 UNK     1      17.260   9.804  10.079  1.00  0.00     0.003 A 
HETATM   22  C18 UNK     1      16.160  10.390   9.456  1.00  0.00     0.001 A 
HETATM   23  C11 UNK     1      15.104   9.597   8.991  1.00  0.00     0.017 A 
ENDBRANCH   1  13
TORSDOF 5
ENDMDL
MODEL 4
REMARK VINA RESULT:      -7.7      2.397      4.116
REMARK  5 active torsions:
REMARK  status: ('A' for Active; 'I' for Inactive)
REMARK    1  A    between atoms: C1_5  and  O1_1 
REMARK    2  A    between atoms: C4_8  and  O1_1 
REMARK    3  A    between atoms: C1_5  and  C2_6 
REMARK    4  A    between atoms: C1_5  and  C3_7 
REMARK    5  A    between atoms: C2_6  and  C6_10 
ROOT
HETATM    1  O1  UNK     1      18.679   6.025  34.261  1.00  0.00    -0.340 OA
ENDROOT
BRANCH   1   2
HETATM    2  C1  UNK     1      17.845   7.070  33.800  1.00  0.00     0.168 C 
BRANCH   2   3
HETATM    3  C2  UNK     1      16.508   7.041  34.551  1.00  0.00     0.115 C 
BRANCH   3   4
HETATM    4  C6  UNK     1      15.310   7.276  33.644  1.00  0.00     0.125 C 
HETATM    5  C14 UNK     1      15.516   6.967  32.183  1.00  0.00     0.091 C 
HETATM    6  O3  UNK     1      14.227   7.686  34.058  1.00  0.00    -0.298 OA
ENDBRANCH   3   4
ENDBRANCH   2   3
BRANCH   2   7
HETATM    7  C3  UNK     1      18.570   8.380  34.008  1.00  0.00    -0.029 A 
HETATM    8  C7  UNK     1      19.904   8.364  34.383  1.00  0.00     0.010 A 
HETATM    9  C12 UNK     1      20.574   9.573  34.575  1.00  0.00     0.001 A 
HETATM   10  C16 UNK     1      19.899  10.780  34.391  1.00  0.00     0.000 A 
HETATM   11  C13 UNK     1      18.557  10.778  34.013  1.00  0.00     0.001 A 
HETATM   12  C8  UNK     1      17.887   9.570  33.820  1.00  0.00     0.010 A 
ENDBRANCH   2   7
ENDBRANCH   1   2
BRANCH   1  13
HETATM   13  C4  UNK     1      18.492   4.883  33.510  1.00  0.00     0.088 A 
HETATM   14  C10 UNK     1      18.104   3.755  34.113  1.00  0.00     0.120 A 
HETATM   15  C17 UNK     1      17.866   2.506  33.372  1.00  0.00     0.290 A 
HETATM   16  O2  UNK     1      18.049   2.556  31.997  1.00  0.00    -0.275 OA
HETATM   17  O4  UNK     1      17.516   1.481  33.946  1.00  0.00    -0.260 OA
HETATM   18  C9  UNK     1      18.474   3.733  31.346  1.00  0.00     0.092 A 
HETATM   19  C15 UNK     1      18.650   3.647  29.963  1.00  0.00     0.038 A 
HETATM   20  C5  UNK     1      18.712   4.911  32.060  1.00  0.00     0.031 A 
HETATM   21  C19 UNK     1      19.081   4.769  29.264  1.00  0.00     0.003 A 
HETATM   22  C18 UNK     1      19.335   5.956  29.950  1.00  0.00     0.001 A 
HETATM   23  C11 UNK     1      19.154   6.026  31.336  1.00  0.00     0.017 A 
ENDBRANCH   1  13
TORSDOF 5
ENDMDL
MODEL 5
REMARK VINA RESULT:      -7.7      6.783     10.857
REMARK  5 active torsions:
REMARK  status: ('A' for Active; 'I' for Inactive)
REMARK    1  A    between atoms: C1_5  and  O1_1 
REMARK    2  A    between atoms: C4_8  and  O1_1 
REMARK    3  A    between atoms: C1_5  and  C2_6 
REMARK    4  A    between atoms: C1_5  and  C3_7 
REMARK    5  A    between atoms: C2_6  and  C6_10 
ROOT
HETATM    1  O1  UNK     1      20.706  -3.999  36.478  1.00  0.00    -0.340 OA
ENDROOT
BRANCH   1   2
HETATM    2  C1  UNK     1      19.983  -5.080  37.034  1.00  0.00     0.168 C 
BRANCH   2   3
HETATM    3  C2  UNK     1      19.483  -6.003  35.917  1.00  0.00     0.115 C 
BRANCH   3   4
HETATM    4  C6  UNK     1      18.049  -6.468  36.125  1.00  0.00     0.125 C 
HETATM    5  C14 UNK     1      17.604  -7.633  35.279  1.00  0.00     0.091 C 
HETATM    6  O3  UNK     1      17.286  -5.944  36.934  1.00  0.00    -0.298 OA
ENDBRANCH   3   4
ENDBRANCH   2   3
BRANCH   2   7
HETATM    7  C3  UNK     1      20.892  -5.811  37.995  1.00  0.00    -0.029 A 
HETATM    8  C7  UNK     1      20.404  -6.906  38.690  1.00  0.00     0.010 A 
HETATM    9  C12 UNK     1      21.243  -7.581  39.577  1.00  0.00     0.001 A 
HETATM   10  C16 UNK     1      22.558  -7.151  39.756  1.00  0.00     0.000 A 
HETATM   11  C13 UNK     1      23.034  -6.047  39.048  1.00  0.00     0.001 A 
HETATM   12  C8  UNK     1      22.195  -5.372  38.162  1.00  0.00     0.010 A 
ENDBRANCH   2   7
ENDBRANCH   1   2
BRANCH   1  13
HETATM   13  C4  UNK     1      19.859  -2.958  36.157  1.00  0.00     0.088 A 
HETATM   14  C10 UNK     1      19.078  -2.428  37.103  1.00  0.00     0.120 A 
HETATM   15  C17 UNK     1      18.167  -1.303  36.836  1.00  0.00     0.290 A 
HETATM   16  O2  UNK     1      18.166  -0.799  35.544  1.00  0.00    -0.275 OA
HETATM   17  O4  UNK     1      17.455  -0.836  37.718  1.00  0.00    -0.260 OA
HETATM   18  C9  UNK     1      18.972  -1.356  34.528  1.00  0.00     0.092 A 
HETATM   19  C15 UNK     1      18.860  -0.777  33.262  1.00  0.00     0.038 A 
HETATM   20  C5  UNK     1      19.823  -2.434  34.787  1.00  0.00     0.031 A 
HETATM   21  C19 UNK     1      19.617  -1.289  32.214  1.00  0.00     0.003 A 
HETATM   22  C18 UNK     1      20.468  -2.370  32.439  1.00  0.00     0.001 A 
HETATM   23  C11 UNK     1      20.570  -2.939  33.714  1.00  0.00     0.017 A 
ENDBRANCH   1  13
TORSDOF 5
ENDMDL
MODEL 6
REMARK VINA RESULT:      -7.7     16.987     20.193
REMARK  5 active torsions:
REMARK  status: ('A' for Active; 'I' for Inactive)
REMARK    1  A    between atoms: C1_5  and  O1_1 
REMARK    2  A    between atoms: C4_8  and  O1_1 
REMARK    3  A    between atoms: C1_5  and  C2_6 
REMARK    4  A    between atoms: C1_5  and  C3_7 
REMARK    5  A    between atoms: C2_6  and  C6_10 
ROOT
HETATM    1  O1  UNK     1      17.256  -4.558  14.678  1.00  0.00    -0.340 OA
ENDROOT
BRANCH   1   2
HETATM    2  C1  UNK     1      17.782  -5.587  15.492  1.00  0.00     0.168 C 
BRANCH   2   3
HETATM    3  C2  UNK     1      16.674  -6.583  15.854  1.00  0.00     0.115 C 
BRANCH   3   4
HETATM    4  C6  UNK     1      16.130  -6.385  17.261  1.00  0.00     0.125 C 
HETATM    5  C14 UNK     1      15.355  -5.115  17.497  1.00  0.00     0.091 C 
HETATM    6  O3  UNK     1      16.295  -7.204  18.164  1.00  0.00    -0.298 OA
ENDBRANCH   3   4
ENDBRANCH   2   3
BRANCH   2   7
HETATM    7  C3  UNK     1      18.907  -6.257  14.737  1.00  0.00    -0.029 A 
HETATM    8  C7  UNK     1      20.206  -6.128  15.201  1.00  0.00     0.010 A 
HETATM    9  C12 UNK     1      21.245  -6.746  14.505  1.00  0.00     0.001 A 
HETATM   10  C16 UNK     1      20.969  -7.484  13.354  1.00  0.00     0.000 A 
HETATM   11  C13 UNK     1      19.656  -7.605  12.900  1.00  0.00     0.001 A 
HETATM   12  C8  UNK     1      18.617  -6.987  13.597  1.00  0.00     0.010 A 
ENDBRANCH   2   7
ENDBRANCH   1   2
BRANCH   1  13
HETATM   13  C4  UNK     1      17.941  -3.376  14.880  1.00  0.00     0.088 A 
HETATM   14  C10 UNK     1      17.772  -2.705  16.022  1.00  0.00     0.120 A 
HETATM   15  C17 UNK     1      18.485  -1.450  16.314  1.00  0.00     0.290 A 
HETATM   16  O2  UNK     1      19.365  -0.998  15.341  1.00  0.00    -0.275 OA
HETATM   17  O4  UNK     1      18.310  -0.847  17.366  1.00  0.00    -0.260 OA
HETATM   18  C9  UNK     1      19.545  -1.686  14.122  1.00  0.00     0.092 A 
HETATM   19  C15 UNK     1      20.438  -1.113  13.214  1.00  0.00     0.038 A 
HETATM   20  C5  UNK     1      18.852  -2.868  13.848  1.00  0.00     0.031 A 
HETATM   21  C19 UNK     1      20.648  -1.734  11.988  1.00  0.00     0.003 A 
HETATM   22  C18 UNK     1      19.965  -2.910  11.682  1.00  0.00     0.001 A 
HETATM   23  C11 UNK     1      19.073  -3.472  12.604  1.00  0.00     0.017 A 
ENDBRANCH   1  13
TORSDOF 5
ENDMDL
MODEL 7
REMARK VINA RESULT:      -7.6      2.556      6.856
REMARK  5 active torsions:
REMARK  status: ('A' for Active; 'I' for Inactive)
REMARK    1  A    between atoms: C1_5  and  O1_1 
REMARK    2  A    between atoms: C4_8  and  O1_1 
REMARK    3  A    between atoms: C1_5  and  C2_6 
REMARK    4  A    between atoms: C1_5  and  C3_7 
REMARK    5  A    between atoms: C2_6  and  C6_10 
ROOT
HETATM    1  O1  UNK     1      18.178  -0.093  32.994  1.00  0.00    -0.340 OA
ENDROOT
BRANCH   1   2
HETATM    2  C1  UNK     1      19.448  -0.706  32.890  1.00  0.00     0.168 C 
BRANCH   2   3
HETATM    3  C2  UNK     1      19.414  -2.091  33.547  1.00  0.00     0.115 C 
BRANCH   3   4
HETATM    4  C6  UNK     1      20.391  -2.225  34.706  1.00  0.00     0.125 C 
HETATM    5  C14 UNK     1      19.783  -2.535  36.050  1.00  0.00     0.091 C 
HETATM    6  O3  UNK     1      21.608  -2.101  34.574  1.00  0.00    -0.298 OA
ENDBRANCH   3   4
ENDBRANCH   2   3
BRANCH   2   7
HETATM    7  C3  UNK     1      19.812  -0.794  31.425  1.00  0.00    -0.029 A 
HETATM    8  C7  UNK     1      19.798   0.356  30.653  1.00  0.00     0.010 A 
HETATM    9  C12 UNK     1      20.133   0.275  29.302  1.00  0.00     0.001 A 
HETATM   10  C16 UNK     1      20.476  -0.956  28.741  1.00  0.00     0.000 A 
HETATM   11  C13 UNK     1      20.485  -2.104  29.532  1.00  0.00     0.001 A 
HETATM   12  C8  UNK     1      20.150  -2.023  30.884  1.00  0.00     0.010 A 
ENDBRANCH   2   7
ENDBRANCH   1   2
BRANCH   1  13
HETATM   13  C4  UNK     1      18.227   0.993  33.844  1.00  0.00     0.088 A 
HETATM   14  C10 UNK     1      18.272   0.793  35.165  1.00  0.00     0.120 A 
HETATM   15  C17 UNK     1      18.346   1.903  36.129  1.00  0.00     0.290 A 
HETATM   16  O2  UNK     1      18.385   3.184  35.597  1.00  0.00    -0.275 OA
HETATM   17  O4  UNK     1      18.380   1.698  37.337  1.00  0.00    -0.260 OA
HETATM   18  C9  UNK     1      18.323   3.415  34.206  1.00  0.00     0.092 A 
HETATM   19  C15 UNK     1      18.341   4.750  33.798  1.00  0.00     0.038 A 
HETATM   20  C5  UNK     1      18.237   2.355  33.299  1.00  0.00     0.031 A 
HETATM   21  C19 UNK     1      18.268   5.045  32.441  1.00  0.00     0.003 A 
HETATM   22  C18 UNK     1      18.173   4.010  31.513  1.00  0.00     0.001 A 
HETATM   23  C11 UNK     1      18.156   2.676  31.938  1.00  0.00     0.017 A 
ENDBRANCH   1  13
TORSDOF 5
ENDMDL
MODEL 8
REMARK VINA RESULT:      -7.6      2.571      5.439
REMARK  5 active torsions:
REMARK  status: ('A' for Active; 'I' for Inactive)
REMARK    1  A    between atoms: C1_5  and  O1_1 
REMARK    2  A    between atoms: C4_8  and  O1_1 
REMARK    3  A    between atoms: C1_5  and  C2_6 
REMARK    4  A    between atoms: C1_5  and  C3_7 
REMARK    5  A    between atoms: C2_6  and  C6_10 
ROOT
HETATM    1  O1  UNK     1      17.891   0.355  32.755  1.00  0.00    -0.340 OA
ENDROOT
BRANCH   1   2
HETATM    2  C1  UNK     1      18.944   1.004  32.069  1.00  0.00     0.168 C 
BRANCH   2   3
HETATM    3  C2  UNK     1      19.067   0.439  30.649  1.00  0.00     0.115 C 
BRANCH   3   4
HETATM    4  C6  UNK     1      20.427  -0.183  30.371  1.00  0.00     0.125 C 
HETATM    5  C14 UNK     1      20.645  -0.696  28.970  1.00  0.00     0.091 C 
HETATM    6  O3  UNK     1      21.312  -0.266  31.220  1.00  0.00    -0.298 OA
ENDBRANCH   3   4
ENDBRANCH   2   3
BRANCH   2   7
HETATM    7  C3  UNK     1      18.655   2.487  32.055  1.00  0.00    -0.029 A 
HETATM    8  C7  UNK     1      18.728   3.180  30.858  1.00  0.00     0.010 A 
HETATM    9  C12 UNK     1      18.461   4.550  30.844  1.00  0.00     0.001 A 
HETATM   10  C16 UNK     1      18.126   5.206  32.028  1.00  0.00     0.000 A 
HETATM   11  C13 UNK     1      18.056   4.493  33.225  1.00  0.00     0.001 A 
HETATM   12  C8  UNK     1      18.323   3.124  33.239  1.00  0.00     0.010 A 
ENDBRANCH   2   7
ENDBRANCH   1   2
BRANCH   1  13
HETATM   13  C4  UNK     1      18.381  -0.400  33.801  1.00  0.00     0.088 A 
HETATM   14  C10 UNK     1      19.213  -1.415  33.547  1.00  0.00     0.120 A 
HETATM   15  C17 UNK     1      19.789  -2.249  34.614  1.00  0.00     0.290 A 
HETATM   16  O2  UNK     1      19.438  -1.920  35.916  1.00  0.00    -0.275 OA
HETATM   17  O4  UNK     1      20.546  -3.178  34.358  1.00  0.00    -0.260 OA
HETATM   18  C9  UNK     1      18.549  -0.863  36.202  1.00  0.00     0.092 A 
HETATM   19  C15 UNK     1      18.252  -0.650  37.550  1.00  0.00     0.038 A 
HETATM   20  C5  UNK     1      17.994  -0.086  35.181  1.00  0.00     0.031 A 
HETATM   21  C19 UNK     1      17.371   0.367  37.898  1.00  0.00     0.003 A 
HETATM   22  C18 UNK     1      16.795   1.153  36.901  1.00  0.00     0.001 A 
HETATM   23  C11 UNK     1      17.103   0.928  35.554  1.00  0.00     0.017 A 
ENDBRANCH   1  13
TORSDOF 5
ENDMDL
MODEL 9
REMARK VINA RESULT:      -7.5      2.162      4.227
REMARK  5 active torsions:
REMARK  status: ('A' for Active; 'I' for Inactive)
REMARK    1  A    between atoms: C1_5  and  O1_1 
REMARK    2  A    between atoms: C4_8  and  O1_1 
REMARK    3  A    between atoms: C1_5  and  C2_6 
REMARK    4  A    between atoms: C1_5  and  C3_7 
REMARK    5  A    between atoms: C2_6  and  C6_10 
ROOT
HETATM    1  O1  UNK     1      18.252   5.635  33.914  1.00  0.00    -0.340 OA
ENDROOT
BRANCH   1   2
HETATM    2  C1  UNK     1      17.759   6.719  33.150  1.00  0.00     0.168 C 
BRANCH   2   3
HETATM    3  C2  UNK     1      16.242   6.841  33.338  1.00  0.00     0.115 C 
BRANCH   3   4
HETATM    4  C6  UNK     1      15.513   7.225  32.059  1.00  0.00     0.125 C 
HETATM    5  C14 UNK     1      14.008   7.154  32.109  1.00  0.00     0.091 C 
HETATM    6  O3  UNK     1      16.096   7.584  31.037  1.00  0.00    -0.298 OA
ENDBRANCH   3   4
ENDBRANCH   2   3
BRANCH   2   7
HETATM    7  C3  UNK     1      18.477   7.973  33.593  1.00  0.00    -0.029 A 
HETATM    8  C7  UNK     1      19.796   7.889  34.007  1.00  0.00     0.010 A 
HETATM    9  C12 UNK     1      20.459   9.047  34.415  1.00  0.00     0.001 A 
HETATM   10  C16 UNK     1      19.791  10.272  34.405  1.00  0.00     0.000 A 
HETATM   11  C13 UNK     1      18.463  10.339  33.985  1.00  0.00     0.001 A 
HETATM   12  C8  UNK     1      17.801   9.182  33.576  1.00  0.00     0.010 A 
ENDBRANCH   2   7
ENDBRANCH   1   2
BRANCH   1  13
HETATM   13  C4  UNK     1      18.284   4.480  33.160  1.00  0.00     0.088 A 
HETATM   14  C10 UNK     1      18.333   4.564  31.827  1.00  0.00     0.120 A 
HETATM   15  C17 UNK     1      18.390   3.374  30.963  1.00  0.00     0.290 A 
HETATM   16  O2  UNK     1      18.406   2.143  31.602  1.00  0.00    -0.275 OA
HETATM   17  O4  UNK     1      18.429   3.475  29.742  1.00  0.00    -0.260 OA
HETATM   18  C9  UNK     1      18.339   2.034  33.008  1.00  0.00     0.092 A 
HETATM   19  C15 UNK     1      18.335   0.739  33.529  1.00  0.00     0.038 A 
HETATM   20  C5  UNK     1      18.270   3.170  33.820  1.00  0.00     0.031 A 
HETATM   21  C19 UNK     1      18.255   0.563  34.906  1.00  0.00     0.003 A 
HETATM   22  C18 UNK     1      18.176   1.675  35.742  1.00  0.00     0.001 A 
HETATM   23  C11 UNK     1      18.182   2.968  35.204  1.00  0.00     0.017 A 
ENDBRANCH   1  13
TORSDOF 5
ENDMDL
MODEL 10
REMARK VINA RESULT:      -7.5      1.310      6.511
REMARK  5 active torsions:
REMARK  status: ('A' for Active; 'I' for Inactive)
REMARK    1  A    between atoms: C1_5  and  O1_1 
REMARK    2  A    between atoms: C4_8  and  O1_1 
REMARK    3  A    between atoms: C1_5  and  C2_6 
REMARK    4  A    between atoms: C1_5  and  C3_7 
REMARK    5  A    between atoms: C2_6  and  C6_10 
ROOT
HETATM    1  O1  UNK     1      17.598   3.998  31.831  1.00  0.00    -0.340 OA
ENDROOT
BRANCH   1   2
HETATM    2  C1  UNK     1      18.362   2.860  32.178  1.00  0.00     0.168 C 
BRANCH   2   3
HETATM    3  C2  UNK     1      17.626   2.044  33.247  1.00  0.00     0.115 C 
BRANCH   3   4
HETATM    4  C6  UNK     1      18.532   1.597  34.385  1.00  0.00     0.125 C 
HETATM    5  C14 UNK     1      18.883   2.650  35.404  1.00  0.00     0.091 C 
HETATM    6  O3  UNK     1      18.958   0.448  34.489  1.00  0.00    -0.298 OA
ENDBRANCH   3   4
ENDBRANCH   2   3
BRANCH   2   7
HETATM    7  C3  UNK     1      18.598   2.050  30.924  1.00  0.00    -0.029 A 
HETATM    8  C7  UNK     1      19.484   0.985  30.962  1.00  0.00     0.010 A 
HETATM    9  C12 UNK     1      19.702   0.237  29.805  1.00  0.00     0.001 A 
HETATM   10  C16 UNK     1      19.032   0.566  28.626  1.00  0.00     0.000 A 
HETATM   11  C13 UNK     1      18.143   1.640  28.606  1.00  0.00     0.001 A 
HETATM   12  C8  UNK     1      17.925   2.388  29.763  1.00  0.00     0.010 A 
ENDBRANCH   2   7
ENDBRANCH   1   2
BRANCH   1  13
HETATM   13  C4  UNK     1      18.235   5.156  32.231  1.00  0.00     0.088 A 
HETATM   14  C10 UNK     1      19.568   5.175  32.325  1.00  0.00     0.120 A 
HETATM   15  C17 UNK     1      20.313   6.380  32.725  1.00  0.00     0.290 A 
HETATM   16  O2  UNK     1      19.561   7.515  32.989  1.00  0.00    -0.275 OA
HETATM   17  O4  UNK     1      21.536   6.374  32.810  1.00  0.00    -0.260 OA
HETATM   18  C9  UNK     1      18.152   7.509  32.911  1.00  0.00     0.092 A 
HETATM   19  C15 UNK     1      17.509   8.707  33.228  1.00  0.00     0.038 A 
HETATM   20  C5  UNK     1      17.452   6.356  32.544  1.00  0.00     0.031 A 
HETATM   21  C19 UNK     1      16.120   8.763  33.184  1.00  0.00     0.003 A 
HETATM   22  C18 UNK     1      15.394   7.627  32.831  1.00  0.00     0.001 A 
HETATM   23  C11 UNK     1      16.053   6.433  32.515  1.00  0.00     0.017 A 
ENDBRANCH   1  13
TORSDOF 5
ENDMDL
