MODEL 1
REMARK VINA RESULT:      -8.9      0.000      0.000
REMARK  8 active torsions:
REMARK  status: ('A' for Active; 'I' for Inactive)
REMARK    1  A    between atoms: C2_6  and  O1_1 
REMARK    2  A    between atoms: C4_8  and  O1_1 
REMARK    3  A    between atoms: C6_10  and  O2_2 
REMARK    4  A    between atoms: C23_27  and  O3_3 
REMARK    5  A    between atoms: C1_5  and  C2_6 
REMARK    6  A    between atoms: C16_20  and  C8_12 
REMARK    7  A    between atoms: C17_21  and  C19_23 
REMARK    8  A    between atoms: C18_22  and  C19_23 
ROOT
HETATM    1  C1  UNK     1      18.164   7.164  32.690  1.00  0.00     0.000 A 
HETATM    2  C6  UNK     1      19.378   7.128  33.377  1.00  0.00     0.076 A 
HETATM    3  C7  UNK     1      18.046   6.541  31.448  1.00  0.00     0.023 A 
HETATM    4  C8  UNK     1      19.142   5.879  30.893  1.00  0.00    -0.035 A 
HETATM    5  C10 UNK     1      20.474   6.466  32.821  1.00  0.00     0.038 A 
HETATM    6  C12 UNK     1      20.356   5.843  31.580  1.00  0.00     0.014 A 
ENDROOT
BRANCH   4   7
HETATM    7  C16 UNK     1      19.017   5.220  29.581  1.00  0.00     0.015 C 
HETATM    8  C17 UNK     1      18.677   3.936  29.404  1.00  0.00     0.056 C 
BRANCH   8   9
HETATM    9  C19 UNK     1      18.388   3.051  30.583  1.00  0.00     0.182 C 
HETATM   10  O4  UNK     1      17.664   3.450  31.508  1.00  0.00    -0.288 OA
BRANCH   9  11
HETATM   11  C18 UNK     1      18.950   1.709  30.601  1.00  0.00     0.014 A 
HETATM   12  C21 UNK     1      19.492   1.165  29.437  1.00  0.00     0.018 A 
HETATM   13  C24 UNK     1      20.030  -0.122  29.454  1.00  0.00     0.037 A 
HETATM   14  C23 UNK     1      20.024  -0.865  30.635  1.00  0.00     0.068 A 
HETATM   15  C25 UNK     1      19.483  -0.320  31.799  1.00  0.00     0.037 A 
HETATM   16  C22 UNK     1      18.945   0.967  31.782  1.00  0.00     0.018 A 
BRANCH  14  17
HETATM   17  O3  UNK     1      20.550  -2.121  30.650  1.00  0.00    -0.356 OA
HETATM   18  C26 UNK     1      20.836  -2.688  31.929  1.00  0.00     0.210 C 
ENDBRANCH  14  17
ENDBRANCH   9  11
ENDBRANCH   8   9
ENDBRANCH   4   7
BRANCH   1  19
HETATM   19  C2  UNK     1      16.981   7.868  33.269  1.00  0.00     0.217 C 
BRANCH  19  20
HETATM   20  O1  UNK     1      17.131   9.270  33.085  1.00  0.00    -0.346 OA
BRANCH  20  21
HETATM   21  C4  UNK     1      16.395  10.082  33.908  1.00  0.00     0.075 A 
HETATM   22  C3  UNK     1      16.907  11.300  34.356  1.00  0.00    -0.023 A 
HETATM   23  C13 UNK     1      18.276  11.730  33.933  1.00  0.00     0.052 C 
HETATM   24  C5  UNK     1      16.144  12.112  35.193  1.00  0.00    -0.053 A 
HETATM   25  C11 UNK     1      14.868  11.707  35.585  1.00  0.00     0.007 A 
HETATM   26  C15 UNK     1      16.669  13.421  35.685  1.00  0.00     0.049 C 
HETATM   27  C14 UNK     1      14.356  10.489  35.138  1.00  0.00     0.003 A 
HETATM   28  C9  UNK     1      15.119   9.676  34.299  1.00  0.00     0.037 A 
ENDBRANCH  20  21
ENDBRANCH  19  20
ENDBRANCH   1  19
BRANCH   2  29
HETATM   29  O2  UNK     1      19.510   7.733  34.590  1.00  0.00    -0.355 OA
HETATM   30  C20 UNK     1      20.232   8.962  34.625  1.00  0.00     0.210 C 
ENDBRANCH   2  29
TORSDOF 8
ENDMDL
MODEL 2
REMARK VINA RESULT:      -8.8      4.737     12.102
REMARK  8 active torsions:
REMARK  status: ('A' for Active; 'I' for Inactive)
REMARK    1  A    between atoms: C2_6  and  O1_1 
REMARK    2  A    between atoms: C4_8  and  O1_1 
REMARK    3  A    between atoms: C6_10  and  O2_2 
REMARK    4  A    between atoms: C23_27  and  O3_3 
REMARK    5  A    between atoms: C1_5  and  C2_6 
REMARK    6  A    between atoms: C16_20  and  C8_12 
REMARK    7  A    between atoms: C17_21  and  C19_23 
REMARK    8  A    between atoms: C18_22  and  C19_23 
ROOT
HETATM    1  C1  UNK     1      19.793  -2.393  35.137  1.00  0.00     0.000 A 
HETATM    2  C6  UNK     1      20.110  -2.408  33.778  1.00  0.00     0.076 A 
HETATM    3  C7  UNK     1      18.773  -1.569  35.607  1.00  0.00     0.023 A 
HETATM    4  C8  UNK     1      18.066  -0.757  34.718  1.00  0.00    -0.035 A 
HETATM    5  C10 UNK     1      19.404  -1.596  32.890  1.00  0.00     0.038 A 
HETATM    6  C12 UNK     1      18.383  -0.771  33.359  1.00  0.00     0.014 A 
ENDROOT
BRANCH   4   7
HETATM    7  C16 UNK     1      16.988   0.114  35.215  1.00  0.00     0.015 C 
HETATM    8  C17 UNK     1      17.092   1.442  35.368  1.00  0.00     0.056 C 
BRANCH   8   9
HETATM    9  C19 UNK     1      18.371   2.153  35.027  1.00  0.00     0.182 C 
HETATM   10  O4  UNK     1      19.399   1.956  35.694  1.00  0.00    -0.288 OA
BRANCH   9  11
HETATM   11  C18 UNK     1      18.385   3.051  33.882  1.00  0.00     0.014 A 
HETATM   12  C21 UNK     1      18.260   2.537  32.592  1.00  0.00     0.018 A 
HETATM   13  C24 UNK     1      18.274   3.397  31.494  1.00  0.00     0.037 A 
HETATM   14  C23 UNK     1      18.414   4.771  31.687  1.00  0.00     0.068 A 
HETATM   15  C25 UNK     1      18.538   5.285  32.978  1.00  0.00     0.037 A 
HETATM   16  C22 UNK     1      18.524   4.425  34.075  1.00  0.00     0.018 A 
BRANCH  14  17
HETATM   17  O3  UNK     1      18.427   5.611  30.615  1.00  0.00    -0.356 OA
HETATM   18  C26 UNK     1      19.703   5.955  30.077  1.00  0.00     0.210 C 
ENDBRANCH  14  17
ENDBRANCH   9  11
ENDBRANCH   8   9
ENDBRANCH   4   7
BRANCH   1  19
HETATM   19  C2  UNK     1      20.539  -3.255  36.103  1.00  0.00     0.217 C 
BRANCH  19  20
HETATM   20  O1  UNK     1      19.665  -4.254  36.614  1.00  0.00    -0.346 OA
BRANCH  20  21
HETATM   21  C4  UNK     1      20.236  -5.242  37.374  1.00  0.00     0.075 A 
HETATM   22  C3  UNK     1      19.551  -6.429  37.633  1.00  0.00    -0.023 A 
HETATM   23  C13 UNK     1      18.179  -6.632  37.076  1.00  0.00     0.052 C 
HETATM   24  C5  UNK     1      20.148  -7.423  38.409  1.00  0.00    -0.053 A 
HETATM   25  C11 UNK     1      21.429  -7.230  38.926  1.00  0.00     0.007 A 
HETATM   26  C15 UNK     1      19.436  -8.704  38.700  1.00  0.00     0.049 C 
HETATM   27  C14 UNK     1      22.113  -6.042  38.667  1.00  0.00     0.003 A 
HETATM   28  C9  UNK     1      21.517  -5.048  37.890  1.00  0.00     0.037 A 
ENDBRANCH  20  21
ENDBRANCH  19  20
ENDBRANCH   1  19
BRANCH   2  29
HETATM   29  O2  UNK     1      21.105  -3.207  33.303  1.00  0.00    -0.355 OA
HETATM   30  C20 UNK     1      21.136  -3.435  31.895  1.00  0.00     0.210 C 
ENDBRANCH   2  29
TORSDOF 8
ENDMDL
MODEL 3
REMARK VINA RESULT:      -8.8      3.178      9.649
REMARK  8 active torsions:
REMARK  status: ('A' for Active; 'I' for Inactive)
REMARK    1  A    between atoms: C2_6  and  O1_1 
REMARK    2  A    between atoms: C4_8  and  O1_1 
REMARK    3  A    between atoms: C6_10  and  O2_2 
REMARK    4  A    between atoms: C23_27  and  O3_3 
REMARK    5  A    between atoms: C1_5  and  C2_6 
REMARK    6  A    between atoms: C16_20  and  C8_12 
REMARK    7  A    between atoms: C17_21  and  C19_23 
REMARK    8  A    between atoms: C18_22  and  C19_23 
ROOT
HETATM    1  C1  UNK     1      18.194   3.532  33.052  1.00  0.00     0.000 A 
HETATM    2  C6  UNK     1      18.071   3.754  31.680  1.00  0.00     0.076 A 
HETATM    3  C7  UNK     1      18.602   4.567  33.893  1.00  0.00     0.023 A 
HETATM    4  C8  UNK     1      18.888   5.825  33.362  1.00  0.00    -0.035 A 
HETATM    5  C10 UNK     1      18.358   5.012  31.149  1.00  0.00     0.038 A 
HETATM    6  C12 UNK     1      18.766   6.047  31.990  1.00  0.00     0.014 A 
ENDROOT
BRANCH   4   7
HETATM    7  C16 UNK     1      19.320   6.918  34.250  1.00  0.00     0.015 C 
HETATM    8  C17 UNK     1      18.488   7.730  34.918  1.00  0.00     0.056 C 
BRANCH   8   9
HETATM    9  C19 UNK     1      16.999   7.567  34.797  1.00  0.00     0.182 C 
HETATM   10  O4  UNK     1      16.453   6.504  35.130  1.00  0.00    -0.288 OA
BRANCH   9  11
HETATM   11  C18 UNK     1      16.212   8.691  34.312  1.00  0.00     0.014 A 
HETATM   12  C21 UNK     1      14.890   8.497  33.917  1.00  0.00     0.018 A 
HETATM   13  C24 UNK     1      14.136   9.575  33.451  1.00  0.00     0.037 A 
HETATM   14  C23 UNK     1      14.706  10.846  33.381  1.00  0.00     0.068 A 
HETATM   15  C25 UNK     1      16.029  11.040  33.777  1.00  0.00     0.037 A 
HETATM   16  C22 UNK     1      16.783   9.962  34.243  1.00  0.00     0.018 A 
BRANCH  14  17
HETATM   17  O3  UNK     1      13.969  11.897  32.927  1.00  0.00    -0.356 OA
HETATM   18  C26 UNK     1      12.573  11.675  32.732  1.00  0.00     0.210 C 
ENDBRANCH  14  17
ENDBRANCH   9  11
ENDBRANCH   8   9
ENDBRANCH   4   7
BRANCH   1  19
HETATM   19  C2  UNK     1      17.892   2.192  33.638  1.00  0.00     0.217 C 
BRANCH  19  20
HETATM   20  O1  UNK     1      18.902   1.851  34.579  1.00  0.00    -0.346 OA
BRANCH  20  21
HETATM   21  C4  UNK     1      18.502   1.152  35.688  1.00  0.00     0.075 A 
HETATM   22  C3  UNK     1      18.497  -0.244  35.689  1.00  0.00    -0.023 A 
HETATM   23  C13 UNK     1      18.936  -0.989  34.470  1.00  0.00     0.052 C 
HETATM   24  C5  UNK     1      18.085  -0.938  36.827  1.00  0.00    -0.053 A 
HETATM   25  C11 UNK     1      17.677  -0.238  37.962  1.00  0.00     0.007 A 
HETATM   26  C15 UNK     1      18.073  -2.432  36.855  1.00  0.00     0.049 C 
HETATM   27  C14 UNK     1      17.681   1.157  37.960  1.00  0.00     0.003 A 
HETATM   28  C9  UNK     1      18.094   1.852  36.822  1.00  0.00     0.037 A 
ENDBRANCH  20  21
ENDBRANCH  19  20
ENDBRANCH   1  19
BRANCH   2  29
HETATM   29  O2  UNK     1      17.674   2.754  30.845  1.00  0.00    -0.355 OA
HETATM   30  C20 UNK     1      18.461   2.536  29.675  1.00  0.00     0.210 C 
ENDBRANCH   2  29
TORSDOF 8
ENDMDL
MODEL 4
REMARK VINA RESULT:      -8.8     16.268     19.216
REMARK  8 active torsions:
REMARK  status: ('A' for Active; 'I' for Inactive)
REMARK    1  A    between atoms: C2_6  and  O1_1 
REMARK    2  A    between atoms: C4_8  and  O1_1 
REMARK    3  A    between atoms: C6_10  and  O2_2 
REMARK    4  A    between atoms: C23_27  and  O3_3 
REMARK    5  A    between atoms: C1_5  and  C2_6 
REMARK    6  A    between atoms: C16_20  and  C8_12 
REMARK    7  A    between atoms: C17_21  and  C19_23 
REMARK    8  A    between atoms: C18_22  and  C19_23 
ROOT
HETATM    1  C1  UNK     1      30.047  -6.786  33.785  1.00  0.00     0.000 A 
HETATM    2  C6  UNK     1      30.355  -8.137  33.946  1.00  0.00     0.076 A 
HETATM    3  C7  UNK     1      31.016  -5.815  34.030  1.00  0.00     0.023 A 
HETATM    4  C8  UNK     1      32.296  -6.193  34.436  1.00  0.00    -0.035 A 
HETATM    5  C10 UNK     1      31.635  -8.516  34.353  1.00  0.00     0.038 A 
HETATM    6  C12 UNK     1      32.605  -7.544  34.598  1.00  0.00     0.014 A 
ENDROOT
BRANCH   4   7
HETATM    7  C16 UNK     1      33.320  -5.167  34.696  1.00  0.00     0.015 C 
HETATM    8  C17 UNK     1      33.814  -4.874  35.907  1.00  0.00     0.056 C 
BRANCH   8   9
HETATM    9  C19 UNK     1      33.333  -5.608  37.127  1.00  0.00     0.182 C 
HETATM   10  O4  UNK     1      34.091  -6.374  37.741  1.00  0.00    -0.288 OA
BRANCH   9  11
HETATM   11  C18 UNK     1      31.973  -5.374  37.589  1.00  0.00     0.014 A 
HETATM   12  C21 UNK     1      31.256  -6.405  38.195  1.00  0.00     0.018 A 
HETATM   13  C24 UNK     1      29.952  -6.181  38.637  1.00  0.00     0.037 A 
HETATM   14  C23 UNK     1      29.365  -4.927  38.471  1.00  0.00     0.068 A 
HETATM   15  C25 UNK     1      30.083  -3.896  37.865  1.00  0.00     0.037 A 
HETATM   16  C22 UNK     1      31.387  -4.120  37.424  1.00  0.00     0.018 A 
BRANCH  14  17
HETATM   17  O3  UNK     1      28.092  -4.710  38.903  1.00  0.00    -0.356 OA
HETATM   18  C26 UNK     1      27.120  -5.703  38.580  1.00  0.00     0.210 C 
ENDBRANCH  14  17
ENDBRANCH   9  11
ENDBRANCH   8   9
ENDBRANCH   4   7
BRANCH   1  19
HETATM   19  C2  UNK     1      28.681  -6.363  33.351  1.00  0.00     0.217 C 
BRANCH  19  20
HETATM   20  O1  UNK     1      28.725  -5.959  31.988  1.00  0.00    -0.346 OA
BRANCH  20  21
HETATM   21  C4  UNK     1      28.669  -6.954  31.048  1.00  0.00     0.075 A 
HETATM   22  C3  UNK     1      29.751  -7.202  30.203  1.00  0.00    -0.023 A 
HETATM   23  C13 UNK     1      30.991  -6.375  30.324  1.00  0.00     0.052 C 
HETATM   24  C5  UNK     1      29.675  -8.219  29.252  1.00  0.00    -0.053 A 
HETATM   25  C11 UNK     1      28.517  -8.988  29.144  1.00  0.00     0.007 A 
HETATM   26  C15 UNK     1      30.821  -8.505  28.337  1.00  0.00     0.049 C 
HETATM   27  C14 UNK     1      27.434  -8.740  29.988  1.00  0.00     0.003 A 
HETATM   28  C9  UNK     1      27.510  -7.723  30.941  1.00  0.00     0.037 A 
ENDBRANCH  20  21
ENDBRANCH  19  20
ENDBRANCH   1  19
BRANCH   2  29
HETATM   29  O2  UNK     1      29.420  -9.099  33.712  1.00  0.00    -0.355 OA
HETATM   30  C20 UNK     1      29.738 -10.089  32.735  1.00  0.00     0.210 C 
ENDBRANCH   2  29
TORSDOF 8
ENDMDL
MODEL 5
REMARK VINA RESULT:      -8.8     16.641     19.712
REMARK  8 active torsions:
REMARK  status: ('A' for Active; 'I' for Inactive)
REMARK    1  A    between atoms: C2_6  and  O1_1 
REMARK    2  A    between atoms: C4_8  and  O1_1 
REMARK    3  A    between atoms: C6_10  and  O2_2 
REMARK    4  A    between atoms: C23_27  and  O3_3 
REMARK    5  A    between atoms: C1_5  and  C2_6 
REMARK    6  A    between atoms: C16_20  and  C8_12 
REMARK    7  A    between atoms: C17_21  and  C19_23 
REMARK    8  A    between atoms: C18_22  and  C19_23 
ROOT
HETATM    1  C1  UNK     1      33.094  -6.959  34.011  1.00  0.00     0.000 A 
HETATM    2  C6  UNK     1      33.817  -5.884  34.529  1.00  0.00     0.076 A 
HETATM    3  C7  UNK     1      33.715  -7.873  33.162  1.00  0.00     0.023 A 
HETATM    4  C8  UNK     1      35.061  -7.715  32.831  1.00  0.00    -0.035 A 
HETATM    5  C10 UNK     1      35.163  -5.725  34.197  1.00  0.00     0.038 A 
HETATM    6  C12 UNK     1      35.785  -6.639  33.348  1.00  0.00     0.014 A 
ENDROOT
BRANCH   4   7
HETATM    7  C16 UNK     1      35.718  -8.681  31.933  1.00  0.00     0.015 C 
HETATM    8  C17 UNK     1      35.632  -8.657  30.595  1.00  0.00     0.056 C 
BRANCH   8   9
HETATM    9  C19 UNK     1      34.826  -7.596  29.900  1.00  0.00     0.182 C 
HETATM   10  O4  UNK     1      35.334  -6.498  29.624  1.00  0.00    -0.288 OA
BRANCH   9  11
HETATM   11  C18 UNK     1      33.451  -7.897  29.529  1.00  0.00     0.014 A 
HETATM   12  C21 UNK     1      33.013  -9.220  29.491  1.00  0.00     0.018 A 
HETATM   13  C24 UNK     1      31.696  -9.509  29.135  1.00  0.00     0.037 A 
HETATM   14  C23 UNK     1      30.817  -8.474  28.817  1.00  0.00     0.068 A 
HETATM   15  C25 UNK     1      31.255  -7.150  28.856  1.00  0.00     0.037 A 
HETATM   16  C22 UNK     1      32.573  -6.862  29.212  1.00  0.00     0.018 A 
BRANCH  14  17
HETATM   17  O3  UNK     1      29.531  -8.756  28.470  1.00  0.00    -0.356 OA
HETATM   18  C26 UNK     1      29.150 -10.131  28.456  1.00  0.00     0.210 C 
ENDBRANCH  14  17
ENDBRANCH   9  11
ENDBRANCH   8   9
ENDBRANCH   4   7
BRANCH   1  19
HETATM   19  C2  UNK     1      31.652  -7.144  34.355  1.00  0.00     0.217 C 
BRANCH  19  20
HETATM   20  O1  UNK     1      31.008  -7.863  33.310  1.00  0.00    -0.346 OA
BRANCH  20  21
HETATM   21  C4  UNK     1      30.155  -7.152  32.507  1.00  0.00     0.075 A 
HETATM   22  C3  UNK     1      29.053  -7.767  31.913  1.00  0.00    -0.023 A 
HETATM   23  C13 UNK     1      28.793  -9.220  32.155  1.00  0.00     0.052 C 
HETATM   24  C5  UNK     1      28.197  -7.027  31.098  1.00  0.00    -0.053 A 
HETATM   25  C11 UNK     1      28.444  -5.672  30.875  1.00  0.00     0.007 A 
HETATM   26  C15 UNK     1      27.009  -7.661  30.451  1.00  0.00     0.049 C 
HETATM   27  C14 UNK     1      29.546  -5.058  31.469  1.00  0.00     0.003 A 
HETATM   28  C9  UNK     1      30.402  -5.797  32.285  1.00  0.00     0.037 A 
ENDBRANCH  20  21
ENDBRANCH  19  20
ENDBRANCH   1  19
BRANCH   2  29
HETATM   29  O2  UNK     1      33.224  -4.981  35.359  1.00  0.00    -0.355 OA
HETATM   30  C20 UNK     1      33.768  -3.662  35.376  1.00  0.00     0.210 C 
ENDBRANCH   2  29
TORSDOF 8
ENDMDL
MODEL 6
REMARK VINA RESULT:      -8.8     16.692     19.086
REMARK  8 active torsions:
REMARK  status: ('A' for Active; 'I' for Inactive)
REMARK    1  A    between atoms: C2_6  and  O1_1 
REMARK    2  A    between atoms: C4_8  and  O1_1 
REMARK    3  A    between atoms: C6_10  and  O2_2 
REMARK    4  A    between atoms: C23_27  and  O3_3 
REMARK    5  A    between atoms: C1_5  and  C2_6 
REMARK    6  A    between atoms: C16_20  and  C8_12 
REMARK    7  A    between atoms: C17_21  and  C19_23 
REMARK    8  A    between atoms: C18_22  and  C19_23 
ROOT
HETATM    1  C1  UNK     1      31.742  -5.483  35.813  1.00  0.00     0.000 A 
HETATM    2  C6  UNK     1      32.951  -5.377  36.502  1.00  0.00     0.076 A 
HETATM    3  C7  UNK     1      30.600  -5.937  36.471  1.00  0.00     0.023 A 
HETATM    4  C8  UNK     1      30.666  -6.286  37.821  1.00  0.00    -0.035 A 
HETATM    5  C10 UNK     1      33.016  -5.727  37.851  1.00  0.00     0.038 A 
HETATM    6  C12 UNK     1      31.875  -6.182  38.510  1.00  0.00     0.014 A 
ENDROOT
BRANCH   4   7
HETATM    7  C16 UNK     1      29.460  -6.766  38.517  1.00  0.00     0.015 C 
HETATM    8  C17 UNK     1      29.067  -8.047  38.563  1.00  0.00     0.056 C 
BRANCH   8   9
HETATM    9  C19 UNK     1      29.868  -9.118  37.877  1.00  0.00     0.182 C 
HETATM   10  O4  UNK     1      30.673  -9.810  38.519  1.00  0.00    -0.288 OA
BRANCH   9  11
HETATM   11  C18 UNK     1      29.655  -9.344  36.456  1.00  0.00     0.014 A 
HETATM   12  C21 UNK     1      28.364  -9.310  35.930  1.00  0.00     0.018 A 
HETATM   13  C24 UNK     1      28.160  -9.528  34.567  1.00  0.00     0.037 A 
HETATM   14  C23 UNK     1      29.247  -9.780  33.731  1.00  0.00     0.068 A 
HETATM   15  C25 UNK     1      30.539  -9.813  34.257  1.00  0.00     0.037 A 
HETATM   16  C22 UNK     1      30.743  -9.595  35.620  1.00  0.00     0.018 A 
BRANCH  14  17
HETATM   17  O3  UNK     1      29.048  -9.992  32.401  1.00  0.00    -0.356 OA
HETATM   18  C26 UNK     1      30.095 -10.646  31.684  1.00  0.00     0.210 C 
ENDBRANCH  14  17
ENDBRANCH   9  11
ENDBRANCH   8   9
ENDBRANCH   4   7
BRANCH   1  19
HETATM   19  C2  UNK     1      31.653  -5.113  34.368  1.00  0.00     0.217 C 
BRANCH  19  20
HETATM   20  O1  UNK     1      31.570  -6.297  33.584  1.00  0.00    -0.346 OA
BRANCH  20  21
HETATM   21  C4  UNK     1      30.473  -6.423  32.772  1.00  0.00     0.075 A 
HETATM   22  C3  UNK     1      30.599  -6.912  31.472  1.00  0.00    -0.023 A 
HETATM   23  C13 UNK     1      31.945  -7.307  30.954  1.00  0.00     0.052 C 
HETATM   24  C5  UNK     1      29.471  -7.032  30.660  1.00  0.00    -0.053 A 
HETATM   25  C11 UNK     1      28.217  -6.664  31.149  1.00  0.00     0.007 A 
HETATM   26  C15 UNK     1      29.578  -7.555  29.265  1.00  0.00     0.049 C 
HETATM   27  C14 UNK     1      28.092  -6.174  32.449  1.00  0.00     0.003 A 
HETATM   28  C9  UNK     1      29.220  -6.054  33.261  1.00  0.00     0.037 A 
ENDBRANCH  20  21
ENDBRANCH  19  20
ENDBRANCH   1  19
BRANCH   2  29
HETATM   29  O2  UNK     1      34.075  -4.937  35.873  1.00  0.00    -0.355 OA
HETATM   30  C20 UNK     1      35.304  -5.574  36.220  1.00  0.00     0.210 C 
ENDBRANCH   2  29
TORSDOF 8
ENDMDL
MODEL 7
REMARK VINA RESULT:      -8.7     16.197     19.226
REMARK  8 active torsions:
REMARK  status: ('A' for Active; 'I' for Inactive)
REMARK    1  A    between atoms: C2_6  and  O1_1 
REMARK    2  A    between atoms: C4_8  and  O1_1 
REMARK    3  A    between atoms: C6_10  and  O2_2 
REMARK    4  A    between atoms: C23_27  and  O3_3 
REMARK    5  A    between atoms: C1_5  and  C2_6 
REMARK    6  A    between atoms: C16_20  and  C8_12 
REMARK    7  A    between atoms: C17_21  and  C19_23 
REMARK    8  A    between atoms: C18_22  and  C19_23 
ROOT
HETATM    1  C1  UNK     1      32.343  -6.459  33.800  1.00  0.00     0.000 A 
HETATM    2  C6  UNK     1      33.734  -6.346  33.775  1.00  0.00     0.076 A 
HETATM    3  C7  UNK     1      31.589  -5.617  34.615  1.00  0.00     0.023 A 
HETATM    4  C8  UNK     1      32.224  -4.660  35.407  1.00  0.00    -0.035 A 
HETATM    5  C10 UNK     1      34.369  -5.389  34.567  1.00  0.00     0.038 A 
HETATM    6  C12 UNK     1      33.614  -4.546  35.383  1.00  0.00     0.014 A 
ENDROOT
BRANCH   4   7
HETATM    7  C16 UNK     1      31.427  -3.770  36.269  1.00  0.00     0.015 C 
HETATM    8  C17 UNK     1      31.129  -4.020  37.552  1.00  0.00     0.056 C 
BRANCH   8   9
HETATM    9  C19 UNK     1      31.611  -5.278  38.218  1.00  0.00     0.182 C 
HETATM   10  O4  UNK     1      32.747  -5.331  38.714  1.00  0.00    -0.288 OA
BRANCH   9  11
HETATM   11  C18 UNK     1      30.708  -6.416  38.295  1.00  0.00     0.014 A 
HETATM   12  C21 UNK     1      29.425  -6.253  38.816  1.00  0.00     0.018 A 
HETATM   13  C24 UNK     1      28.559  -7.344  38.891  1.00  0.00     0.037 A 
HETATM   14  C23 UNK     1      28.977  -8.598  38.446  1.00  0.00     0.068 A 
HETATM   15  C25 UNK     1      30.260  -8.760  37.923  1.00  0.00     0.037 A 
HETATM   16  C22 UNK     1      31.126  -7.669  37.849  1.00  0.00     0.018 A 
BRANCH  14  17
HETATM   17  O3  UNK     1      28.131  -9.662  38.518  1.00  0.00    -0.356 OA
HETATM   18  C26 UNK     1      27.431  -9.851  39.747  1.00  0.00     0.210 C 
ENDBRANCH  14  17
ENDBRANCH   9  11
ENDBRANCH   8   9
ENDBRANCH   4   7
BRANCH   1  19
HETATM   19  C2  UNK     1      31.646  -7.479  32.959  1.00  0.00     0.217 C 
BRANCH  19  20
HETATM   20  O1  UNK     1      30.245  -7.403  33.192  1.00  0.00    -0.346 OA
BRANCH  20  21
HETATM   21  C4  UNK     1      29.428  -7.809  32.170  1.00  0.00     0.075 A 
HETATM   22  C3  UNK     1      28.269  -7.097  31.856  1.00  0.00    -0.023 A 
HETATM   23  C13 UNK     1      27.913  -5.874  32.640  1.00  0.00     0.052 C 
HETATM   24  C5  UNK     1      27.449  -7.526  30.813  1.00  0.00    -0.053 A 
HETATM   25  C11 UNK     1      27.786  -8.667  30.084  1.00  0.00     0.007 A 
HETATM   26  C15 UNK     1      26.204  -6.781  30.456  1.00  0.00     0.049 C 
HETATM   27  C14 UNK     1      28.944  -9.378  30.399  1.00  0.00     0.003 A 
HETATM   28  C9  UNK     1      29.765  -8.949  31.442  1.00  0.00     0.037 A 
ENDBRANCH  20  21
ENDBRANCH  19  20
ENDBRANCH   1  19
BRANCH   2  29
HETATM   29  O2  UNK     1      34.485  -7.161  32.985  1.00  0.00    -0.355 OA
HETATM   30  C20 UNK     1      35.600  -6.571  32.319  1.00  0.00     0.210 C 
ENDBRANCH   2  29
TORSDOF 8
ENDMDL
MODEL 8
REMARK VINA RESULT:      -8.7      3.097      8.681
REMARK  8 active torsions:
REMARK  status: ('A' for Active; 'I' for Inactive)
REMARK    1  A    between atoms: C2_6  and  O1_1 
REMARK    2  A    between atoms: C4_8  and  O1_1 
REMARK    3  A    between atoms: C6_10  and  O2_2 
REMARK    4  A    between atoms: C23_27  and  O3_3 
REMARK    5  A    between atoms: C1_5  and  C2_6 
REMARK    6  A    between atoms: C16_20  and  C8_12 
REMARK    7  A    between atoms: C17_21  and  C19_23 
REMARK    8  A    between atoms: C18_22  and  C19_23 
ROOT
HETATM    1  C1  UNK     1      18.375   2.189  32.143  1.00  0.00     0.000 A 
HETATM    2  C6  UNK     1      18.806   1.025  31.505  1.00  0.00     0.076 A 
HETATM    3  C7  UNK     1      18.328   3.393  31.442  1.00  0.00     0.023 A 
HETATM    4  C8  UNK     1      18.710   3.435  30.100  1.00  0.00    -0.035 A 
HETATM    5  C10 UNK     1      19.189   1.068  30.164  1.00  0.00     0.038 A 
HETATM    6  C12 UNK     1      19.142   2.271  29.462  1.00  0.00     0.014 A 
ENDROOT
BRANCH   4   7
HETATM    7  C16 UNK     1      18.661   4.707  29.359  1.00  0.00     0.015 C 
HETATM    8  C17 UNK     1      19.130   5.875  29.820  1.00  0.00     0.056 C 
BRANCH   8   9
HETATM    9  C19 UNK     1      19.763   5.962  31.180  1.00  0.00     0.182 C 
HETATM   10  O4  UNK     1      20.913   5.535  31.368  1.00  0.00    -0.288 OA
BRANCH   9  11
HETATM   11  C18 UNK     1      19.012   6.584  32.260  1.00  0.00     0.014 A 
HETATM   12  C21 UNK     1      17.693   6.984  32.051  1.00  0.00     0.018 A 
HETATM   13  C24 UNK     1      16.973   7.581  33.086  1.00  0.00     0.037 A 
HETATM   14  C23 UNK     1      17.573   7.778  34.330  1.00  0.00     0.068 A 
HETATM   15  C25 UNK     1      18.893   7.377  34.539  1.00  0.00     0.037 A 
HETATM   16  C22 UNK     1      19.613   6.780  33.504  1.00  0.00     0.018 A 
BRANCH  14  17
HETATM   17  O3  UNK     1      16.870   8.361  35.340  1.00  0.00    -0.356 OA
HETATM   18  C26 UNK     1      15.887   9.328  34.971  1.00  0.00     0.210 C 
ENDBRANCH  14  17
ENDBRANCH   9  11
ENDBRANCH   8   9
ENDBRANCH   4   7
BRANCH   1  19
HETATM   19  C2  UNK     1      17.962   2.163  33.578  1.00  0.00     0.217 C 
BRANCH  19  20
HETATM   20  O1  UNK     1      18.823   1.292  34.300  1.00  0.00    -0.346 OA
BRANCH  20  21
HETATM   21  C4  UNK     1      18.442   0.965  35.576  1.00  0.00     0.075 A 
HETATM   22  C3  UNK     1      18.625  -0.327  36.068  1.00  0.00    -0.023 A 
HETATM   23  C13 UNK     1      19.248  -1.372  35.197  1.00  0.00     0.052 C 
HETATM   24  C5  UNK     1      18.230  -0.641  37.367  1.00  0.00    -0.053 A 
HETATM   25  C11 UNK     1      17.650   0.337  38.176  1.00  0.00     0.007 A 
HETATM   26  C15 UNK     1      18.417  -2.017  37.919  1.00  0.00     0.049 C 
HETATM   27  C14 UNK     1      17.466   1.629  37.683  1.00  0.00     0.003 A 
HETATM   28  C9  UNK     1      17.862   1.944  36.383  1.00  0.00     0.037 A 
ENDBRANCH  20  21
ENDBRANCH  19  20
ENDBRANCH   1  19
BRANCH   2  29
HETATM   29  O2  UNK     1      18.859  -0.158  32.176  1.00  0.00    -0.355 OA
HETATM   30  C20 UNK     1      19.641  -1.199  31.592  1.00  0.00     0.210 C 
ENDBRANCH   2  29
TORSDOF 8
ENDMDL
MODEL 9
REMARK VINA RESULT:      -8.7      1.779      9.851
REMARK  8 active torsions:
REMARK  status: ('A' for Active; 'I' for Inactive)
REMARK    1  A    between atoms: C2_6  and  O1_1 
REMARK    2  A    between atoms: C4_8  and  O1_1 
REMARK    3  A    between atoms: C6_10  and  O2_2 
REMARK    4  A    between atoms: C23_27  and  O3_3 
REMARK    5  A    between atoms: C1_5  and  C2_6 
REMARK    6  A    between atoms: C16_20  and  C8_12 
REMARK    7  A    between atoms: C17_21  and  C19_23 
REMARK    8  A    between atoms: C18_22  and  C19_23 
ROOT
HETATM    1  C1  UNK     1      18.861   5.272  31.793  1.00  0.00     0.000 A 
HETATM    2  C6  UNK     1      20.065   5.949  31.995  1.00  0.00     0.076 A 
HETATM    3  C7  UNK     1      17.777   5.510  32.636  1.00  0.00     0.023 A 
HETATM    4  C8  UNK     1      17.894   6.426  33.682  1.00  0.00    -0.035 A 
HETATM    5  C10 UNK     1      20.182   6.864  33.042  1.00  0.00     0.038 A 
HETATM    6  C12 UNK     1      19.097   7.102  33.885  1.00  0.00     0.014 A 
ENDROOT
BRANCH   4   7
HETATM    7  C16 UNK     1      16.748   6.677  34.573  1.00  0.00     0.015 C 
HETATM    8  C17 UNK     1      15.917   7.724  34.468  1.00  0.00     0.056 C 
BRANCH   8   9
HETATM    9  C19 UNK     1      16.113   8.750  33.388  1.00  0.00     0.182 C 
HETATM   10  O4  UNK     1      15.742   8.520  32.226  1.00  0.00    -0.288 OA
BRANCH   9  11
HETATM   11  C18 UNK     1      16.716  10.026  33.740  1.00  0.00     0.014 A 
HETATM   12  C21 UNK     1      15.906  11.123  34.032  1.00  0.00     0.018 A 
HETATM   13  C24 UNK     1      16.484  12.347  34.370  1.00  0.00     0.037 A 
HETATM   14  C23 UNK     1      17.872  12.474  34.414  1.00  0.00     0.068 A 
HETATM   15  C25 UNK     1      18.682  11.376  34.123  1.00  0.00     0.037 A 
HETATM   16  C22 UNK     1      18.104  10.152  33.786  1.00  0.00     0.018 A 
BRANCH  14  17
HETATM   17  O3  UNK     1      18.436  13.668  34.744  1.00  0.00    -0.356 OA
HETATM   18  C26 UNK     1      18.509  14.656  33.717  1.00  0.00     0.210 C 
ENDBRANCH  14  17
ENDBRANCH   9  11
ENDBRANCH   8   9
ENDBRANCH   4   7
BRANCH   1  19
HETATM   19  C2  UNK     1      18.718   4.288  30.679  1.00  0.00     0.217 C 
BRANCH  19  20
HETATM   20  O1  UNK     1      18.098   3.106  31.171  1.00  0.00    -0.346 OA
BRANCH  20  21
HETATM   21  C4  UNK     1      18.683   1.915  30.828  1.00  0.00     0.075 A 
HETATM   22  C3  UNK     1      18.857   0.906  31.776  1.00  0.00    -0.023 A 
HETATM   23  C13 UNK     1      18.399   1.121  33.183  1.00  0.00     0.052 C 
HETATM   24  C5  UNK     1      19.454  -0.300  31.408  1.00  0.00    -0.053 A 
HETATM   25  C11 UNK     1      19.879  -0.496  30.094  1.00  0.00     0.007 A 
HETATM   26  C15 UNK     1      19.650  -1.397  32.404  1.00  0.00     0.049 C 
HETATM   27  C14 UNK     1      19.705   0.513  29.148  1.00  0.00     0.003 A 
HETATM   28  C9  UNK     1      19.107   1.719  29.514  1.00  0.00     0.037 A 
ENDBRANCH  20  21
ENDBRANCH  19  20
ENDBRANCH   1  19
BRANCH   2  29
HETATM   29  O2  UNK     1      21.134   5.727  31.182  1.00  0.00    -0.355 OA
HETATM   30  C20 UNK     1      22.424   5.740  31.790  1.00  0.00     0.210 C 
ENDBRANCH   2  29
TORSDOF 8
ENDMDL
MODEL 10
REMARK VINA RESULT:      -8.7     16.354     19.451
REMARK  8 active torsions:
REMARK  status: ('A' for Active; 'I' for Inactive)
REMARK    1  A    between atoms: C2_6  and  O1_1 
REMARK    2  A    between atoms: C4_8  and  O1_1 
REMARK    3  A    between atoms: C6_10  and  O2_2 
REMARK    4  A    between atoms: C23_27  and  O3_3 
REMARK    5  A    between atoms: C1_5  and  C2_6 
REMARK    6  A    between atoms: C16_20  and  C8_12 
REMARK    7  A    between atoms: C17_21  and  C19_23 
REMARK    8  A    between atoms: C18_22  and  C19_23 
ROOT
HETATM    1  C1  UNK     1      30.200 -10.386  32.865  1.00  0.00     0.000 A 
HETATM    2  C6  UNK     1      31.518 -10.475  33.313  1.00  0.00     0.076 A 
HETATM    3  C7  UNK     1      29.198  -9.942  33.727  1.00  0.00     0.023 A 
HETATM    4  C8  UNK     1      29.513  -9.587  35.039  1.00  0.00    -0.035 A 
HETATM    5  C10 UNK     1      31.833 -10.120  34.626  1.00  0.00     0.038 A 
HETATM    6  C12 UNK     1      30.831  -9.677  35.488  1.00  0.00     0.014 A 
ENDROOT
BRANCH   4   7
HETATM    7  C16 UNK     1      28.455  -9.119  35.950  1.00  0.00     0.015 C 
HETATM    8  C17 UNK     1      27.952  -7.876  35.959  1.00  0.00     0.056 C 
BRANCH   8   9
HETATM    9  C19 UNK     1      28.459  -6.840  34.996  1.00  0.00     0.182 C 
HETATM   10  O4  UNK     1      27.798  -6.537  33.991  1.00  0.00    -0.288 OA
BRANCH   9  11
HETATM   11  C18 UNK     1      29.723  -6.179  35.286  1.00  0.00     0.014 A 
HETATM   12  C21 UNK     1      30.681  -6.037  34.283  1.00  0.00     0.018 A 
HETATM   13  C24 UNK     1      31.893  -5.404  34.561  1.00  0.00     0.037 A 
HETATM   14  C23 UNK     1      32.146  -4.916  35.843  1.00  0.00     0.068 A 
HETATM   15  C25 UNK     1      31.187  -5.057  36.845  1.00  0.00     0.037 A 
HETATM   16  C22 UNK     1      29.975  -5.690  36.567  1.00  0.00     0.018 A 
BRANCH  14  17
HETATM   17  O3  UNK     1      33.329  -4.298  36.113  1.00  0.00    -0.356 OA
HETATM   18  C26 UNK     1      34.203  -4.060  35.010  1.00  0.00     0.210 C 
ENDBRANCH  14  17
ENDBRANCH   9  11
ENDBRANCH   8   9
ENDBRANCH   4   7
BRANCH   1  19
HETATM   19  C2  UNK     1      29.843 -10.762  31.464  1.00  0.00     0.217 C 
BRANCH  19  20
HETATM   20  O1  UNK     1      30.224  -9.713  30.583  1.00  0.00    -0.346 OA
BRANCH  20  21
HETATM   21  C4  UNK     1      29.417  -8.605  30.560  1.00  0.00     0.075 A 
HETATM   22  C3  UNK     1      29.950  -7.328  30.739  1.00  0.00    -0.023 A 
HETATM   23  C13 UNK     1      31.421  -7.161  30.956  1.00  0.00     0.052 C 
HETATM   24  C5  UNK     1      29.114  -6.213  30.712  1.00  0.00    -0.053 A 
HETATM   25  C11 UNK     1      27.743  -6.374  30.508  1.00  0.00     0.007 A 
HETATM   26  C15 UNK     1      29.660  -4.835  30.899  1.00  0.00     0.049 C 
HETATM   27  C14 UNK     1      27.210  -7.650  30.330  1.00  0.00     0.003 A 
HETATM   28  C9  UNK     1      28.047  -8.766  30.356  1.00  0.00     0.037 A 
ENDBRANCH  20  21
ENDBRANCH  19  20
ENDBRANCH   1  19
BRANCH   2  29
HETATM   29  O2  UNK     1      32.508 -10.907  32.484  1.00  0.00    -0.355 OA
HETATM   30  C20 UNK     1      33.550  -9.981  32.181  1.00  0.00     0.210 C 
ENDBRANCH   2  29
TORSDOF 8
ENDMDL
