MODEL 1
REMARK VINA RESULT:      -8.8      0.000      0.000
REMARK  6 active torsions:
REMARK  status: ('A' for Active; 'I' for Inactive)
REMARK    1  A    between atoms: C2_8  and  O1_4 
REMARK    2  A    between atoms: C4_10  and  O1_4 
REMARK    3  A    between atoms: C3_9  and  O2_5 
REMARK    4  A    between atoms: C1_7  and  C9_15 
REMARK    5  A    between atoms: C4_10  and  C8_14 
REMARK    6  A    between atoms: C10_16  and  C11_17 
ROOT
HETATM    1  N1  UNK     1      22.024  -1.749  35.370  1.00  0.00    -0.191 NA
HETATM    2  C9  UNK     1      18.596  -2.203  35.900  1.00  0.00     0.036 C 
HETATM    3  C10 UNK     1      19.781  -2.791  36.110  1.00  0.00     0.055 C 
HETATM    4  C23 UNK     1      21.018  -2.222  35.705  1.00  0.00     0.100 C 
ENDROOT
BRANCH   3   5
HETATM    5  C11 UNK     1      19.787  -4.096  36.755  1.00  0.00    -0.015 A 
HETATM    6  C14 UNK     1      18.786  -5.023  36.460  1.00  0.00     0.014 A 
HETATM    7  C19 UNK     1      18.791  -6.272  37.080  1.00  0.00     0.020 A 
HETATM    8  C21 UNK     1      19.795  -6.595  37.994  1.00  0.00     0.011 A 
HETATM    9 Br2  UNK     1      19.800  -8.288  38.834  1.00  0.00    -0.051 Br
HETATM   10  C20 UNK     1      20.795  -5.668  38.287  1.00  0.00     0.020 A 
HETATM   11  C15 UNK     1      20.790  -4.418  37.668  1.00  0.00     0.014 A 
ENDBRANCH   3   5
BRANCH   2  12
HETATM   12  C1  UNK     1      18.403  -0.893  35.260  1.00  0.00    -0.015 A 
HETATM   13  C5  UNK     1      18.600  -0.824  33.886  1.00  0.00     0.052 A 
HETATM   14  C3  UNK     1      18.430   0.393  33.228  1.00  0.00     0.102 A 
HETATM   15  C2  UNK     1      18.065   1.531  33.946  1.00  0.00     0.103 A 
HETATM   16  C7  UNK     1      17.870   1.451  35.325  1.00  0.00     0.059 A 
HETATM   17  C6  UNK     1      18.040   0.234  35.985  1.00  0.00     0.024 A 
HETATM   18 Br1  UNK     1      17.759   0.195  37.864  1.00  0.00    -0.050 Br
BRANCH  14  19
HETATM   19  O2  UNK     1      18.624   0.458  31.880  1.00  0.00    -0.353 OA
HETATM   20  C22 UNK     1      19.668  -0.347  31.336  1.00  0.00     0.210 C 
ENDBRANCH  14  19
BRANCH  15  21
HETATM   21  O1  UNK     1      17.896   2.726  33.313  1.00  0.00    -0.344 OA
BRANCH  21  22
HETATM   22  C4  UNK     1      18.566   3.855  33.871  1.00  0.00     0.214 C 
BRANCH  22  23
HETATM   23  C8  UNK     1      17.878   5.108  33.411  1.00  0.00    -0.034 A 
HETATM   24  C12 UNK     1      17.272   5.941  34.343  1.00  0.00     0.011 A 
HETATM   25  C16 UNK     1      16.632   7.104  33.915  1.00  0.00     0.024 A 
HETATM   26  C18 UNK     1      16.601   7.425  32.558  1.00  0.00     0.034 A 
HETATM   27  C17 UNK     1      17.212   6.583  31.628  1.00  0.00     0.024 A 
HETATM   28 Cl1  UNK     1      15.811   8.860  32.030  1.00  0.00    -0.084 Cl
HETATM   29  C13 UNK     1      17.852   5.420  32.056  1.00  0.00     0.011 A 
ENDBRANCH  22  23
ENDBRANCH  21  22
ENDBRANCH  15  21
ENDBRANCH   2  12
TORSDOF 6
ENDMDL
MODEL 2
REMARK VINA RESULT:      -8.4      1.678      1.832
REMARK  6 active torsions:
REMARK  status: ('A' for Active; 'I' for Inactive)
REMARK    1  A    between atoms: C2_8  and  O1_4 
REMARK    2  A    between atoms: C4_10  and  O1_4 
REMARK    3  A    between atoms: C3_9  and  O2_5 
REMARK    4  A    between atoms: C1_7  and  C9_15 
REMARK    5  A    between atoms: C4_10  and  C8_14 
REMARK    6  A    between atoms: C10_16  and  C11_17 
ROOT
HETATM    1  N1  UNK     1      22.165  -1.878  35.335  1.00  0.00    -0.191 NA
HETATM    2  C9  UNK     1      18.905  -2.669  36.327  1.00  0.00     0.036 C 
HETATM    3  C10 UNK     1      20.165  -3.121  36.392  1.00  0.00     0.055 C 
HETATM    4  C23 UNK     1      21.269  -2.440  35.812  1.00  0.00     0.100 C 
ENDROOT
BRANCH   3   5
HETATM    5  C11 UNK     1      20.396  -4.392  37.062  1.00  0.00    -0.015 A 
HETATM    6  C14 UNK     1      19.442  -5.406  36.981  1.00  0.00     0.014 A 
HETATM    7  C19 UNK     1      19.664  -6.623  37.625  1.00  0.00     0.020 A 
HETATM    8  C21 UNK     1      20.838  -6.826  38.350  1.00  0.00     0.011 A 
HETATM    9 Br2  UNK     1      21.137  -8.475  39.224  1.00  0.00    -0.051 Br
HETATM   10  C20 UNK     1      21.792  -5.811  38.430  1.00  0.00     0.020 A 
HETATM   11  C15 UNK     1      21.570  -4.594  37.786  1.00  0.00     0.014 A 
ENDBRANCH   3   5
BRANCH   2  12
HETATM   12  C1  UNK     1      18.489  -1.413  35.686  1.00  0.00    -0.015 A 
HETATM   13  C5  UNK     1      18.617  -1.333  34.304  1.00  0.00     0.052 A 
HETATM   14  C3  UNK     1      18.237  -0.165  33.645  1.00  0.00     0.102 A 
HETATM   15  C2  UNK     1      17.732   0.914  34.370  1.00  0.00     0.103 A 
HETATM   16  C7  UNK     1      17.608   0.824  35.756  1.00  0.00     0.059 A 
HETATM   17  C6  UNK     1      17.988  -0.344  36.417  1.00  0.00     0.024 A 
HETATM   18 Br1  UNK     1      17.792  -0.400  38.306  1.00  0.00    -0.050 Br
BRANCH  14  19
HETATM   19  O2  UNK     1      18.363  -0.090  32.289  1.00  0.00    -0.353 OA
HETATM   20  C22 UNK     1      19.459  -0.790  31.701  1.00  0.00     0.210 C 
ENDBRANCH  14  19
BRANCH  15  21
HETATM   21  O1  UNK     1      17.357   2.060  33.736  1.00  0.00    -0.344 OA
BRANCH  21  22
HETATM   22  C4  UNK     1      17.978   3.271  34.165  1.00  0.00     0.214 C 
BRANCH  22  23
HETATM   23  C8  UNK     1      18.495   4.008  32.964  1.00  0.00    -0.034 A 
HETATM   24  C12 UNK     1      19.056   5.269  33.119  1.00  0.00     0.011 A 
HETATM   25  C16 UNK     1      19.535   5.955  32.003  1.00  0.00     0.024 A 
HETATM   26  C18 UNK     1      19.449   5.373  30.738  1.00  0.00     0.034 A 
HETATM   27  C17 UNK     1      18.885   4.106  30.589  1.00  0.00     0.024 A 
HETATM   28 Cl1  UNK     1      20.040   6.218  29.360  1.00  0.00    -0.084 Cl
HETATM   29  C13 UNK     1      18.405   3.422  31.706  1.00  0.00     0.011 A 
ENDBRANCH  22  23
ENDBRANCH  21  22
ENDBRANCH  15  21
ENDBRANCH   2  12
TORSDOF 6
ENDMDL
MODEL 3
REMARK VINA RESULT:      -8.3      6.081      8.214
REMARK  6 active torsions:
REMARK  status: ('A' for Active; 'I' for Inactive)
REMARK    1  A    between atoms: C2_8  and  O1_4 
REMARK    2  A    between atoms: C4_10  and  O1_4 
REMARK    3  A    between atoms: C3_9  and  O2_5 
REMARK    4  A    between atoms: C1_7  and  C9_15 
REMARK    5  A    between atoms: C4_10  and  C8_14 
REMARK    6  A    between atoms: C10_16  and  C11_17 
ROOT
HETATM    1  N1  UNK     1      18.245   3.136  34.792  1.00  0.00    -0.191 NA
HETATM    2  C9  UNK     1      17.963   4.922  31.797  1.00  0.00     0.036 C 
HETATM    3  C10 UNK     1      18.223   3.696  32.272  1.00  0.00     0.055 C 
HETATM    4  C23 UNK     1      18.236   3.383  33.658  1.00  0.00     0.100 C 
ENDROOT
BRANCH   3   5
HETATM    5  C11 UNK     1      18.540   2.650  31.312  1.00  0.00    -0.015 A 
HETATM    6  C14 UNK     1      19.084   1.443  31.752  1.00  0.00     0.014 A 
HETATM    7  C19 UNK     1      19.390   0.441  30.831  1.00  0.00     0.020 A 
HETATM    8  C21 UNK     1      19.152   0.645  29.471  1.00  0.00     0.011 A 
HETATM    9 Br2  UNK     1      19.568  -0.713  28.224  1.00  0.00    -0.051 Br
HETATM   10  C20 UNK     1      18.608   1.853  29.033  1.00  0.00     0.020 A 
HETATM   11  C15 UNK     1      18.303   2.855  29.954  1.00  0.00     0.014 A 
ENDBRANCH   3   5
BRANCH   2  12
HETATM   12  C1  UNK     1      17.631   6.096  32.619  1.00  0.00    -0.015 A 
HETATM   13  C5  UNK     1      16.284   6.381  32.802  1.00  0.00     0.052 A 
HETATM   14  C3  UNK     1      15.913   7.481  33.572  1.00  0.00     0.102 A 
HETATM   15  C2  UNK     1      16.890   8.289  34.153  1.00  0.00     0.103 A 
HETATM   16  C7  UNK     1      18.240   7.995  33.963  1.00  0.00     0.059 A 
HETATM   17  C6  UNK     1      18.612   6.894  33.192  1.00  0.00     0.024 A 
HETATM   18 Br1  UNK     1      20.469   6.550  32.973  1.00  0.00    -0.050 Br
BRANCH  14  19
HETATM   19  O2  UNK     1      14.590   7.759  33.751  1.00  0.00    -0.353 OA
HETATM   20  C22 UNK     1      13.712   7.452  32.670  1.00  0.00     0.210 C 
ENDBRANCH  14  19
BRANCH  15  21
HETATM   21  O1  UNK     1      16.539   9.368  34.908  1.00  0.00    -0.344 OA
BRANCH  21  22
HETATM   22  C4  UNK     1      16.568  10.643  34.270  1.00  0.00     0.214 C 
BRANCH  22  23
HETATM   23  C8  UNK     1      15.179  11.212  34.249  1.00  0.00    -0.034 A 
HETATM   24  C12 UNK     1      14.679  11.848  35.378  1.00  0.00     0.011 A 
HETATM   25  C16 UNK     1      13.388  12.376  35.359  1.00  0.00     0.024 A 
HETATM   26  C18 UNK     1      12.605  12.261  34.211  1.00  0.00     0.034 A 
HETATM   27  C17 UNK     1      13.114  11.621  33.080  1.00  0.00     0.024 A 
HETATM   28 Cl1  UNK     1      11.011  12.911  34.187  1.00  0.00    -0.084 Cl
HETATM   29  C13 UNK     1      14.405  11.094  33.100  1.00  0.00     0.011 A 
ENDBRANCH  22  23
ENDBRANCH  21  22
ENDBRANCH  15  21
ENDBRANCH   2  12
TORSDOF 6
ENDMDL
MODEL 4
REMARK VINA RESULT:      -8.1     12.782     15.203
REMARK  6 active torsions:
REMARK  status: ('A' for Active; 'I' for Inactive)
REMARK    1  A    between atoms: C2_8  and  O1_4 
REMARK    2  A    between atoms: C4_10  and  O1_4 
REMARK    3  A    between atoms: C3_9  and  O2_5 
REMARK    4  A    between atoms: C1_7  and  C9_15 
REMARK    5  A    between atoms: C4_10  and  C8_14 
REMARK    6  A    between atoms: C10_16  and  C11_17 
ROOT
HETATM    1  N1  UNK     1      27.574 -10.309  39.919  1.00  0.00    -0.191 NA
HETATM    2  C9  UNK     1      27.578  -8.467  36.945  1.00  0.00     0.036 C 
HETATM    3  C10 UNK     1      26.833  -9.332  37.647  1.00  0.00     0.055 C 
HETATM    4  C23 UNK     1      27.237  -9.873  38.898  1.00  0.00     0.100 C 
ENDROOT
BRANCH   3   5
HETATM    5  C11 UNK     1      25.567  -9.760  37.073  1.00  0.00    -0.015 A 
HETATM    6  C14 UNK     1      25.482 -10.982  36.405  1.00  0.00     0.014 A 
HETATM    7  C19 UNK     1      24.268 -11.390  35.853  1.00  0.00     0.020 A 
HETATM    8  C21 UNK     1      23.139 -10.578  35.968  1.00  0.00     0.011 A 
HETATM    9 Br2  UNK     1      21.495 -11.132  35.219  1.00  0.00    -0.051 Br
HETATM   10  C20 UNK     1      23.226  -9.357  36.636  1.00  0.00     0.020 A 
HETATM   11  C15 UNK     1      24.440  -8.948  37.188  1.00  0.00     0.014 A 
ENDBRANCH   3   5
BRANCH   2  12
HETATM   12  C1  UNK     1      28.882  -7.935  37.368  1.00  0.00    -0.015 A 
HETATM   13  C5  UNK     1      30.012  -8.648  36.987  1.00  0.00     0.052 A 
HETATM   14  C3  UNK     1      31.273  -8.189  37.361  1.00  0.00     0.102 A 
HETATM   15  C2  UNK     1      31.397  -7.020  38.112  1.00  0.00     0.103 A 
HETATM   16  C7  UNK     1      30.256  -6.311  38.490  1.00  0.00     0.059 A 
HETATM   17  C6  UNK     1      28.993  -6.771  38.117  1.00  0.00     0.024 A 
HETATM   18 Br1  UNK     1      27.482  -5.758  38.664  1.00  0.00    -0.050 Br
BRANCH  14  19
HETATM   19  O2  UNK     1      32.381  -8.890  36.985  1.00  0.00    -0.353 OA
HETATM   20  C22 UNK     1      32.676  -8.934  35.590  1.00  0.00     0.210 C 
ENDBRANCH  14  19
BRANCH  15  21
HETATM   21  O1  UNK     1      32.625  -6.561  38.483  1.00  0.00    -0.344 OA
BRANCH  21  22
HETATM   22  C4  UNK     1      33.036  -5.305  37.946  1.00  0.00     0.214 C 
BRANCH  22  23
HETATM   23  C8  UNK     1      33.733  -5.538  36.637  1.00  0.00    -0.034 A 
HETATM   24  C12 UNK     1      33.122  -5.143  35.452  1.00  0.00     0.011 A 
HETATM   25  C16 UNK     1      33.769  -5.361  34.236  1.00  0.00     0.024 A 
HETATM   26  C18 UNK     1      35.022  -5.972  34.212  1.00  0.00     0.034 A 
HETATM   27  C17 UNK     1      35.630  -6.365  35.405  1.00  0.00     0.024 A 
HETATM   28 Cl1  UNK     1      35.821  -6.241  32.711  1.00  0.00    -0.084 Cl
HETATM   29  C13 UNK     1      34.982  -6.148  36.621  1.00  0.00     0.011 A 
ENDBRANCH  22  23
ENDBRANCH  21  22
ENDBRANCH  15  21
ENDBRANCH   2  12
TORSDOF 6
ENDMDL
MODEL 5
REMARK VINA RESULT:      -8.0      4.642     10.145
REMARK  6 active torsions:
REMARK  status: ('A' for Active; 'I' for Inactive)
REMARK    1  A    between atoms: C2_8  and  O1_4 
REMARK    2  A    between atoms: C4_10  and  O1_4 
REMARK    3  A    between atoms: C3_9  and  O2_5 
REMARK    4  A    between atoms: C1_7  and  C9_15 
REMARK    5  A    between atoms: C4_10  and  C8_14 
REMARK    6  A    between atoms: C10_16  and  C11_17 
ROOT
HETATM    1  N1  UNK     1      20.261   2.802  36.560  1.00  0.00    -0.191 NA
HETATM    2  C9  UNK     1      18.034   1.366  34.276  1.00  0.00     0.036 C 
HETATM    3  C10 UNK     1      18.610   2.533  34.594  1.00  0.00     0.055 C 
HETATM    4  C23 UNK     1      19.519   2.686  35.675  1.00  0.00     0.100 C 
ENDROOT
BRANCH   3   5
HETATM    5  C11 UNK     1      18.250   3.704  33.809  1.00  0.00    -0.015 A 
HETATM    6  C14 UNK     1      18.163   3.611  32.420  1.00  0.00     0.014 A 
HETATM    7  C19 UNK     1      17.820   4.734  31.667  1.00  0.00     0.020 A 
HETATM    8  C21 UNK     1      17.564   5.949  32.303  1.00  0.00     0.011 A 
HETATM    9 Br2  UNK     1      17.100   7.471  31.282  1.00  0.00    -0.051 Br
HETATM   10  C20 UNK     1      17.650   6.041  33.692  1.00  0.00     0.020 A 
HETATM   11  C15 UNK     1      17.994   4.918  34.444  1.00  0.00     0.014 A 
ENDBRANCH   3   5
BRANCH   2  12
HETATM   12  C1  UNK     1      18.275   0.088  34.963  1.00  0.00    -0.015 A 
HETATM   13  C5  UNK     1      19.162  -0.797  34.364  1.00  0.00     0.052 A 
HETATM   14  C3  UNK     1      19.427  -2.023  34.972  1.00  0.00     0.102 A 
HETATM   15  C2  UNK     1      18.803  -2.355  36.174  1.00  0.00     0.103 A 
HETATM   16  C7  UNK     1      17.913  -1.460  36.769  1.00  0.00     0.059 A 
HETATM   17  C6  UNK     1      17.648  -0.233  36.160  1.00  0.00     0.024 A 
HETATM   18 Br1  UNK     1      16.426   0.940  37.022  1.00  0.00    -0.050 Br
BRANCH  14  19
HETATM   19  O2  UNK     1      20.298  -2.889  34.383  1.00  0.00    -0.353 OA
HETATM   20  C22 UNK     1      20.757  -2.556  33.073  1.00  0.00     0.210 C 
ENDBRANCH  14  19
BRANCH  15  21
HETATM   21  O1  UNK     1      19.055  -3.550  36.779  1.00  0.00    -0.344 OA
BRANCH  21  22
HETATM   22  C4  UNK     1      20.293  -3.676  37.477  1.00  0.00     0.214 C 
BRANCH  22  23
HETATM   23  C8  UNK     1      20.781  -5.090  37.355  1.00  0.00    -0.034 A 
HETATM   24  C12 UNK     1      21.725  -5.572  38.254  1.00  0.00     0.011 A 
HETATM   25  C16 UNK     1      22.179  -6.885  38.141  1.00  0.00     0.024 A 
HETATM   26  C18 UNK     1      21.688  -7.708  37.127  1.00  0.00     0.034 A 
HETATM   27  C17 UNK     1      20.741  -7.218  36.228  1.00  0.00     0.024 A 
HETATM   28 Cl1  UNK     1      22.249  -9.329  36.986  1.00  0.00    -0.084 Cl
HETATM   29  C13 UNK     1      20.287  -5.904  36.342  1.00  0.00     0.011 A 
ENDBRANCH  22  23
ENDBRANCH  21  22
ENDBRANCH  15  21
ENDBRANCH   2  12
TORSDOF 6
ENDMDL
MODEL 6
REMARK VINA RESULT:      -8.0      1.839      2.580
REMARK  6 active torsions:
REMARK  status: ('A' for Active; 'I' for Inactive)
REMARK    1  A    between atoms: C2_8  and  O1_4 
REMARK    2  A    between atoms: C4_10  and  O1_4 
REMARK    3  A    between atoms: C3_9  and  O2_5 
REMARK    4  A    between atoms: C1_7  and  C9_15 
REMARK    5  A    between atoms: C4_10  and  C8_14 
REMARK    6  A    between atoms: C10_16  and  C11_17 
ROOT
HETATM    1  N1  UNK     1      22.282  -1.679  35.381  1.00  0.00    -0.191 NA
HETATM    2  C9  UNK     1      18.880  -2.405  35.751  1.00  0.00     0.036 C 
HETATM    3  C10 UNK     1      20.093  -2.966  35.847  1.00  0.00     0.055 C 
HETATM    4  C23 UNK     1      21.301  -2.262  35.591  1.00  0.00     0.100 C 
ENDROOT
BRANCH   3   5
HETATM    5  C11 UNK     1      20.163  -4.377  36.196  1.00  0.00    -0.015 A 
HETATM    6  C14 UNK     1      19.918  -5.348  35.224  1.00  0.00     0.014 A 
HETATM    7  C19 UNK     1      19.984  -6.700  35.560  1.00  0.00     0.020 A 
HETATM    8  C21 UNK     1      20.294  -7.082  36.865  1.00  0.00     0.011 A 
HETATM    9 Br2  UNK     1      20.381  -8.914  37.320  1.00  0.00    -0.051 Br
HETATM   10  C20 UNK     1      20.539  -6.110  37.836  1.00  0.00     0.020 A 
HETATM   11  C15 UNK     1      20.473  -4.757  37.500  1.00  0.00     0.014 A 
ENDBRANCH   3   5
BRANCH   2  12
HETATM   12  C1  UNK     1      18.622  -1.000  35.405  1.00  0.00    -0.015 A 
HETATM   13  C5  UNK     1      18.284  -0.142  36.444  1.00  0.00     0.052 A 
HETATM   14  C3  UNK     1      18.028   1.201  36.172  1.00  0.00     0.102 A 
HETATM   15  C2  UNK     1      18.113   1.677  34.864  1.00  0.00     0.103 A 
HETATM   16  C7  UNK     1      18.453   0.808  33.827  1.00  0.00     0.059 A 
HETATM   17  C6  UNK     1      18.708  -0.536  34.099  1.00  0.00     0.024 A 
HETATM   18 Br1  UNK     1      19.166  -1.665  32.640  1.00  0.00    -0.050 Br
BRANCH  14  19
HETATM   19  O2  UNK     1      17.698   2.041  37.194  1.00  0.00    -0.353 OA
HETATM   20  C22 UNK     1      17.617   1.471  38.500  1.00  0.00     0.210 C 
ENDBRANCH  14  19
BRANCH  15  21
HETATM   21  O1  UNK     1      17.866   2.988  34.587  1.00  0.00    -0.344 OA
BRANCH  21  22
HETATM   22  C4  UNK     1      18.379   3.498  33.357  1.00  0.00     0.214 C 
BRANCH  22  23
HETATM   23  C8  UNK     1      18.378   4.998  33.411  1.00  0.00    -0.034 A 
HETATM   24  C12 UNK     1      19.428   5.665  34.031  1.00  0.00     0.011 A 
HETATM   25  C16 UNK     1      19.426   7.059  34.082  1.00  0.00     0.024 A 
HETATM   26  C18 UNK     1      18.373   7.776  33.514  1.00  0.00     0.034 A 
HETATM   27  C17 UNK     1      17.323   7.099  32.893  1.00  0.00     0.024 A 
HETATM   28 Cl1  UNK     1      18.370   9.496  33.577  1.00  0.00    -0.084 Cl
HETATM   29  C13 UNK     1      17.325   5.706  32.842  1.00  0.00     0.011 A 
ENDBRANCH  22  23
ENDBRANCH  21  22
ENDBRANCH  15  21
ENDBRANCH   2  12
TORSDOF 6
ENDMDL
MODEL 7
REMARK VINA RESULT:      -8.0     11.287     13.984
REMARK  6 active torsions:
REMARK  status: ('A' for Active; 'I' for Inactive)
REMARK    1  A    between atoms: C2_8  and  O1_4 
REMARK    2  A    between atoms: C4_10  and  O1_4 
REMARK    3  A    between atoms: C3_9  and  O2_5 
REMARK    4  A    between atoms: C1_7  and  C9_15 
REMARK    5  A    between atoms: C4_10  and  C8_14 
REMARK    6  A    between atoms: C10_16  and  C11_17 
ROOT
HETATM    1  N1  UNK     1      26.564  -5.746  38.990  1.00  0.00    -0.191 NA
HETATM    2  C9  UNK     1      26.135  -8.989  37.753  1.00  0.00     0.036 C 
HETATM    3  C10 UNK     1      25.444  -7.940  38.217  1.00  0.00     0.055 C 
HETATM    4  C23 UNK     1      26.056  -6.730  38.644  1.00  0.00     0.100 C 
ENDROOT
BRANCH   3   5
HETATM    5  C11 UNK     1      23.998  -8.070  38.319  1.00  0.00    -0.015 A 
HETATM    6  C14 UNK     1      23.284  -8.714  37.309  1.00  0.00     0.014 A 
HETATM    7  C19 UNK     1      21.898  -8.837  37.407  1.00  0.00     0.020 A 
HETATM    8  C21 UNK     1      21.227  -8.315  38.513  1.00  0.00     0.011 A 
HETATM    9 Br2  UNK     1      19.348  -8.481  38.644  1.00  0.00    -0.051 Br
HETATM   10  C20 UNK     1      21.942  -7.671  39.522  1.00  0.00     0.020 A 
HETATM   11  C15 UNK     1      23.328  -7.548  39.425  1.00  0.00     0.014 A 
ENDBRANCH   3   5
BRANCH   2  12
HETATM   12  C1  UNK     1      27.595  -9.036  37.589  1.00  0.00    -0.015 A 
HETATM   13  C5  UNK     1      28.114  -8.575  36.385  1.00  0.00     0.052 A 
HETATM   14  C3  UNK     1      29.492  -8.597  36.177  1.00  0.00     0.102 A 
HETATM   15  C2  UNK     1      30.341  -9.079  37.172  1.00  0.00     0.103 A 
HETATM   16  C7  UNK     1      29.811  -9.541  38.377  1.00  0.00     0.059 A 
HETATM   17  C6  UNK     1      28.432  -9.520  38.586  1.00  0.00     0.024 A 
HETATM   18 Br1  UNK     1      27.776 -10.163  40.249  1.00  0.00    -0.050 Br
BRANCH  14  19
HETATM   19  O2  UNK     1      29.999  -8.142  34.996  1.00  0.00    -0.353 OA
HETATM   20  C22 UNK     1      29.769  -6.771  34.678  1.00  0.00     0.210 C 
ENDBRANCH  14  19
BRANCH  15  21
HETATM   21  O1  UNK     1      31.690  -9.105  36.980  1.00  0.00    -0.344 OA
BRANCH  21  22
HETATM   22  C4  UNK     1      32.489  -8.350  37.889  1.00  0.00     0.214 C 
BRANCH  22  23
HETATM   23  C8  UNK     1      32.373  -6.893  37.548  1.00  0.00    -0.034 A 
HETATM   24  C12 UNK     1      31.591  -6.061  38.339  1.00  0.00     0.011 A 
HETATM   25  C16 UNK     1      31.482  -4.707  38.021  1.00  0.00     0.024 A 
HETATM   26  C18 UNK     1      32.157  -4.195  36.913  1.00  0.00     0.034 A 
HETATM   27  C17 UNK     1      32.942  -5.036  36.123  1.00  0.00     0.024 A 
HETATM   28 Cl1  UNK     1      32.024  -2.525  36.520  1.00  0.00    -0.084 Cl
HETATM   29  C13 UNK     1      33.049  -6.390  36.442  1.00  0.00     0.011 A 
ENDBRANCH  22  23
ENDBRANCH  21  22
ENDBRANCH  15  21
ENDBRANCH   2  12
TORSDOF 6
ENDMDL
MODEL 8
REMARK VINA RESULT:      -7.9     11.783     14.551
REMARK  6 active torsions:
REMARK  status: ('A' for Active; 'I' for Inactive)
REMARK    1  A    between atoms: C2_8  and  O1_4 
REMARK    2  A    between atoms: C4_10  and  O1_4 
REMARK    3  A    between atoms: C3_9  and  O2_5 
REMARK    4  A    between atoms: C1_7  and  C9_15 
REMARK    5  A    between atoms: C4_10  and  C8_14 
REMARK    6  A    between atoms: C10_16  and  C11_17 
ROOT
HETATM    1  N1  UNK     1      29.089  -6.487  34.409  1.00  0.00    -0.191 NA
HETATM    2  C9  UNK     1      30.541  -7.804  37.307  1.00  0.00     0.036 C 
HETATM    3  C10 UNK     1      30.857  -7.304  36.104  1.00  0.00     0.055 C 
HETATM    4  C23 UNK     1      29.888  -6.853  35.168  1.00  0.00     0.100 C 
ENDROOT
BRANCH   3   5
HETATM    5  C11 UNK     1      32.264  -7.260  35.735  1.00  0.00    -0.015 A 
HETATM    6  C14 UNK     1      32.632  -7.287  34.390  1.00  0.00     0.014 A 
HETATM    7  C19 UNK     1      33.981  -7.246  34.038  1.00  0.00     0.020 A 
HETATM    8  C21 UNK     1      34.961  -7.179  35.029  1.00  0.00     0.011 A 
HETATM    9 Br2  UNK     1      36.789  -7.126  34.550  1.00  0.00    -0.051 Br
HETATM   10  C20 UNK     1      34.591  -7.153  36.373  1.00  0.00     0.020 A 
HETATM   11  C15 UNK     1      33.242  -7.194  36.726  1.00  0.00     0.014 A 
ENDBRANCH   3   5
BRANCH   2  12
HETATM   12  C1  UNK     1      29.176  -7.929  37.840  1.00  0.00    -0.015 A 
HETATM   13  C5  UNK     1      28.519  -9.134  37.621  1.00  0.00     0.052 A 
HETATM   14  C3  UNK     1      27.223  -9.307  38.105  1.00  0.00     0.102 A 
HETATM   15  C2  UNK     1      26.594  -8.276  38.802  1.00  0.00     0.103 A 
HETATM   16  C7  UNK     1      27.262  -7.070  39.016  1.00  0.00     0.059 A 
HETATM   17  C6  UNK     1      28.559  -6.896  38.532  1.00  0.00     0.024 A 
HETATM   18 Br1  UNK     1      29.412  -5.229  38.857  1.00  0.00    -0.050 Br
BRANCH  14  19
HETATM   19  O2  UNK     1      26.580 -10.490  37.890  1.00  0.00    -0.353 OA
HETATM   20  C22 UNK     1      26.008 -10.691  36.599  1.00  0.00     0.210 C 
ENDBRANCH  14  19
BRANCH  15  21
HETATM   21  O1  UNK     1      25.328  -8.434  39.280  1.00  0.00    -0.344 OA
BRANCH  21  22
HETATM   22  C4  UNK     1      24.356  -7.471  38.874  1.00  0.00     0.214 C 
BRANCH  22  23
HETATM   23  C8  UNK     1      23.070  -8.178  38.559  1.00  0.00    -0.034 A 
HETATM   24  C12 UNK     1      22.098  -8.310  39.544  1.00  0.00     0.011 A 
HETATM   25  C16 UNK     1      20.903  -8.967  39.252  1.00  0.00     0.024 A 
HETATM   26  C18 UNK     1      20.688  -9.489  37.977  1.00  0.00     0.034 A 
HETATM   27  C17 UNK     1      21.668  -9.352  36.992  1.00  0.00     0.024 A 
HETATM   28 Cl1  UNK     1      19.214 -10.300  37.616  1.00  0.00    -0.084 Cl
HETATM   29  C13 UNK     1      22.863  -8.695  37.285  1.00  0.00     0.011 A 
ENDBRANCH  22  23
ENDBRANCH  21  22
ENDBRANCH  15  21
ENDBRANCH   2  12
TORSDOF 6
ENDMDL
MODEL 9
REMARK VINA RESULT:      -7.9     26.988     28.558
REMARK  6 active torsions:
REMARK  status: ('A' for Active; 'I' for Inactive)
REMARK    1  A    between atoms: C2_8  and  O1_4 
REMARK    2  A    between atoms: C4_10  and  O1_4 
REMARK    3  A    between atoms: C3_9  and  O2_5 
REMARK    4  A    between atoms: C1_7  and  C9_15 
REMARK    5  A    between atoms: C4_10  and  C8_14 
REMARK    6  A    between atoms: C10_16  and  C11_17 
ROOT
HETATM    1  N1  UNK     1      13.612   6.045  10.246  1.00  0.00    -0.191 NA
HETATM    2  C9  UNK     1      12.506   9.063   8.866  1.00  0.00     0.036 C 
HETATM    3  C10 UNK     1      13.618   8.437   9.274  1.00  0.00     0.055 C 
HETATM    4  C23 UNK     1      13.620   7.121   9.810  1.00  0.00     0.100 C 
ENDROOT
BRANCH   3   5
HETATM    5  C11 UNK     1      14.876   9.165   9.194  1.00  0.00    -0.015 A 
HETATM    6  C14 UNK     1      14.975  10.295   8.383  1.00  0.00     0.014 A 
HETATM    7  C19 UNK     1      16.182  10.991   8.305  1.00  0.00     0.020 A 
HETATM    8  C21 UNK     1      17.288  10.557   9.037  1.00  0.00     0.011 A 
HETATM    9 Br2  UNK     1      18.922  11.499   8.929  1.00  0.00    -0.051 Br
HETATM   10  C20 UNK     1      17.186   9.426   9.847  1.00  0.00     0.020 A 
HETATM   11  C15 UNK     1      15.980   8.730   9.924  1.00  0.00     0.014 A 
ENDBRANCH   3   5
BRANCH   2  12
HETATM   12  C1  UNK     1      11.154   8.485   8.881  1.00  0.00    -0.015 A 
HETATM   13  C5  UNK     1      10.913   7.414   8.031  1.00  0.00     0.052 A 
HETATM   14  C3  UNK     1       9.649   6.827   8.005  1.00  0.00     0.102 A 
HETATM   15  C2  UNK     1       8.635   7.316   8.829  1.00  0.00     0.103 A 
HETATM   16  C7  UNK     1       8.887   8.393   9.679  1.00  0.00     0.059 A 
HETATM   17  C6  UNK     1      10.152   8.980   9.705  1.00  0.00     0.024 A 
HETATM   18 Br1  UNK     1      10.428  10.443  10.886  1.00  0.00    -0.050 Br
BRANCH  14  19
HETATM   19  O2  UNK     1       9.414   5.775   7.170  1.00  0.00    -0.353 OA
HETATM   20  C22 UNK     1       9.732   5.960   5.791  1.00  0.00     0.210 C 
ENDBRANCH  14  19
BRANCH  15  21
HETATM   21  O1  UNK     1       7.396   6.750   8.813  1.00  0.00    -0.344 OA
BRANCH  21  22
HETATM   22  C4  UNK     1       6.498   7.126   9.856  1.00  0.00     0.214 C 
BRANCH  22  23
HETATM   23  C8  UNK     1       6.170   5.914  10.679  1.00  0.00    -0.034 A 
HETATM   24  C12 UNK     1       5.666   6.070  11.964  1.00  0.00     0.011 A 
HETATM   25  C16 UNK     1       5.361   4.944  12.729  1.00  0.00     0.024 A 
HETATM   26  C18 UNK     1       5.565   3.669  12.202  1.00  0.00     0.034 A 
HETATM   27  C17 UNK     1       6.071   3.519  10.911  1.00  0.00     0.024 A 
HETATM   28 Cl1  UNK     1       5.190   2.278  13.145  1.00  0.00    -0.084 Cl
HETATM   29  C13 UNK     1       6.375   4.646  10.147  1.00  0.00     0.011 A 
ENDBRANCH  22  23
ENDBRANCH  21  22
ENDBRANCH  15  21
ENDBRANCH   2  12
TORSDOF 6
ENDMDL
MODEL 10
REMARK VINA RESULT:      -7.9     26.253     28.552
REMARK  6 active torsions:
REMARK  status: ('A' for Active; 'I' for Inactive)
REMARK    1  A    between atoms: C2_8  and  O1_4 
REMARK    2  A    between atoms: C4_10  and  O1_4 
REMARK    3  A    between atoms: C3_9  and  O2_5 
REMARK    4  A    between atoms: C1_7  and  C9_15 
REMARK    5  A    between atoms: C4_10  and  C8_14 
REMARK    6  A    between atoms: C10_16  and  C11_17 
ROOT
HETATM    1  N1  UNK     1      15.633  11.315   7.441  1.00  0.00    -0.191 NA
HETATM    2  C9  UNK     1      17.177   9.791  10.185  1.00  0.00     0.036 C 
HETATM    3  C10 UNK     1      17.356  10.766   9.283  1.00  0.00     0.055 C 
HETATM    4  C23 UNK     1      16.410  11.072   8.267  1.00  0.00     0.100 C 
ENDROOT
BRANCH   3   5
HETATM    5  C11 UNK     1      18.600  11.518   9.334  1.00  0.00    -0.015 A 
HETATM    6  C14 UNK     1      19.071  12.004  10.553  1.00  0.00     0.014 A 
HETATM    7  C19 UNK     1      20.264  12.727  10.601  1.00  0.00     0.020 A 
HETATM    8  C21 UNK     1      20.984  12.964   9.430  1.00  0.00     0.011 A 
HETATM    9 Br2  UNK     1      22.598  13.944   9.496  1.00  0.00    -0.051 Br
HETATM   10  C20 UNK     1      20.512  12.477   8.211  1.00  0.00     0.020 A 
HETATM   11  C15 UNK     1      19.320  11.755   8.164  1.00  0.00     0.014 A 
ENDBRANCH   3   5
BRANCH   2  12
HETATM   12  C1  UNK     1      15.989   8.930  10.277  1.00  0.00    -0.015 A 
HETATM   13  C5  UNK     1      14.800   9.530  10.672  1.00  0.00     0.052 A 
HETATM   14  C3  UNK     1      13.643   8.760  10.776  1.00  0.00     0.102 A 
HETATM   15  C2  UNK     1      13.682   7.397  10.485  1.00  0.00     0.103 A 
HETATM   16  C7  UNK     1      14.881   6.803  10.089  1.00  0.00     0.059 A 
HETATM   17  C6  UNK     1      16.039   7.573   9.985  1.00  0.00     0.024 A 
HETATM   18 Br1  UNK     1      17.638   6.702   9.441  1.00  0.00    -0.050 Br
BRANCH  14  19
HETATM   19  O2  UNK     1      12.477   9.351  11.163  1.00  0.00    -0.353 OA
HETATM   20  C22 UNK     1      12.418   9.854  12.497  1.00  0.00     0.210 C 
ENDBRANCH  14  19
BRANCH  15  21
HETATM   21  O1  UNK     1      12.557   6.635  10.582  1.00  0.00    -0.344 OA
BRANCH  21  22
HETATM   22  C4  UNK     1      12.489   5.471   9.760  1.00  0.00     0.214 C 
BRANCH  22  23
HETATM   23  C8  UNK     1      11.624   5.763   8.568  1.00  0.00    -0.034 A 
HETATM   24  C12 UNK     1      10.247   5.869   8.728  1.00  0.00     0.011 A 
HETATM   25  C16 UNK     1       9.443   6.140   7.621  1.00  0.00     0.024 A 
HETATM   26  C18 UNK     1      10.021   6.302   6.362  1.00  0.00     0.034 A 
HETATM   27  C17 UNK     1      11.404   6.194   6.210  1.00  0.00     0.024 A 
HETATM   28 Cl1  UNK     1       9.029   6.635   4.995  1.00  0.00    -0.084 Cl
HETATM   29  C13 UNK     1      12.207   5.923   7.317  1.00  0.00     0.011 A 
ENDBRANCH  22  23
ENDBRANCH  21  22
ENDBRANCH  15  21
ENDBRANCH   2  12
TORSDOF 6
ENDMDL
