MODEL 1
REMARK VINA RESULT:      -8.2      0.000      0.000
REMARK  3 active torsions:
REMARK  status: ('A' for Active; 'I' for Inactive)
REMARK    1  A    between atoms: C16_21  and  O2_3 
REMARK    2  A    between atoms: C9_14  and  O2_3 
REMARK    3  A    between atoms: C2_7  and  C5_10 
ROOT
HETATM    1  O1  UNK     1      18.848   4.297  30.411  1.00  0.00    -0.274 OA
HETATM    2  O3  UNK     1      18.729   6.549  30.067  1.00  0.00    -0.259 OA
HETATM    3  C1  UNK     1      18.308   3.374  32.589  1.00  0.00    -0.001 A 
HETATM    4  C2  UNK     1      18.205   5.783  32.258  1.00  0.00     0.051 A 
HETATM    5  C3  UNK     1      18.696   3.192  31.267  1.00  0.00     0.092 A 
HETATM    6  C4  UNK     1      18.067   4.724  33.071  1.00  0.00     0.032 A 
HETATM    7  C6  UNK     1      18.164   2.253  33.410  1.00  0.00     0.017 A 
HETATM    8  C7  UNK     1      18.944   1.925  30.743  1.00  0.00     0.075 A 
HETATM    9  C8  UNK     1      18.612   5.602  30.837  1.00  0.00     0.299 A 
HETATM   10  C9  UNK     1      18.799   0.812  31.568  1.00  0.00     0.081 A 
HETATM   11  C10 UNK     1      18.410   0.975  32.899  1.00  0.00     0.038 A 
ENDROOT
BRANCH   4  12
HETATM   12  C5  UNK     1      17.966   7.135  32.798  1.00  0.00    -0.020 A 
HETATM   13  C11 UNK     1      16.719   7.738  32.638  1.00  0.00     0.014 A 
HETATM   14  C13 UNK     1      16.492   9.016  33.149  1.00  0.00     0.024 A 
HETATM   15  C15 UNK     1      17.512   9.690  33.820  1.00  0.00     0.034 A 
HETATM   16  C14 UNK     1      18.759   9.086  33.979  1.00  0.00     0.024 A 
HETATM   17 Cl1  UNK     1      17.233  11.267  34.448  1.00  0.00    -0.084 Cl
HETATM   18  C12 UNK     1      18.986   7.808  33.468  1.00  0.00     0.014 A 
ENDBRANCH   4  12
BRANCH  10  19
HETATM   19  O2  UNK     1      19.037  -0.435  31.077  1.00  0.00    -0.279 OA
BRANCH  19  20
HETATM   20  C16 UNK     1      20.382  -0.675  30.748  1.00  0.00     0.260 C 
HETATM   21  O4  UNK     1      21.329  -0.616  31.522  1.00  0.00    -0.265 OA
HETATM   22  C17 UNK     1      20.501  -1.019  29.293  1.00  0.00     0.126 C 
ENDBRANCH  19  20
ENDBRANCH  10  19
TORSDOF 3
ENDMDL
MODEL 2
REMARK VINA RESULT:      -7.9      2.070      3.304
REMARK  3 active torsions:
REMARK  status: ('A' for Active; 'I' for Inactive)
REMARK    1  A    between atoms: C16_21  and  O2_3 
REMARK    2  A    between atoms: C9_14  and  O2_3 
REMARK    3  A    between atoms: C2_7  and  C5_10 
ROOT
HETATM    1  O1  UNK     1      17.370   5.371  33.564  1.00  0.00    -0.274 OA
HETATM    2  O3  UNK     1      16.630   6.869  35.116  1.00  0.00    -0.259 OA
HETATM    3  C1  UNK     1      18.330   6.160  31.479  1.00  0.00    -0.001 A 
HETATM    4  C2  UNK     1      17.517   7.779  33.104  1.00  0.00     0.051 A 
HETATM    5  C3  UNK     1      17.966   5.112  32.316  1.00  0.00     0.092 A 
HETATM    6  C4  UNK     1      18.080   7.525  31.913  1.00  0.00     0.032 A 
HETATM    7  C6  UNK     1      18.922   5.866  30.248  1.00  0.00     0.017 A 
HETATM    8  C7  UNK     1      18.175   3.781  31.960  1.00  0.00     0.075 A 
HETATM    9  C8  UNK     1      17.129   6.666  34.015  1.00  0.00     0.299 A 
HETATM   10  C9  UNK     1      18.765   3.496  30.731  1.00  0.00     0.081 A 
HETATM   11  C10 UNK     1      19.138   4.535  29.876  1.00  0.00     0.038 A 
ENDROOT
BRANCH   4  12
HETATM   12  C5  UNK     1      17.269   9.180  33.493  1.00  0.00    -0.020 A 
HETATM   13  C11 UNK     1      15.969   9.685  33.490  1.00  0.00     0.014 A 
HETATM   14  C13 UNK     1      15.734  11.010  33.858  1.00  0.00     0.024 A 
HETATM   15  C15 UNK     1      16.800  11.830  34.229  1.00  0.00     0.034 A 
HETATM   16  C14 UNK     1      18.100  11.324  34.232  1.00  0.00     0.024 A 
HETATM   17 Cl1  UNK     1      16.511  13.464  34.681  1.00  0.00    -0.084 Cl
HETATM   18  C12 UNK     1      18.335   9.999  33.864  1.00  0.00     0.014 A 
ENDBRANCH   4  12
BRANCH  10  19
HETATM   19  O2  UNK     1      18.978   2.203  30.362  1.00  0.00    -0.279 OA
BRANCH  19  20
HETATM   20  C16 UNK     1      18.399   1.855  29.130  1.00  0.00     0.260 C 
HETATM   21  O4  UNK     1      17.526   2.485  28.547  1.00  0.00    -0.265 OA
HETATM   22  C17 UNK     1      19.005   0.582  28.618  1.00  0.00     0.126 C 
ENDBRANCH  19  20
ENDBRANCH  10  19
TORSDOF 3
ENDMDL
MODEL 3
REMARK VINA RESULT:      -7.8     14.886     17.601
REMARK  3 active torsions:
REMARK  status: ('A' for Active; 'I' for Inactive)
REMARK    1  A    between atoms: C16_21  and  O2_3 
REMARK    2  A    between atoms: C9_14  and  O2_3 
REMARK    3  A    between atoms: C2_7  and  C5_10 
ROOT
HETATM    1  O1  UNK     1      19.487  -0.201  14.238  1.00  0.00    -0.274 OA
HETATM    2  O3  UNK     1      19.813   1.711  15.439  1.00  0.00    -0.259 OA
HETATM    3  C1  UNK     1      18.747  -2.223  15.356  1.00  0.00    -0.001 A 
HETATM    4  C2  UNK     1      19.119  -0.206  16.666  1.00  0.00     0.051 A 
HETATM    5  C3  UNK     1      19.111  -1.555  14.193  1.00  0.00     0.092 A 
HETATM    6  C4  UNK     1      18.766  -1.500  16.617  1.00  0.00     0.032 A 
HETATM    7  C6  UNK     1      18.377  -3.568  15.274  1.00  0.00     0.017 A 
HETATM    8  C7  UNK     1      19.116  -2.190  12.953  1.00  0.00     0.075 A 
HETATM    9  C8  UNK     1      19.503   0.524  15.427  1.00  0.00     0.299 A 
HETATM   10  C9  UNK     1      18.747  -3.531  12.879  1.00  0.00     0.081 A 
HETATM   11  C10 UNK     1      18.377  -4.220  14.036  1.00  0.00     0.038 A 
ENDROOT
BRANCH   4  12
HETATM   12  C5  UNK     1      19.138   0.480  17.972  1.00  0.00    -0.020 A 
HETATM   13  C11 UNK     1      18.996   1.866  18.033  1.00  0.00     0.014 A 
HETATM   14  C13 UNK     1      19.014   2.515  19.268  1.00  0.00     0.024 A 
HETATM   15  C15 UNK     1      19.174   1.777  20.441  1.00  0.00     0.034 A 
HETATM   16  C14 UNK     1      19.316   0.391  20.379  1.00  0.00     0.024 A 
HETATM   17 Cl1  UNK     1      19.198   2.578  21.963  1.00  0.00    -0.084 Cl
HETATM   18  C12 UNK     1      19.298  -0.258  19.144  1.00  0.00     0.014 A 
ENDBRANCH   4  12
BRANCH  10  19
HETATM   19  O2  UNK     1      18.745  -4.172  11.678  1.00  0.00    -0.279 OA
BRANCH  19  20
HETATM   20  C16 UNK     1      20.017  -4.581  11.244  1.00  0.00     0.260 C 
HETATM   21  O4  UNK     1      20.799  -5.278  11.879  1.00  0.00    -0.265 OA
HETATM   22  C17 UNK     1      20.293  -4.037   9.874  1.00  0.00     0.126 C 
ENDBRANCH  19  20
ENDBRANCH  10  19
TORSDOF 3
ENDMDL
MODEL 4
REMARK VINA RESULT:      -7.8      2.493      3.122
REMARK  3 active torsions:
REMARK  status: ('A' for Active; 'I' for Inactive)
REMARK    1  A    between atoms: C16_21  and  O2_3 
REMARK    2  A    between atoms: C9_14  and  O2_3 
REMARK    3  A    between atoms: C2_7  and  C5_10 
ROOT
HETATM    1  O1  UNK     1      18.036   2.257  32.562  1.00  0.00    -0.274 OA
HETATM    2  O3  UNK     1      17.710   4.223  31.452  1.00  0.00    -0.259 OA
HETATM    3  C1  UNK     1      18.606   2.278  34.921  1.00  0.00    -0.001 A 
HETATM    4  C2  UNK     1      18.297   4.390  33.752  1.00  0.00     0.051 A 
HETATM    5  C3  UNK     1      18.333   1.574  33.755  1.00  0.00     0.092 A 
HETATM    6  C4  UNK     1      18.584   3.731  34.885  1.00  0.00     0.032 A 
HETATM    7  C6  UNK     1      18.894   1.566  36.088  1.00  0.00     0.017 A 
HETATM    8  C7  UNK     1      18.339   0.180  33.720  1.00  0.00     0.075 A 
HETATM    9  C8  UNK     1      17.994   3.648  32.497  1.00  0.00     0.299 A 
HETATM   10  C9  UNK     1      18.628  -0.523  34.887  1.00  0.00     0.081 A 
HETATM   11  C10 UNK     1      18.905   0.167  36.069  1.00  0.00     0.038 A 
ENDROOT
BRANCH   4  12
HETATM   12  C5  UNK     1      18.303   5.865  33.762  1.00  0.00    -0.020 A 
HETATM   13  C11 UNK     1      17.098   6.567  33.737  1.00  0.00     0.014 A 
HETATM   14  C13 UNK     1      17.103   7.963  33.747  1.00  0.00     0.024 A 
HETATM   15  C15 UNK     1      18.314   8.655  33.782  1.00  0.00     0.034 A 
HETATM   16  C14 UNK     1      19.518   7.952  33.807  1.00  0.00     0.024 A 
HETATM   17 Cl1  UNK     1      18.321  10.375  33.792  1.00  0.00    -0.084 Cl
HETATM   18  C12 UNK     1      19.513   6.557  33.797  1.00  0.00     0.014 A 
ENDBRANCH   4  12
BRANCH  10  19
HETATM   19  O2  UNK     1      18.642  -1.884  34.877  1.00  0.00    -0.279 OA
BRANCH  19  20
HETATM   20  C16 UNK     1      19.906  -2.447  35.117  1.00  0.00     0.260 C 
HETATM   21  O4  UNK     1      20.913  -2.255  34.448  1.00  0.00    -0.265 OA
HETATM   22  C17 UNK     1      19.852  -3.333  36.326  1.00  0.00     0.126 C 
ENDBRANCH  19  20
ENDBRANCH  10  19
TORSDOF 3
ENDMDL
MODEL 5
REMARK VINA RESULT:      -7.6     14.355     16.184
REMARK  3 active torsions:
REMARK  status: ('A' for Active; 'I' for Inactive)
REMARK    1  A    between atoms: C16_21  and  O2_3 
REMARK    2  A    between atoms: C9_14  and  O2_3 
REMARK    3  A    between atoms: C2_7  and  C5_10 
ROOT
HETATM    1  O1  UNK     1      25.660  -5.353  38.778  1.00  0.00    -0.274 OA
HETATM    2  O3  UNK     1      23.380  -5.298  38.775  1.00  0.00    -0.259 OA
HETATM    3  C1  UNK     1      26.821  -7.479  38.638  1.00  0.00    -0.001 A 
HETATM    4  C2  UNK     1      24.388  -7.451  38.668  1.00  0.00     0.051 A 
HETATM    5  C3  UNK     1      26.855  -6.093  38.720  1.00  0.00     0.092 A 
HETATM    6  C4  UNK     1      25.532  -8.150  38.618  1.00  0.00     0.032 A 
HETATM    7  C6  UNK     1      28.028  -8.182  38.580  1.00  0.00     0.017 A 
HETATM    8  C7  UNK     1      28.057  -5.388  38.745  1.00  0.00     0.075 A 
HETATM    9  C8  UNK     1      24.409  -5.964  38.747  1.00  0.00     0.299 A 
HETATM   10  C9  UNK     1      29.256  -6.095  38.687  1.00  0.00     0.081 A 
HETATM   11  C10 UNK     1      29.242  -7.489  38.605  1.00  0.00     0.038 A 
ENDROOT
BRANCH   4  12
HETATM   12  C5  UNK     1      23.104  -8.178  38.661  1.00  0.00    -0.020 A 
HETATM   13  C11 UNK     1      22.389  -8.340  39.847  1.00  0.00     0.014 A 
HETATM   14  C13 UNK     1      21.175  -9.027  39.841  1.00  0.00     0.024 A 
HETATM   15  C15 UNK     1      20.677  -9.552  38.648  1.00  0.00     0.034 A 
HETATM   16  C14 UNK     1      21.393  -9.389  37.462  1.00  0.00     0.024 A 
HETATM   17 Cl1  UNK     1      19.180 -10.401  38.641  1.00  0.00    -0.084 Cl
HETATM   18  C12 UNK     1      22.607  -8.702  37.468  1.00  0.00     0.014 A 
ENDBRANCH   4  12
BRANCH  10  19
HETATM   19  O2  UNK     1      30.442  -5.428  38.712  1.00  0.00    -0.279 OA
BRANCH  19  20
HETATM   20  C16 UNK     1      30.657  -4.599  37.599  1.00  0.00     0.260 C 
HETATM   21  O4  UNK     1      30.432  -3.396  37.548  1.00  0.00    -0.265 OA
HETATM   22  C17 UNK     1      31.209  -5.402  36.459  1.00  0.00     0.126 C 
ENDBRANCH  19  20
ENDBRANCH  10  19
TORSDOF 3
ENDMDL
MODEL 6
REMARK VINA RESULT:      -7.5      4.045      8.763
REMARK  3 active torsions:
REMARK  status: ('A' for Active; 'I' for Inactive)
REMARK    1  A    between atoms: C16_21  and  O2_3 
REMARK    2  A    between atoms: C9_14  and  O2_3 
REMARK    3  A    between atoms: C2_7  and  C5_10 
ROOT
HETATM    1  O1  UNK     1      18.866   8.538  33.715  1.00  0.00    -0.274 OA
HETATM    2  O3  UNK     1      20.260   6.805  33.210  1.00  0.00    -0.259 OA
HETATM    3  C1  UNK     1      16.602   8.567  32.841  1.00  0.00    -0.001 A 
HETATM    4  C2  UNK     1      18.080   6.723  32.259  1.00  0.00     0.051 A 
HETATM    5  C3  UNK     1      17.605   9.151  33.605  1.00  0.00     0.092 A 
HETATM    6  C4  UNK     1      16.881   7.316  32.155  1.00  0.00     0.032 A 
HETATM    7  C6  UNK     1      15.361   9.203  32.756  1.00  0.00     0.017 A 
HETATM    8  C7  UNK     1      17.404  10.350  34.287  1.00  0.00     0.075 A 
HETATM    9  C8  UNK     1      19.161   7.333  33.082  1.00  0.00     0.299 A 
HETATM   10  C9  UNK     1      16.164  10.978  34.197  1.00  0.00     0.081 A 
HETATM   11  C10 UNK     1      15.144  10.407  33.434  1.00  0.00     0.038 A 
ENDROOT
BRANCH   4  12
HETATM   12  C5  UNK     1      18.320   5.463  31.531  1.00  0.00    -0.020 A 
HETATM   13  C11 UNK     1      18.816   5.494  30.228  1.00  0.00     0.014 A 
HETATM   14  C13 UNK     1      19.043   4.302  29.539  1.00  0.00     0.024 A 
HETATM   15  C15 UNK     1      18.775   3.079  30.155  1.00  0.00     0.034 A 
HETATM   16  C14 UNK     1      18.280   3.049  31.458  1.00  0.00     0.024 A 
HETATM   17 Cl1  UNK     1      19.054   1.609  29.305  1.00  0.00    -0.084 Cl
HETATM   18  C12 UNK     1      18.052   4.241  32.147  1.00  0.00     0.014 A 
ENDBRANCH   4  12
BRANCH  10  19
HETATM   19  O2  UNK     1      15.946  12.151  34.853  1.00  0.00    -0.279 OA
BRANCH  19  20
HETATM   20  C16 UNK     1      14.885  12.105  35.772  1.00  0.00     0.260 C 
HETATM   21  O4  UNK     1      14.767  11.302  36.689  1.00  0.00    -0.265 OA
HETATM   22  C17 UNK     1      13.897  13.193  35.472  1.00  0.00     0.126 C 
ENDBRANCH  19  20
ENDBRANCH  10  19
TORSDOF 3
ENDMDL
MODEL 7
REMARK VINA RESULT:      -7.4      5.769      9.349
REMARK  3 active torsions:
REMARK  status: ('A' for Active; 'I' for Inactive)
REMARK    1  A    between atoms: C16_21  and  O2_3 
REMARK    2  A    between atoms: C9_14  and  O2_3 
REMARK    3  A    between atoms: C2_7  and  C5_10 
ROOT
HETATM    1  O1  UNK     1      18.861  -0.353  33.596  1.00  0.00    -0.274 OA
HETATM    2  O3  UNK     1      18.465  -1.002  35.746  1.00  0.00    -0.259 OA
HETATM    3  C1  UNK     1      20.224  -1.738  32.143  1.00  0.00    -0.001 A 
HETATM    4  C2  UNK     1      19.845  -2.437  34.443  1.00  0.00     0.051 A 
HETATM    5  C3  UNK     1      19.453  -0.600  32.344  1.00  0.00     0.092 A 
HETATM    6  C4  UNK     1      20.411  -2.664  33.247  1.00  0.00     0.032 A 
HETATM    7  C6  UNK     1      20.795  -1.953  30.885  1.00  0.00     0.017 A 
HETATM    8  C7  UNK     1      19.236   0.328  31.328  1.00  0.00     0.075 A 
HETATM    9  C8  UNK     1      19.009  -1.226  34.670  1.00  0.00     0.299 A 
HETATM   10  C9  UNK     1      19.809   0.108  30.078  1.00  0.00     0.081 A 
HETATM   11  C10 UNK     1      20.587  -1.030  29.856  1.00  0.00     0.038 A 
ENDROOT
BRANCH   4  12
HETATM   12  C5  UNK     1      20.078  -3.398  35.538  1.00  0.00    -0.020 A 
HETATM   13  C11 UNK     1      19.819  -4.754  35.342  1.00  0.00     0.014 A 
HETATM   14  C13 UNK     1      20.039  -5.663  36.377  1.00  0.00     0.024 A 
HETATM   15  C15 UNK     1      20.518  -5.215  37.608  1.00  0.00     0.034 A 
HETATM   16  C14 UNK     1      20.777  -3.858  37.804  1.00  0.00     0.024 A 
HETATM   17 Cl1  UNK     1      20.789  -6.336  38.886  1.00  0.00    -0.084 Cl
HETATM   18  C12 UNK     1      20.557  -2.949  36.768  1.00  0.00     0.014 A 
ENDBRANCH   4  12
BRANCH  10  19
HETATM   19  O2  UNK     1      19.611   1.002  29.070  1.00  0.00    -0.279 OA
BRANCH  19  20
HETATM   20  C16 UNK     1      18.412   1.726  29.173  1.00  0.00     0.260 C 
HETATM   21  O4  UNK     1      17.296   1.307  28.893  1.00  0.00    -0.265 OA
HETATM   22  C17 UNK     1      18.689   3.110  29.681  1.00  0.00     0.126 C 
ENDBRANCH  19  20
ENDBRANCH  10  19
TORSDOF 3
ENDMDL
MODEL 8
REMARK VINA RESULT:      -7.4     23.370     24.887
REMARK  3 active torsions:
REMARK  status: ('A' for Active; 'I' for Inactive)
REMARK    1  A    between atoms: C16_21  and  O2_3 
REMARK    2  A    between atoms: C9_14  and  O2_3 
REMARK    3  A    between atoms: C2_7  and  C5_10 
ROOT
HETATM    1  O1  UNK     1      11.912   7.437  10.101  1.00  0.00    -0.274 OA
HETATM    2  O3  UNK     1      13.531   8.459  11.340  1.00  0.00    -0.259 OA
HETATM    3  C1  UNK     1      12.125   7.325   7.686  1.00  0.00    -0.001 A 
HETATM    4  C2  UNK     1      13.850   8.451   8.983  1.00  0.00     0.051 A 
HETATM    5  C3  UNK     1      11.422   7.030   8.847  1.00  0.00     0.092 A 
HETATM    6  C4  UNK     1      13.373   8.064   7.789  1.00  0.00     0.032 A 
HETATM    7  C6  UNK     1      11.609   6.903   6.458  1.00  0.00     0.017 A 
HETATM    8  C7  UNK     1      10.218   6.327   8.817  1.00  0.00     0.075 A 
HETATM    9  C8  UNK     1      13.110   8.134  10.236  1.00  0.00     0.299 A 
HETATM   10  C9  UNK     1       9.710   5.910   7.590  1.00  0.00     0.081 A 
HETATM   11  C10 UNK     1      10.403   6.197   6.412  1.00  0.00     0.038 A 
ENDROOT
BRANCH   4  12
HETATM   12  C5  UNK     1      15.112   9.212   9.035  1.00  0.00    -0.020 A 
HETATM   13  C11 UNK     1      16.204   8.705   9.740  1.00  0.00     0.014 A 
HETATM   14  C13 UNK     1      17.398   9.425   9.789  1.00  0.00     0.024 A 
HETATM   15  C15 UNK     1      17.500  10.652   9.133  1.00  0.00     0.034 A 
HETATM   16  C14 UNK     1      16.408  11.158   8.428  1.00  0.00     0.024 A 
HETATM   17 Cl1  UNK     1      18.972  11.540   9.195  1.00  0.00    -0.084 Cl
HETATM   18  C12 UNK     1      15.214  10.438   8.378  1.00  0.00     0.014 A 
ENDBRANCH   4  12
BRANCH  10  19
HETATM   19  O2  UNK     1       8.536   5.223   7.537  1.00  0.00    -0.279 OA
BRANCH  19  20
HETATM   20  C16 UNK     1       7.606   5.598   8.521  1.00  0.00     0.260 C 
HETATM   21  O4  UNK     1       7.112   6.711   8.651  1.00  0.00    -0.265 OA
HETATM   22  C17 UNK     1       7.298   4.429   9.409  1.00  0.00     0.126 C 
ENDBRANCH  19  20
ENDBRANCH  10  19
TORSDOF 3
ENDMDL
MODEL 9
REMARK VINA RESULT:      -7.3     15.015     18.752
REMARK  3 active torsions:
REMARK  status: ('A' for Active; 'I' for Inactive)
REMARK    1  A    between atoms: C16_21  and  O2_3 
REMARK    2  A    between atoms: C9_14  and  O2_3 
REMARK    3  A    between atoms: C2_7  and  C5_10 
ROOT
HETATM    1  O1  UNK     1      19.191   0.305  14.804  1.00  0.00    -0.274 OA
HETATM    2  O3  UNK     1      19.301  -1.002  12.939  1.00  0.00    -0.259 OA
HETATM    3  C1  UNK     1      19.053  -0.723  16.998  1.00  0.00    -0.001 A 
HETATM    4  C2  UNK     1      19.136  -2.140  15.021  1.00  0.00     0.051 A 
HETATM    5  C3  UNK     1      19.116   0.416  16.204  1.00  0.00     0.092 A 
HETATM    6  C4  UNK     1      19.060  -2.027  16.357  1.00  0.00     0.032 A 
HETATM    7  C6  UNK     1      18.983  -0.575  18.386  1.00  0.00     0.017 A 
HETATM    8  C7  UNK     1      19.112   1.696  16.756  1.00  0.00     0.075 A 
HETATM    9  C8  UNK     1      19.213  -0.928  14.159  1.00  0.00     0.299 A 
HETATM   10  C9  UNK     1      19.041   1.835  18.140  1.00  0.00     0.081 A 
HETATM   11  C10 UNK     1      18.976   0.702  18.954  1.00  0.00     0.038 A 
ENDROOT
BRANCH   4  12
HETATM   12  C5  UNK     1      19.123  -3.486  14.416  1.00  0.00    -0.020 A 
HETATM   13  C11 UNK     1      20.243  -3.949  13.726  1.00  0.00     0.014 A 
HETATM   14  C13 UNK     1      20.231  -5.222  13.153  1.00  0.00     0.024 A 
HETATM   15  C15 UNK     1      19.100  -6.030  13.273  1.00  0.00     0.034 A 
HETATM   16  C14 UNK     1      17.981  -5.565  13.964  1.00  0.00     0.024 A 
HETATM   17 Cl1  UNK     1      19.086  -7.598  12.566  1.00  0.00    -0.084 Cl
HETATM   18  C12 UNK     1      17.993  -4.293  14.536  1.00  0.00     0.014 A 
ENDBRANCH   4  12
BRANCH  10  19
HETATM   19  O2  UNK     1      19.033   3.075  18.700  1.00  0.00    -0.279 OA
BRANCH  19  20
HETATM   20  C16 UNK     1      20.279   3.486  19.202  1.00  0.00     0.260 C 
HETATM   21  O4  UNK     1      20.821   3.054  20.212  1.00  0.00    -0.265 OA
HETATM   22  C17 UNK     1      20.866   4.545  18.317  1.00  0.00     0.126 C 
ENDBRANCH  19  20
ENDBRANCH  10  19
TORSDOF 3
ENDMDL
MODEL 10
REMARK VINA RESULT:      -7.1      8.053     10.875
REMARK  3 active torsions:
REMARK  status: ('A' for Active; 'I' for Inactive)
REMARK    1  A    between atoms: C16_21  and  O2_3 
REMARK    2  A    between atoms: C9_14  and  O2_3 
REMARK    3  A    between atoms: C2_7  and  C5_10 
ROOT
HETATM    1  O1  UNK     1      21.537  -5.420  37.145  1.00  0.00    -0.274 OA
HETATM    2  O3  UNK     1      21.823  -3.175  37.429  1.00  0.00    -0.259 OA
HETATM    3  C1  UNK     1      19.397  -6.283  36.394  1.00  0.00    -0.001 A 
HETATM    4  C2  UNK     1      19.666  -3.887  36.722  1.00  0.00     0.051 A 
HETATM    5  C3  UNK     1      20.714  -6.500  36.779  1.00  0.00     0.092 A 
HETATM    6  C4  UNK     1      18.884  -4.923  36.380  1.00  0.00     0.032 A 
HETATM    7  C6  UNK     1      18.609  -7.380  36.035  1.00  0.00     0.017 A 
HETATM    8  C7  UNK     1      21.267  -7.779  36.817  1.00  0.00     0.075 A 
HETATM    9  C8  UNK     1      21.081  -4.104  37.129  1.00  0.00     0.299 A 
HETATM   10  C9  UNK     1      20.475  -8.868  36.459  1.00  0.00     0.081 A 
HETATM   11  C10 UNK     1      19.149  -8.670  36.069  1.00  0.00     0.038 A 
ENDROOT
BRANCH   4  12
HETATM   12  C5  UNK     1      19.095  -2.526  36.707  1.00  0.00    -0.020 A 
HETATM   13  C11 UNK     1      19.217  -1.732  35.567  1.00  0.00     0.014 A 
HETATM   14  C13 UNK     1      18.677  -0.446  35.553  1.00  0.00     0.024 A 
HETATM   15  C15 UNK     1      18.016   0.046  36.679  1.00  0.00     0.034 A 
HETATM   16  C14 UNK     1      17.895  -0.749  37.818  1.00  0.00     0.024 A 
HETATM   17 Cl1  UNK     1      17.351   1.633  36.661  1.00  0.00    -0.084 Cl
HETATM   18  C12 UNK     1      18.434  -2.036  37.833  1.00  0.00     0.014 A 
ENDBRANCH   4  12
BRANCH  10  19
HETATM   19  O2  UNK     1      20.993 -10.126  36.489  1.00  0.00    -0.279 OA
BRANCH  19  20
HETATM   20  C16 UNK     1      21.888 -10.404  35.443  1.00  0.00     0.260 C 
HETATM   21  O4  UNK     1      21.654 -10.273  34.248  1.00  0.00    -0.265 OA
HETATM   22  C17 UNK     1      23.192 -10.894  35.998  1.00  0.00     0.126 C 
ENDBRANCH  19  20
ENDBRANCH  10  19
TORSDOF 3
ENDMDL
