MODEL 1
REMARK VINA RESULT:      -8.4      0.000      0.000
REMARK  3 active torsions:
REMARK  status: ('A' for Active; 'I' for Inactive)
REMARK       I    between atoms: C11_15  and  N1_4 
REMARK    1  A    between atoms: C3_7  and  N1_4 
REMARK    2  A    between atoms: C1_5  and  C2_6 
REMARK    3  A    between atoms: C11_15  and  C12_16 
ROOT
HETATM    1  O2  UNK     1      18.217  -5.647  36.737  1.00  0.00    -0.267 OA
HETATM    2  N1  UNK     1      20.517  -5.563  36.236  1.00  0.00    -0.322 N 
HETATM    3  C11 UNK     1      19.245  -5.043  36.431  1.00  0.00     0.262 C 
HETATM    4  H9  UNK     1      21.293  -4.917  36.115  1.00  0.00     0.169 HD
ENDROOT
BRANCH   3   5
HETATM    5  C12 UNK     1      19.204  -3.589  36.232  1.00  0.00     0.108 A 
HETATM    6  C14 UNK     1      18.498  -2.889  37.128  1.00  0.00     0.037 A 
HETATM    7  C13 UNK     1      18.398  -1.443  37.014  1.00  0.00    -0.001 A 
HETATM    8  C15 UNK     1      19.048  -0.804  35.963  1.00  0.00     0.089 A 
HETATM    9  C17 UNK     1      17.671  -0.673  37.927  1.00  0.00     0.014 A 
HETATM   10  O1  UNK     1      19.791  -1.546  35.024  1.00  0.00    -0.274 OA
HETATM   11  C18 UNK     1      18.991   0.579  35.798  1.00  0.00     0.038 A 
HETATM   12  C16 UNK     1      19.904  -2.931  35.107  1.00  0.00     0.304 A 
HETATM   13  O3  UNK     1      20.552  -3.569  34.283  1.00  0.00    -0.259 OA
HETATM   14  C20 UNK     1      18.265   1.339  36.712  1.00  0.00     0.003 A 
HETATM   15  C19 UNK     1      17.606   0.716  37.773  1.00  0.00     0.001 A 
ENDBRANCH   3   5
BRANCH   2  16
HETATM   16  C3  UNK     1      20.924  -6.915  36.344  1.00  0.00     0.047 A 
HETATM   17  C2  UNK     1      21.336  -7.405  37.574  1.00  0.00    -0.027 A 
HETATM   18  C7  UNK     1      21.739  -8.737  37.681  1.00  0.00     0.010 A 
HETATM   19  C9  UNK     1      21.725  -9.561  36.556  1.00  0.00     0.001 A 
HETATM   20  C8  UNK     1      21.308  -9.055  35.325  1.00  0.00     0.009 A 
HETATM   21  C4  UNK     1      20.906  -7.724  35.218  1.00  0.00    -0.035 A 
HETATM   22  C10 UNK     1      20.465  -7.212  33.886  1.00  0.00     0.050 C 
BRANCH  17  23
HETATM   23  C1  UNK     1      21.363  -6.546  38.797  1.00  0.00     0.013 C 
HETATM   24  C5  UNK     1      22.601  -6.812  39.673  1.00  0.00     0.015 C 
HETATM   25  C6  UNK     1      20.083  -6.685  39.639  1.00  0.00     0.015 C 
ENDBRANCH  17  23
ENDBRANCH   2  16
TORSDOF 3
ENDMDL
MODEL 2
REMARK VINA RESULT:      -8.4      4.141      6.979
REMARK  3 active torsions:
REMARK  status: ('A' for Active; 'I' for Inactive)
REMARK       I    between atoms: C11_15  and  N1_4 
REMARK    1  A    between atoms: C3_7  and  N1_4 
REMARK    2  A    between atoms: C1_5  and  C2_6 
REMARK    3  A    between atoms: C11_15  and  C12_16 
ROOT
HETATM    1  O2  UNK     1      17.558  -0.893  32.978  1.00  0.00    -0.267 OA
HETATM    2  N1  UNK     1      19.003   0.120  34.538  1.00  0.00    -0.322 N 
HETATM    3  C11 UNK     1      18.297   0.018  33.347  1.00  0.00     0.262 C 
HETATM    4  H9  UNK     1      19.468   0.998  34.754  1.00  0.00     0.169 HD
ENDROOT
BRANCH   3   5
HETATM    5  C12 UNK     1      18.510   1.182  32.476  1.00  0.00     0.108 A 
HETATM    6  C14 UNK     1      18.145   2.368  32.976  1.00  0.00     0.037 A 
HETATM    7  C13 UNK     1      18.316   3.579  32.188  1.00  0.00    -0.001 A 
HETATM    8  C15 UNK     1      18.863   3.480  30.912  1.00  0.00     0.089 A 
HETATM    9  C17 UNK     1      17.950   4.839  32.669  1.00  0.00     0.014 A 
HETATM   10  O1  UNK     1      19.246   2.228  30.393  1.00  0.00    -0.274 OA
HETATM   11  C18 UNK     1      19.053   4.601  30.106  1.00  0.00     0.038 A 
HETATM   12  C16 UNK     1      19.094   1.053  31.123  1.00  0.00     0.304 A 
HETATM   13  O3  UNK     1      19.428  -0.033  30.661  1.00  0.00    -0.259 OA
HETATM   14  C20 UNK     1      18.685   5.854  30.594  1.00  0.00     0.003 A 
HETATM   15  C19 UNK     1      18.135   5.972  31.872  1.00  0.00     0.001 A 
ENDBRANCH   3   5
BRANCH   2  16
HETATM   16  C3  UNK     1      19.033  -0.809  35.607  1.00  0.00     0.047 A 
HETATM   17  C2  UNK     1      18.333  -0.530  36.770  1.00  0.00    -0.027 A 
HETATM   18  C7  UNK     1      18.363  -1.444  37.824  1.00  0.00     0.010 A 
HETATM   19  C9  UNK     1      19.094  -2.625  37.700  1.00  0.00     0.001 A 
HETATM   20  C8  UNK     1      19.795  -2.893  36.524  1.00  0.00     0.009 A 
HETATM   21  C4  UNK     1      19.765  -1.979  35.471  1.00  0.00    -0.035 A 
HETATM   22  C10 UNK     1      20.525  -2.294  34.224  1.00  0.00     0.050 C 
BRANCH  17  23
HETATM   23  C1  UNK     1      17.541   0.728  36.932  1.00  0.00     0.013 C 
HETATM   24  C5  UNK     1      17.623   1.291  38.362  1.00  0.00     0.015 C 
HETATM   25  C6  UNK     1      16.068   0.549  36.521  1.00  0.00     0.015 C 
ENDBRANCH  17  23
ENDBRANCH   2  16
TORSDOF 3
ENDMDL
MODEL 3
REMARK VINA RESULT:      -8.2      5.558      8.600
REMARK  3 active torsions:
REMARK  status: ('A' for Active; 'I' for Inactive)
REMARK       I    between atoms: C11_15  and  N1_4 
REMARK    1  A    between atoms: C3_7  and  N1_4 
REMARK    2  A    between atoms: C1_5  and  C2_6 
REMARK    3  A    between atoms: C11_15  and  C12_16 
ROOT
HETATM    1  O2  UNK     1      25.787  -9.086  39.561  1.00  0.00    -0.267 OA
HETATM    2  N1  UNK     1      25.178  -8.335  37.413  1.00  0.00    -0.322 N 
HETATM    3  C11 UNK     1      25.909  -8.337  38.593  1.00  0.00     0.262 C 
HETATM    4  H9  UNK     1      25.486  -7.736  36.650  1.00  0.00     0.169 HD
ENDROOT
BRANCH   3   5
HETATM    5  C12 UNK     1      26.936  -7.287  38.609  1.00  0.00     0.108 A 
HETATM    6  C14 UNK     1      28.204  -7.699  38.501  1.00  0.00     0.037 A 
HETATM    7  C13 UNK     1      29.291  -6.733  38.508  1.00  0.00    -0.001 A 
HETATM    8  C15 UNK     1      28.990  -5.380  38.629  1.00  0.00     0.089 A 
HETATM    9  C17 UNK     1      30.630  -7.118  38.396  1.00  0.00     0.014 A 
HETATM   10  O1  UNK     1      27.652  -4.953  38.742  1.00  0.00    -0.274 OA
HETATM   11  C18 UNK     1      29.984  -4.404  38.643  1.00  0.00     0.038 A 
HETATM   12  C16 UNK     1      26.591  -5.854  38.738  1.00  0.00     0.304 A 
HETATM   13  O3  UNK     1      25.429  -5.472  38.840  1.00  0.00    -0.259 OA
HETATM   14  C20 UNK     1      31.317  -4.797  38.531  1.00  0.00     0.003 A 
HETATM   15  C19 UNK     1      31.639  -6.150  38.409  1.00  0.00     0.001 A 
ENDBRANCH   3   5
BRANCH   2  16
HETATM   16  C3  UNK     1      24.118  -9.202  37.052  1.00  0.00     0.047 A 
HETATM   17  C2  UNK     1      22.810  -8.820  37.309  1.00  0.00    -0.027 A 
HETATM   18  C7  UNK     1      21.765  -9.675  36.954  1.00  0.00     0.010 A 
HETATM   19  C9  UNK     1      22.042 -10.900  36.348  1.00  0.00     0.001 A 
HETATM   20  C8  UNK     1      23.363 -11.272  36.097  1.00  0.00     0.009 A 
HETATM   21  C4  UNK     1      24.407 -10.418  36.451  1.00  0.00    -0.035 A 
HETATM   22  C10 UNK     1      25.811 -10.844  36.169  1.00  0.00     0.050 C 
BRANCH  17  23
HETATM   23  C1  UNK     1      22.482  -7.514  37.957  1.00  0.00     0.013 C 
HETATM   24  C5  UNK     1      22.264  -7.652  39.475  1.00  0.00     0.015 C 
HETATM   25  C6  UNK     1      21.264  -6.830  37.311  1.00  0.00     0.015 C 
ENDBRANCH  17  23
ENDBRANCH   2  16
TORSDOF 3
ENDMDL
MODEL 4
REMARK VINA RESULT:      -7.8      4.233      7.475
REMARK  3 active torsions:
REMARK  status: ('A' for Active; 'I' for Inactive)
REMARK       I    between atoms: C11_15  and  N1_4 
REMARK    1  A    between atoms: C3_7  and  N1_4 
REMARK    2  A    between atoms: C1_5  and  C2_6 
REMARK    3  A    between atoms: C11_15  and  C12_16 
ROOT
HETATM    1  O2  UNK     1      22.981  -8.590  39.985  1.00  0.00    -0.267 OA
HETATM    2  N1  UNK     1      22.746  -8.287  37.662  1.00  0.00    -0.322 N 
HETATM    3  C11 UNK     1      23.360  -8.153  38.900  1.00  0.00     0.262 C 
HETATM    4  H9  UNK     1      23.250  -7.982  36.833  1.00  0.00     0.169 HD
ENDROOT
BRANCH   3   5
HETATM    5  C12 UNK     1      24.610  -7.387  38.818  1.00  0.00     0.108 A 
HETATM    6  C14 UNK     1      25.740  -8.103  38.774  1.00  0.00     0.037 A 
HETATM    7  C13 UNK     1      27.028  -7.433  38.693  1.00  0.00    -0.001 A 
HETATM    8  C15 UNK     1      27.064  -6.043  38.663  1.00  0.00     0.089 A 
HETATM    9  C17 UNK     1      28.233  -8.141  38.645  1.00  0.00     0.014 A 
HETATM   10  O1  UNK     1      25.871  -5.296  38.709  1.00  0.00    -0.274 OA
HETATM   11  C18 UNK     1      28.265  -5.341  38.587  1.00  0.00     0.038 A 
HETATM   12  C16 UNK     1      24.623  -5.908  38.787  1.00  0.00     0.304 A 
HETATM   13  O3  UNK     1      23.590  -5.249  38.828  1.00  0.00    -0.259 OA
HETATM   14  C20 UNK     1      29.462  -6.054  38.539  1.00  0.00     0.003 A 
HETATM   15  C19 UNK     1      29.446  -7.449  38.568  1.00  0.00     0.001 A 
ENDBRANCH   3   5
BRANCH   2  16
HETATM   16  C3  UNK     1      21.535  -8.959  37.365  1.00  0.00     0.047 A 
HETATM   17  C2  UNK     1      20.327  -8.352  37.672  1.00  0.00    -0.027 A 
HETATM   18  C7  UNK     1      19.134  -9.015  37.380  1.00  0.00     0.010 A 
HETATM   19  C9  UNK     1      19.165 -10.277  36.787  1.00  0.00     0.001 A 
HETATM   20  C8  UNK     1      20.388 -10.876  36.485  1.00  0.00     0.009 A 
HETATM   21  C4  UNK     1      21.580 -10.214  36.777  1.00  0.00    -0.035 A 
HETATM   22  C10 UNK     1      22.874 -10.882  36.441  1.00  0.00     0.050 C 
BRANCH  17  23
HETATM   23  C1  UNK     1      20.262  -7.001  38.308  1.00  0.00     0.013 C 
HETATM   24  C5  UNK     1      19.735  -7.059  39.753  1.00  0.00     0.015 C 
HETATM   25  C6  UNK     1      19.426  -6.005  37.484  1.00  0.00     0.015 C 
ENDBRANCH  17  23
ENDBRANCH   2  16
TORSDOF 3
ENDMDL
MODEL 5
REMARK VINA RESULT:      -7.8      6.618     12.524
REMARK  3 active torsions:
REMARK  status: ('A' for Active; 'I' for Inactive)
REMARK       I    between atoms: C11_15  and  N1_4 
REMARK    1  A    between atoms: C3_7  and  N1_4 
REMARK    2  A    between atoms: C1_5  and  C2_6 
REMARK    3  A    between atoms: C11_15  and  C12_16 
ROOT
HETATM    1  O2  UNK     1      18.588   5.780  31.436  1.00  0.00    -0.267 OA
HETATM    2  N1  UNK     1      17.823   6.161  33.630  1.00  0.00    -0.322 N 
HETATM    3  C11 UNK     1      18.245   5.395  32.553  1.00  0.00     0.262 C 
HETATM    4  H9  UNK     1      17.698   5.706  34.532  1.00  0.00     0.169 HD
ENDROOT
BRANCH   3   5
HETATM    5  C12 UNK     1      18.257   3.960  32.864  1.00  0.00     0.108 A 
HETATM    6  C14 UNK     1      18.334   3.637  34.161  1.00  0.00     0.037 A 
HETATM    7  C13 UNK     1      18.354   2.242  34.568  1.00  0.00    -0.001 A 
HETATM    8  C15 UNK     1      18.290   1.254  33.591  1.00  0.00     0.089 A 
HETATM    9  C17 UNK     1      18.433   1.859  35.910  1.00  0.00     0.014 A 
HETATM   10  O1  UNK     1      18.209   1.600  32.228  1.00  0.00    -0.274 OA
HETATM   11  C18 UNK     1      18.305  -0.102  33.915  1.00  0.00     0.038 A 
HETATM   12  C16 UNK     1      18.188   2.927  31.807  1.00  0.00     0.304 A 
HETATM   13  O3  UNK     1      18.119   3.218  30.618  1.00  0.00    -0.259 OA
HETATM   14  C20 UNK     1      18.385  -0.474  35.255  1.00  0.00     0.003 A 
HETATM   15  C19 UNK     1      18.448   0.503  36.250  1.00  0.00     0.001 A 
ENDBRANCH   3   5
BRANCH   2  16
HETATM   16  C3  UNK     1      17.690   7.570  33.691  1.00  0.00     0.047 A 
HETATM   17  C2  UNK     1      16.443   8.144  33.500  1.00  0.00    -0.027 A 
HETATM   18  C7  UNK     1      16.312   9.532  33.559  1.00  0.00     0.010 A 
HETATM   19  C9  UNK     1      17.431  10.328  33.806  1.00  0.00     0.001 A 
HETATM   20  C8  UNK     1      18.680   9.736  33.995  1.00  0.00     0.009 A 
HETATM   21  C4  UNK     1      18.811   8.349  33.936  1.00  0.00    -0.035 A 
HETATM   22  C10 UNK     1      20.161   7.745  34.143  1.00  0.00     0.050 C 
BRANCH  17  23
HETATM   23  C1  UNK     1      15.226   7.318  33.233  1.00  0.00     0.013 C 
HETATM   24  C5  UNK     1      14.929   7.184  31.729  1.00  0.00     0.015 C 
HETATM   25  C6  UNK     1      13.983   7.851  33.969  1.00  0.00     0.015 C 
ENDBRANCH  17  23
ENDBRANCH   2  16
TORSDOF 3
ENDMDL
MODEL 6
REMARK VINA RESULT:      -7.8      4.041      7.953
REMARK  3 active torsions:
REMARK  status: ('A' for Active; 'I' for Inactive)
REMARK       I    between atoms: C11_15  and  N1_4 
REMARK    1  A    between atoms: C3_7  and  N1_4 
REMARK    2  A    between atoms: C1_5  and  C2_6 
REMARK    3  A    between atoms: C11_15  and  C12_16 
ROOT
HETATM    1  O2  UNK     1      22.294  -8.257  39.826  1.00  0.00    -0.267 OA
HETATM    2  N1  UNK     1      22.231  -7.373  37.645  1.00  0.00    -0.322 N 
HETATM    3  C11 UNK     1      22.831  -7.776  38.830  1.00  0.00     0.262 C 
HETATM    4  H9  UNK     1      22.826  -7.117  36.861  1.00  0.00     0.169 HD
ENDROOT
BRANCH   3   5
HETATM    5  C12 UNK     1      24.285  -7.571  38.812  1.00  0.00     0.108 A 
HETATM    6  C14 UNK     1      25.037  -8.678  38.806  1.00  0.00     0.037 A 
HETATM    7  C13 UNK     1      26.488  -8.578  38.790  1.00  0.00    -0.001 A 
HETATM    8  C15 UNK     1      27.075  -7.317  38.779  1.00  0.00     0.089 A 
HETATM    9  C17 UNK     1      27.312  -9.706  38.783  1.00  0.00     0.014 A 
HETATM   10  O1  UNK     1      26.278  -6.156  38.784  1.00  0.00    -0.274 OA
HETATM   11  C18 UNK     1      28.459  -7.152  38.764  1.00  0.00     0.038 A 
HETATM   12  C16 UNK     1      24.887  -6.220  38.800  1.00  0.00     0.304 A 
HETATM   13  O3  UNK     1      24.201  -5.203  38.807  1.00  0.00    -0.259 OA
HETATM   14  C20 UNK     1      29.274  -8.283  38.757  1.00  0.00     0.003 A 
HETATM   15  C19 UNK     1      28.702  -9.556  38.767  1.00  0.00     0.001 A 
ENDBRANCH   3   5
BRANCH   2  16
HETATM   16  C3  UNK     1      20.855  -7.425  37.310  1.00  0.00     0.047 A 
HETATM   17  C2  UNK     1      20.293  -8.634  36.931  1.00  0.00    -0.027 A 
HETATM   18  C7  UNK     1      18.938  -8.686  36.601  1.00  0.00     0.010 A 
HETATM   19  C9  UNK     1      18.164  -7.527  36.654  1.00  0.00     0.001 A 
HETATM   20  C8  UNK     1      18.743  -6.318  37.037  1.00  0.00     0.009 A 
HETATM   21  C4  UNK     1      20.097  -6.266  37.366  1.00  0.00    -0.035 A 
HETATM   22  C10 UNK     1      20.688  -4.956  37.773  1.00  0.00     0.050 C 
BRANCH  17  23
HETATM   23  C1  UNK     1      21.097  -9.893  36.864  1.00  0.00     0.013 C 
HETATM   24  C5  UNK     1      21.564 -10.214  35.432  1.00  0.00     0.015 C 
HETATM   25  C6  UNK     1      20.347 -11.099  37.455  1.00  0.00     0.015 C 
ENDBRANCH  17  23
ENDBRANCH   2  16
TORSDOF 3
ENDMDL
MODEL 7
REMARK VINA RESULT:      -7.7     29.489     31.782
REMARK  3 active torsions:
REMARK  status: ('A' for Active; 'I' for Inactive)
REMARK       I    between atoms: C11_15  and  N1_4 
REMARK    1  A    between atoms: C3_7  and  N1_4 
REMARK    2  A    between atoms: C1_5  and  C2_6 
REMARK    3  A    between atoms: C11_15  and  C12_16 
ROOT
HETATM    1  O2  UNK     1      12.937   6.959  10.573  1.00  0.00    -0.267 OA
HETATM    2  N1  UNK     1      12.043   8.553   9.088  1.00  0.00    -0.322 N 
HETATM    3  C11 UNK     1      13.027   7.965   9.870  1.00  0.00     0.262 C 
HETATM    4  H9  UNK     1      12.307   9.307   8.459  1.00  0.00     0.169 HD
ENDROOT
BRANCH   3   5
HETATM    5  C12 UNK     1      14.301   8.689   9.794  1.00  0.00     0.108 A 
HETATM    6  C14 UNK     1      14.426   9.562   8.787  1.00  0.00     0.037 A 
HETATM    7  C13 UNK     1      15.652  10.327   8.627  1.00  0.00    -0.001 A 
HETATM    8  C15 UNK     1      16.688  10.136   9.536  1.00  0.00     0.089 A 
HETATM    9  C17 UNK     1      15.825  11.249   7.591  1.00  0.00     0.014 A 
HETATM   10  O1  UNK     1      16.551   9.216  10.594  1.00  0.00    -0.274 OA
HETATM   11  C18 UNK     1      17.889  10.836   9.438  1.00  0.00     0.038 A 
HETATM   12  C16 UNK     1      15.389   8.470  10.772  1.00  0.00     0.304 A 
HETATM   13  O3  UNK     1      15.280   7.669  11.695  1.00  0.00    -0.259 OA
HETATM   14  C20 UNK     1      18.053  11.754   8.402  1.00  0.00     0.003 A 
HETATM   15  C19 UNK     1      17.024  11.960   7.482  1.00  0.00     0.001 A 
ENDBRANCH   3   5
BRANCH   2  16
HETATM   16  C3  UNK     1      10.702   8.127   8.920  1.00  0.00     0.047 A 
HETATM   17  C2  UNK     1      10.425   7.082   8.052  1.00  0.00    -0.027 A 
HETATM   18  C7  UNK     1       9.104   6.662   7.886  1.00  0.00     0.010 A 
HETATM   19  C9  UNK     1       8.078   7.295   8.588  1.00  0.00     0.001 A 
HETATM   20  C8  UNK     1       8.372   8.345   9.457  1.00  0.00     0.009 A 
HETATM   21  C4  UNK     1       9.692   8.765   9.623  1.00  0.00    -0.035 A 
HETATM   22  C10 UNK     1       9.974   9.893  10.561  1.00  0.00     0.050 C 
BRANCH  17  23
HETATM   23  C1  UNK     1      11.502   6.385   7.285  1.00  0.00     0.013 C 
HETATM   24  C5  UNK     1      11.124   6.170   5.809  1.00  0.00     0.015 C 
HETATM   25  C6  UNK     1      11.904   5.045   7.926  1.00  0.00     0.015 C 
ENDBRANCH  17  23
ENDBRANCH   2  16
TORSDOF 3
ENDMDL
MODEL 8
REMARK VINA RESULT:      -7.7      2.621      7.346
REMARK  3 active torsions:
REMARK  status: ('A' for Active; 'I' for Inactive)
REMARK       I    between atoms: C11_15  and  N1_4 
REMARK    1  A    between atoms: C3_7  and  N1_4 
REMARK    2  A    between atoms: C1_5  and  C2_6 
REMARK    3  A    between atoms: C11_15  and  C12_16 
ROOT
HETATM    1  O2  UNK     1      21.557  -1.999  35.022  1.00  0.00    -0.267 OA
HETATM    2  N1  UNK     1      19.432  -2.331  34.064  1.00  0.00    -0.322 N 
HETATM    3  C11 UNK     1      20.486  -2.596  34.926  1.00  0.00     0.262 C 
HETATM    4  H9  UNK     1      18.557  -2.834  34.196  1.00  0.00     0.169 HD
ENDROOT
BRANCH   3   5
HETATM    5  C12 UNK     1      20.212  -3.744  35.800  1.00  0.00     0.108 A 
HETATM    6  C14 UNK     1      20.094  -4.932  35.196  1.00  0.00     0.037 A 
HETATM    7  C13 UNK     1      19.821  -6.128  35.977  1.00  0.00    -0.001 A 
HETATM    8  C15 UNK     1      19.686  -6.014  37.357  1.00  0.00     0.089 A 
HETATM    9  C17 UNK     1      19.690  -7.389  35.388  1.00  0.00     0.014 A 
HETATM   10  O1  UNK     1      19.813  -4.761  37.988  1.00  0.00    -0.274 OA
HETATM   11  C18 UNK     1      19.424  -7.121  38.163  1.00  0.00     0.038 A 
HETATM   12  C16 UNK     1      20.073  -3.599  37.266  1.00  0.00     0.304 A 
HETATM   13  O3  UNK     1      20.180  -2.512  37.824  1.00  0.00    -0.259 OA
HETATM   14  C20 UNK     1      19.295  -8.374  37.568  1.00  0.00     0.003 A 
HETATM   15  C19 UNK     1      19.428  -8.508  36.184  1.00  0.00     0.001 A 
ENDBRANCH   3   5
BRANCH   2  16
HETATM   16  C3  UNK     1      19.347  -1.305  33.091  1.00  0.00     0.047 A 
HETATM   17  C2  UNK     1      18.667  -0.135  33.394  1.00  0.00    -0.027 A 
HETATM   18  C7  UNK     1      18.583   0.875  32.435  1.00  0.00     0.010 A 
HETATM   19  C9  UNK     1      19.179   0.702  31.186  1.00  0.00     0.001 A 
HETATM   20  C8  UNK     1      19.860  -0.480  30.896  1.00  0.00     0.009 A 
HETATM   21  C4  UNK     1      19.943  -1.490  31.853  1.00  0.00    -0.035 A 
HETATM   22  C10 UNK     1      20.679  -2.745  31.512  1.00  0.00     0.050 C 
BRANCH  17  23
HETATM   23  C1  UNK     1      18.018   0.079  34.723  1.00  0.00     0.013 C 
HETATM   24  C5  UNK     1      16.554  -0.397  34.743  1.00  0.00     0.015 C 
HETATM   25  C6  UNK     1      18.101   1.545  35.186  1.00  0.00     0.015 C 
ENDBRANCH  17  23
ENDBRANCH   2  16
TORSDOF 3
ENDMDL
MODEL 9
REMARK VINA RESULT:      -7.6      7.466     10.811
REMARK  3 active torsions:
REMARK  status: ('A' for Active; 'I' for Inactive)
REMARK       I    between atoms: C11_15  and  N1_4 
REMARK    1  A    between atoms: C3_7  and  N1_4 
REMARK    2  A    between atoms: C1_5  and  C2_6 
REMARK    3  A    between atoms: C11_15  and  C12_16 
ROOT
HETATM    1  O2  UNK     1      28.810  -9.244  39.070  1.00  0.00    -0.267 OA
HETATM    2  N1  UNK     1      28.872  -7.589  37.396  1.00  0.00    -0.322 N 
HETATM    3  C11 UNK     1      28.307  -8.615  38.140  1.00  0.00     0.262 C 
HETATM    4  H9  UNK     1      28.281  -7.078  36.744  1.00  0.00     0.169 HD
ENDROOT
BRANCH   3   5
HETATM    5  C12 UNK     1      26.941  -8.928  37.704  1.00  0.00     0.108 A 
HETATM    6  C14 UNK     1      26.764 -10.121  37.123  1.00  0.00     0.037 A 
HETATM    7  C13 UNK     1      25.446 -10.520  36.657  1.00  0.00    -0.001 A 
HETATM    8  C15 UNK     1      24.378  -9.645  36.824  1.00  0.00     0.089 A 
HETATM    9  C17 UNK     1      25.216 -11.756  36.045  1.00  0.00     0.014 A 
HETATM   10  O1  UNK     1      24.570  -8.391  37.437  1.00  0.00    -0.274 OA
HETATM   11  C18 UNK     1      23.091  -9.967  36.399  1.00  0.00     0.038 A 
HETATM   12  C16 UNK     1      25.820  -7.981  37.893  1.00  0.00     0.304 A 
HETATM   13  O3  UNK     1      25.978  -6.886  38.424  1.00  0.00    -0.259 OA
HETATM   14  C20 UNK     1      22.870 -11.201  35.790  1.00  0.00     0.003 A 
HETATM   15  C19 UNK     1      23.929 -12.093  35.614  1.00  0.00     0.001 A 
ENDBRANCH   3   5
BRANCH   2  16
HETATM   16  C3  UNK     1      30.165  -7.028  37.539  1.00  0.00     0.047 A 
HETATM   17  C2  UNK     1      31.237  -7.615  36.885  1.00  0.00    -0.027 A 
HETATM   18  C7  UNK     1      32.511  -7.063  37.026  1.00  0.00     0.010 A 
HETATM   19  C9  UNK     1      32.696  -5.932  37.820  1.00  0.00     0.001 A 
HETATM   20  C8  UNK     1      31.608  -5.351  38.472  1.00  0.00     0.009 A 
HETATM   21  C4  UNK     1      30.335  -5.903  38.332  1.00  0.00    -0.035 A 
HETATM   22  C10 UNK     1      29.190  -5.259  39.043  1.00  0.00     0.050 C 
BRANCH  17  23
HETATM   23  C1  UNK     1      31.070  -8.828  36.028  1.00  0.00     0.013 C 
HETATM   24  C5  UNK     1      31.414 -10.127  36.779  1.00  0.00     0.015 C 
HETATM   25  C6  UNK     1      31.886  -8.742  34.726  1.00  0.00     0.015 C 
ENDBRANCH  17  23
ENDBRANCH   2  16
TORSDOF 3
ENDMDL
MODEL 10
REMARK VINA RESULT:      -7.6      6.623      9.353
REMARK  3 active torsions:
REMARK  status: ('A' for Active; 'I' for Inactive)
REMARK       I    between atoms: C11_15  and  N1_4 
REMARK    1  A    between atoms: C3_7  and  N1_4 
REMARK    2  A    between atoms: C1_5  and  C2_6 
REMARK    3  A    between atoms: C11_15  and  C12_16 
ROOT
HETATM    1  O2  UNK     1      27.670  -8.279  40.048  1.00  0.00    -0.267 OA
HETATM    2  N1  UNK     1      28.085  -7.185  38.005  1.00  0.00    -0.322 N 
HETATM    3  C11 UNK     1      27.325  -7.873  38.940  1.00  0.00     0.262 C 
HETATM    4  H9  UNK     1      27.620  -6.800  37.186  1.00  0.00     0.169 HD
ENDROOT
BRANCH   3   5
HETATM    5  C12 UNK     1      25.951  -8.103  38.474  1.00  0.00     0.108 A 
HETATM    6  C14 UNK     1      24.980  -7.523  39.189  1.00  0.00     0.037 A 
HETATM    7  C13 UNK     1      23.587  -7.693  38.807  1.00  0.00    -0.001 A 
HETATM    8  C15 UNK     1      23.285  -8.467  37.690  1.00  0.00     0.089 A 
HETATM    9  C17 UNK     1      22.541  -7.106  39.523  1.00  0.00     0.014 A 
HETATM   10  O1  UNK     1      24.312  -9.074  36.942  1.00  0.00    -0.274 OA
HETATM   11  C18 UNK     1      21.971  -8.670  37.271  1.00  0.00     0.038 A 
HETATM   12  C16 UNK     1      25.654  -8.929  37.283  1.00  0.00     0.304 A 
HETATM   13  O3  UNK     1      26.541  -9.464  36.626  1.00  0.00    -0.259 OA
HETATM   14  C20 UNK     1      20.934  -8.080  37.992  1.00  0.00     0.003 A 
HETATM   15  C19 UNK     1      21.218  -7.300  39.114  1.00  0.00     0.001 A 
ENDBRANCH   3   5
BRANCH   2  16
HETATM   16  C3  UNK     1      29.442  -6.791  38.115  1.00  0.00     0.047 A 
HETATM   17  C2  UNK     1      30.441  -7.729  37.906  1.00  0.00    -0.027 A 
HETATM   18  C7  UNK     1      31.777  -7.341  38.015  1.00  0.00     0.010 A 
HETATM   19  C9  UNK     1      32.096  -6.021  38.333  1.00  0.00     0.001 A 
HETATM   20  C8  UNK     1      31.080  -5.088  38.541  1.00  0.00     0.009 A 
HETATM   21  C4  UNK     1      29.745  -5.475  38.432  1.00  0.00    -0.035 A 
HETATM   22  C10 UNK     1      28.680  -4.453  38.661  1.00  0.00     0.050 C 
BRANCH  17  23
HETATM   23  C1  UNK     1      30.130  -9.151  37.565  1.00  0.00     0.013 C 
HETATM   24  C5  UNK     1      30.953 -10.146  38.403  1.00  0.00     0.015 C 
HETATM   25  C6  UNK     1      30.314  -9.447  36.066  1.00  0.00     0.015 C 
ENDBRANCH  17  23
ENDBRANCH   2  16
TORSDOF 3
ENDMDL
