MODEL 1
REMARK VINA RESULT:      -8.7      0.000      0.000
REMARK  4 active torsions:
REMARK  status: ('A' for Active; 'I' for Inactive)
REMARK    1  A    between atoms: C5_9  and  N1_2 
REMARK    2  A    between atoms: C7_11  and  N1_2 
REMARK    3  A    between atoms: C8_12  and  N1_2 
REMARK    4  A    between atoms: C10_14  and  C9_13 
ROOT
HETATM    1  O1  UNK     1      20.598  -3.832  33.931  1.00  0.00    -0.287 OA
HETATM    2  N2  UNK     1      17.618   0.287  37.127  1.00  0.00    -0.191 NA
HETATM    3  N3  UNK     1      17.714   2.408  33.169  1.00  0.00    -0.191 NA
HETATM    4  C1  UNK     1      19.387  -1.892  34.774  1.00  0.00     0.029 A 
HETATM    5  C2  UNK     1      19.418  -0.742  32.698  1.00  0.00    -0.009 A 
HETATM    6  C3  UNK     1      18.974  -0.668  34.099  1.00  0.00     0.021 A 
HETATM    7  C4  UNK     1      20.082  -1.966  32.509  1.00  0.00     0.026 A 
HETATM    8  C6  UNK     1      20.100  -2.738  33.767  1.00  0.00     0.194 A 
HETATM    9  C10 UNK     1      19.217  -2.289  36.037  1.00  0.00     0.028 C 
HETATM   10  C15 UNK     1      19.287   0.141  31.638  1.00  0.00     0.013 A 
HETATM   11  C16 UNK     1      20.624  -2.340  31.293  1.00  0.00     0.016 A 
HETATM   12  C19 UNK     1      18.307   0.361  34.635  1.00  0.00     0.136 C 
HETATM   13  C20 UNK     1      19.829  -0.220  30.399  1.00  0.00     0.001 A 
HETATM   14  C21 UNK     1      20.491  -1.449  30.229  1.00  0.00     0.001 A 
HETATM   15  C22 UNK     1      17.927   0.320  36.009  1.00  0.00     0.111 C 
HETATM   16  C23 UNK     1      17.980   1.489  33.827  1.00  0.00     0.111 C 
ENDROOT
BRANCH   9  17
HETATM   17  C9  UNK     1      19.683  -3.563  36.612  1.00  0.00    -0.035 A 
HETATM   18  C13 UNK     1      18.890  -4.692  36.490  1.00  0.00     0.013 A 
HETATM   19  C11 UNK     1      19.331  -5.898  37.035  1.00  0.00     0.030 A 
HETATM   20  C5  UNK     1      20.559  -5.958  37.693  1.00  0.00     0.030 A 
HETATM   21  C12 UNK     1      21.346  -4.812  37.807  1.00  0.00     0.030 A 
HETATM   22  C14 UNK     1      20.905  -3.607  37.264  1.00  0.00     0.013 A 
BRANCH  20  23
HETATM   23  N1  UNK     1      21.005  -7.178  38.243  1.00  0.00    -0.382 N 
BRANCH  23  24
HETATM   24  C7  UNK     1      22.108  -7.897  37.636  1.00  0.00     0.118 C 
HETATM   25  C17 UNK     1      21.766  -8.358  36.234  1.00  0.00     0.026 C 
ENDBRANCH  23  24
BRANCH  23  26
HETATM   26  C8  UNK     1      20.377  -7.722  39.430  1.00  0.00     0.118 C 
HETATM   27  C18 UNK     1      19.925  -9.152  39.213  1.00  0.00     0.026 C 
ENDBRANCH  23  26
ENDBRANCH  20  23
ENDBRANCH   9  17
TORSDOF 4
ENDMDL
MODEL 2
REMARK VINA RESULT:      -8.3     10.586     13.107
REMARK  4 active torsions:
REMARK  status: ('A' for Active; 'I' for Inactive)
REMARK    1  A    between atoms: C5_9  and  N1_2 
REMARK    2  A    between atoms: C7_11  and  N1_2 
REMARK    3  A    between atoms: C8_12  and  N1_2 
REMARK    4  A    between atoms: C10_14  and  C9_13 
ROOT
HETATM    1  O1  UNK     1      29.653  -8.048  34.701  1.00  0.00    -0.287 OA
HETATM    2  N2  UNK     1      31.748  -2.686  36.409  1.00  0.00    -0.191 NA
HETATM    3  N3  UNK     1      29.452  -3.754  40.119  1.00  0.00    -0.191 NA
HETATM    4  C1  UNK     1      30.241  -5.975  35.840  1.00  0.00     0.029 A 
HETATM    5  C2  UNK     1      29.038  -6.506  37.816  1.00  0.00    -0.009 A 
HETATM    6  C3  UNK     1      29.885  -5.492  37.168  1.00  0.00     0.021 A 
HETATM    7  C4  UNK     1      28.874  -7.579  36.925  1.00  0.00     0.026 A 
HETATM    8  C6  UNK     1      29.600  -7.316  35.667  1.00  0.00     0.194 A 
HETATM    9  C10 UNK     1      30.986  -5.418  34.883  1.00  0.00     0.028 C 
HETATM   10  C15 UNK     1      28.436  -6.549  39.063  1.00  0.00     0.013 A 
HETATM   11  C16 UNK     1      28.124  -8.699  37.236  1.00  0.00     0.016 A 
HETATM   12  C19 UNK     1      30.249  -4.331  37.727  1.00  0.00     0.136 C 
HETATM   13  C20 UNK     1      27.673  -7.674  39.397  1.00  0.00     0.001 A 
HETATM   14  C21 UNK     1      27.519  -8.739  38.492  1.00  0.00     0.001 A 
HETATM   15  C22 UNK     1      31.076  -3.424  37.001  1.00  0.00     0.111 C 
HETATM   16  C23 UNK     1      29.810  -4.014  39.045  1.00  0.00     0.111 C 
ENDROOT
BRANCH   9  17
HETATM   17  C9  UNK     1      31.280  -6.009  33.564  1.00  0.00    -0.035 A 
HETATM   18  C13 UNK     1      32.387  -6.830  33.422  1.00  0.00     0.013 A 
HETATM   19  C11 UNK     1      32.666  -7.388  32.174  1.00  0.00     0.030 A 
HETATM   20  C5  UNK     1      31.834  -7.118  31.088  1.00  0.00     0.030 A 
HETATM   21  C12 UNK     1      30.723  -6.290  31.249  1.00  0.00     0.030 A 
HETATM   22  C14 UNK     1      30.444  -5.732  32.495  1.00  0.00     0.013 A 
BRANCH  20  23
HETATM   23  N1  UNK     1      32.115  -7.685  29.827  1.00  0.00    -0.382 N 
BRANCH  23  24
HETATM   24  C7  UNK     1      33.334  -8.441  29.617  1.00  0.00     0.118 C 
HETATM   25  C17 UNK     1      34.422  -7.581  29.008  1.00  0.00     0.026 C 
ENDBRANCH  23  24
BRANCH  23  26
HETATM   26  C8  UNK     1      31.183  -7.531  28.729  1.00  0.00     0.118 C 
HETATM   27  C18 UNK     1      30.435  -8.819  28.452  1.00  0.00     0.026 C 
ENDBRANCH  23  26
ENDBRANCH  20  23
ENDBRANCH   9  17
TORSDOF 4
ENDMDL
MODEL 3
REMARK VINA RESULT:      -8.3     10.586     13.147
REMARK  4 active torsions:
REMARK  status: ('A' for Active; 'I' for Inactive)
REMARK    1  A    between atoms: C5_9  and  N1_2 
REMARK    2  A    between atoms: C7_11  and  N1_2 
REMARK    3  A    between atoms: C8_12  and  N1_2 
REMARK    4  A    between atoms: C10_14  and  C9_13 
ROOT
HETATM    1  O1  UNK     1      29.658  -8.078  34.705  1.00  0.00    -0.287 OA
HETATM    2  N2  UNK     1      31.785  -2.722  36.395  1.00  0.00    -0.191 NA
HETATM    3  N3  UNK     1      29.454  -3.749  40.095  1.00  0.00    -0.191 NA
HETATM    4  C1  UNK     1      30.256  -6.002  35.835  1.00  0.00     0.029 A 
HETATM    5  C2  UNK     1      29.035  -6.511  37.806  1.00  0.00    -0.009 A 
HETATM    6  C3  UNK     1      29.895  -5.508  37.158  1.00  0.00     0.021 A 
HETATM    7  C4  UNK     1      28.868  -7.589  36.920  1.00  0.00     0.026 A 
HETATM    8  C6  UNK     1      29.604  -7.339  35.665  1.00  0.00     0.194 A 
HETATM    9  C10 UNK     1      31.011  -5.457  34.879  1.00  0.00     0.028 C 
HETATM   10  C15 UNK     1      28.423  -6.542  39.049  1.00  0.00     0.013 A 
HETATM   11  C16 UNK     1      28.107  -8.701  37.232  1.00  0.00     0.016 A 
HETATM   12  C19 UNK     1      30.264  -4.347  37.712  1.00  0.00     0.136 C 
HETATM   13  C20 UNK     1      27.650  -7.659  39.385  1.00  0.00     0.001 A 
HETATM   14  C21 UNK     1      27.493  -8.728  38.485  1.00  0.00     0.001 A 
HETATM   15  C22 UNK     1      31.103  -3.451  36.986  1.00  0.00     0.111 C 
HETATM   16  C23 UNK     1      29.818  -4.018  39.025  1.00  0.00     0.111 C 
ENDROOT
BRANCH   9  17
HETATM   17  C9  UNK     1      31.310  -6.059  33.567  1.00  0.00    -0.035 A 
HETATM   18  C13 UNK     1      30.480  -5.784  32.492  1.00  0.00     0.013 A 
HETATM   19  C11 UNK     1      30.762  -6.353  31.250  1.00  0.00     0.030 A 
HETATM   20  C5  UNK     1      31.869  -7.189  31.101  1.00  0.00     0.030 A 
HETATM   21  C12 UNK     1      32.694  -7.455  32.193  1.00  0.00     0.030 A 
HETATM   22  C14 UNK     1      32.412  -6.887  33.435  1.00  0.00     0.013 A 
BRANCH  20  23
HETATM   23  N1  UNK     1      32.154  -7.763  29.845  1.00  0.00    -0.382 N 
BRANCH  23  24
HETATM   24  C7  UNK     1      31.186  -7.693  28.768  1.00  0.00     0.118 C 
HETATM   25  C17 UNK     1      30.924  -9.059  28.168  1.00  0.00     0.026 C 
ENDBRANCH  23  24
BRANCH  23  26
HETATM   26  C8  UNK     1      33.425  -8.417  29.609  1.00  0.00     0.118 C 
HETATM   27  C18 UNK     1      34.444  -7.457  29.028  1.00  0.00     0.026 C 
ENDBRANCH  23  26
ENDBRANCH  20  23
ENDBRANCH   9  17
TORSDOF 4
ENDMDL
MODEL 4
REMARK VINA RESULT:      -7.8      9.976     12.886
REMARK  4 active torsions:
REMARK  status: ('A' for Active; 'I' for Inactive)
REMARK    1  A    between atoms: C5_9  and  N1_2 
REMARK    2  A    between atoms: C7_11  and  N1_2 
REMARK    3  A    between atoms: C8_12  and  N1_2 
REMARK    4  A    between atoms: C10_14  and  C9_13 
ROOT
HETATM    1  O1  UNK     1      29.015  -8.016  34.539  1.00  0.00    -0.287 OA
HETATM    2  N2  UNK     1      32.225  -3.316  36.454  1.00  0.00    -0.191 NA
HETATM    3  N3  UNK     1      29.447  -3.740  39.958  1.00  0.00    -0.191 NA
HETATM    4  C1  UNK     1      30.004  -6.138  35.739  1.00  0.00     0.029 A 
HETATM    5  C2  UNK     1      28.553  -6.332  37.607  1.00  0.00    -0.009 A 
HETATM    6  C3  UNK     1      29.673  -5.566  37.037  1.00  0.00     0.021 A 
HETATM    7  C4  UNK     1      28.200  -7.342  36.696  1.00  0.00     0.026 A 
HETATM    8  C6  UNK     1      29.067  -7.281  35.503  1.00  0.00     0.194 A 
HETATM    9  C10 UNK     1      30.936  -5.794  34.849  1.00  0.00     0.028 C 
HETATM   10  C15 UNK     1      27.860  -6.210  38.801  1.00  0.00     0.013 A 
HETATM   11  C16 UNK     1      27.175  -8.239  36.937  1.00  0.00     0.016 A 
HETATM   12  C19 UNK     1      30.266  -4.525  37.634  1.00  0.00     0.136 C 
HETATM   13  C20 UNK     1      26.820  -7.109  39.063  1.00  0.00     0.001 A 
HETATM   14  C21 UNK     1      26.480  -8.113  38.140  1.00  0.00     0.001 A 
HETATM   15  C22 UNK     1      31.346  -3.858  36.983  1.00  0.00     0.111 C 
HETATM   16  C23 UNK     1      29.815  -4.093  38.915  1.00  0.00     0.111 C 
ENDROOT
BRANCH   9  17
HETATM   17  C9  UNK     1      31.180  -6.455  33.554  1.00  0.00    -0.035 A 
HETATM   18  C13 UNK     1      31.971  -7.591  33.511  1.00  0.00     0.013 A 
HETATM   19  C11 UNK     1      32.203  -8.216  32.286  1.00  0.00     0.030 A 
HETATM   20  C5  UNK     1      31.640  -7.696  31.121  1.00  0.00     0.030 A 
HETATM   21  C12 UNK     1      30.845  -6.551  31.181  1.00  0.00     0.030 A 
HETATM   22  C14 UNK     1      30.614  -5.926  32.405  1.00  0.00     0.013 A 
BRANCH  20  23
HETATM   23  N1  UNK     1      31.872  -8.329  29.882  1.00  0.00    -0.382 N 
BRANCH  23  24
HETATM   24  C7  UNK     1      31.252  -9.604  29.581  1.00  0.00     0.118 C 
HETATM   25  C17 UNK     1      30.215  -9.471  28.485  1.00  0.00     0.026 C 
ENDBRANCH  23  24
BRANCH  23  26
HETATM   26  C8  UNK     1      32.723  -7.706  28.888  1.00  0.00     0.118 C 
HETATM   27  C18 UNK     1      34.168  -7.665  29.342  1.00  0.00     0.026 C 
ENDBRANCH  23  26
ENDBRANCH  20  23
ENDBRANCH   9  17
TORSDOF 4
ENDMDL
MODEL 5
REMARK VINA RESULT:      -7.7      7.426     10.429
REMARK  4 active torsions:
REMARK  status: ('A' for Active; 'I' for Inactive)
REMARK    1  A    between atoms: C5_9  and  N1_2 
REMARK    2  A    between atoms: C7_11  and  N1_2 
REMARK    3  A    between atoms: C8_12  and  N1_2 
REMARK    4  A    between atoms: C10_14  and  C9_13 
ROOT
HETATM    1  O1  UNK     1      25.134  -7.249  38.642  1.00  0.00    -0.287 OA
HETATM    2  N2  UNK     1      24.253 -12.135  35.263  1.00  0.00    -0.191 NA
HETATM    3  N3  UNK     1      19.971 -11.151  36.202  1.00  0.00    -0.191 NA
HETATM    4  C1  UNK     1      24.267  -9.137  37.367  1.00  0.00     0.029 A 
HETATM    5  C2  UNK     1      21.993  -8.648  37.842  1.00  0.00    -0.009 A 
HETATM    6  C3  UNK     1      22.895  -9.574  37.139  1.00  0.00     0.021 A 
HETATM    7  C4  UNK     1      22.775  -7.671  38.482  1.00  0.00     0.026 A 
HETATM    8  C6  UNK     1      24.208  -7.914  38.228  1.00  0.00     0.194 A 
HETATM    9  C10 UNK     1      25.424  -9.647  36.941  1.00  0.00     0.028 C 
HETATM   10  C15 UNK     1      20.613  -8.606  37.953  1.00  0.00     0.013 A 
HETATM   11  C16 UNK     1      22.223  -6.649  39.234  1.00  0.00     0.016 A 
HETATM   12  C19 UNK     1      22.495 -10.631  36.422  1.00  0.00     0.136 C 
HETATM   13  C20 UNK     1      20.035  -7.579  38.709  1.00  0.00     0.001 A 
HETATM   14  C21 UNK     1      20.833  -6.611  39.343  1.00  0.00     0.001 A 
HETATM   15  C22 UNK     1      23.464 -11.460  35.783  1.00  0.00     0.111 C 
HETATM   16  C23 UNK     1      21.104 -10.917  36.301  1.00  0.00     0.111 C 
ENDROOT
BRANCH   9  17
HETATM   17  C9  UNK     1      26.765  -9.111  37.239  1.00  0.00    -0.035 A 
HETATM   18  C13 UNK     1      27.317  -8.161  36.396  1.00  0.00     0.013 A 
HETATM   19  C11 UNK     1      28.586  -7.655  36.676  1.00  0.00     0.030 A 
HETATM   20  C5  UNK     1      29.285  -8.106  37.796  1.00  0.00     0.030 A 
HETATM   21  C12 UNK     1      28.714  -9.063  38.635  1.00  0.00     0.030 A 
HETATM   22  C14 UNK     1      27.446  -9.569  38.354  1.00  0.00     0.013 A 
BRANCH  20  23
HETATM   23  N1  UNK     1      30.567  -7.593  38.081  1.00  0.00    -0.382 N 
BRANCH  23  24
HETATM   24  C7  UNK     1      31.713  -8.478  38.158  1.00  0.00     0.118 C 
HETATM   25  C17 UNK     1      31.961  -9.179  36.838  1.00  0.00     0.026 C 
ENDBRANCH  23  24
BRANCH  23  26
HETATM   26  C8  UNK     1      30.760  -6.171  38.285  1.00  0.00     0.118 C 
HETATM   27  C18 UNK     1      32.230  -5.804  38.277  1.00  0.00     0.026 C 
ENDBRANCH  23  26
ENDBRANCH  20  23
ENDBRANCH   9  17
TORSDOF 4
ENDMDL
MODEL 6
REMARK VINA RESULT:      -7.5     11.225     13.008
REMARK  4 active torsions:
REMARK  status: ('A' for Active; 'I' for Inactive)
REMARK    1  A    between atoms: C5_9  and  N1_2 
REMARK    2  A    between atoms: C7_11  and  N1_2 
REMARK    3  A    between atoms: C8_12  and  N1_2 
REMARK    4  A    between atoms: C10_14  and  C9_13 
ROOT
HETATM    1  O1  UNK     1      31.881  -7.634  34.343  1.00  0.00    -0.287 OA
HETATM    2  N2  UNK     1      28.142  -8.250  39.002  1.00  0.00    -0.191 NA
HETATM    3  N3  UNK     1      29.421  -3.999  39.688  1.00  0.00    -0.191 NA
HETATM    4  C1  UNK     1      30.499  -7.385  36.335  1.00  0.00     0.029 A 
HETATM    5  C2  UNK     1      31.152  -5.137  36.729  1.00  0.00    -0.009 A 
HETATM    6  C3  UNK     1      30.317  -6.243  37.222  1.00  0.00     0.021 A 
HETATM    7  C4  UNK     1      31.828  -5.574  35.577  1.00  0.00     0.026 A 
HETATM    8  C6  UNK     1      31.467  -6.972  35.271  1.00  0.00     0.194 A 
HETATM    9  C10 UNK     1      29.961  -8.605  36.366  1.00  0.00     0.028 C 
HETATM   10  C15 UNK     1      31.349  -3.847  37.194  1.00  0.00     0.013 A 
HETATM   11  C16 UNK     1      32.699  -4.764  34.870  1.00  0.00     0.016 A 
HETATM   12  C19 UNK     1      29.534  -6.183  38.307  1.00  0.00     0.136 C 
HETATM   13  C20 UNK     1      32.226  -3.011  36.492  1.00  0.00     0.001 A 
HETATM   14  C21 UNK     1      32.895  -3.466  35.342  1.00  0.00     0.001 A 
HETATM   15  C22 UNK     1      28.766  -7.322  38.690  1.00  0.00     0.111 C 
HETATM   16  C23 UNK     1      29.472  -4.979  39.067  1.00  0.00     0.111 C 
ENDROOT
BRANCH   9  17
HETATM   17  C9  UNK     1      30.223  -9.690  35.402  1.00  0.00    -0.035 A 
HETATM   18  C13 UNK     1      29.416  -9.810  34.282  1.00  0.00     0.013 A 
HETATM   19  C11 UNK     1      29.663 -10.837  33.371  1.00  0.00     0.030 A 
HETATM   20  C5  UNK     1      30.714 -11.727  33.592  1.00  0.00     0.030 A 
HETATM   21  C12 UNK     1      31.517 -11.592  34.724  1.00  0.00     0.030 A 
HETATM   22  C14 UNK     1      31.269 -10.566  35.636  1.00  0.00     0.013 A 
BRANCH  20  23
HETATM   23  N1  UNK     1      30.965 -12.764  32.669  1.00  0.00    -0.382 N 
BRANCH  23  24
HETATM   24  C7  UNK     1      30.433 -12.693  31.322  1.00  0.00     0.118 C 
HETATM   25  C17 UNK     1      31.450 -12.125  30.354  1.00  0.00     0.026 C 
ENDBRANCH  23  24
BRANCH  23  26
HETATM   26  C8  UNK     1      31.770 -13.906  33.050  1.00  0.00     0.118 C 
HETATM   27  C18 UNK     1      30.964 -15.189  33.017  1.00  0.00     0.026 C 
ENDBRANCH  23  26
ENDBRANCH  20  23
ENDBRANCH   9  17
TORSDOF 4
ENDMDL
MODEL 7
REMARK VINA RESULT:      -7.5      1.865      3.659
REMARK  4 active torsions:
REMARK  status: ('A' for Active; 'I' for Inactive)
REMARK    1  A    between atoms: C5_9  and  N1_2 
REMARK    2  A    between atoms: C7_11  and  N1_2 
REMARK    3  A    between atoms: C8_12  and  N1_2 
REMARK    4  A    between atoms: C10_14  and  C9_13 
ROOT
HETATM    1  O1  UNK     1      18.883  -2.389  38.051  1.00  0.00    -0.287 OA
HETATM    2  N2  UNK     1      20.423  -2.831  32.264  1.00  0.00    -0.191 NA
HETATM    3  N3  UNK     1      18.483   1.219  32.164  1.00  0.00    -0.191 NA
HETATM    4  C1  UNK     1      19.286  -2.092  35.665  1.00  0.00     0.029 A 
HETATM    5  C2  UNK     1      18.268   0.050  35.575  1.00  0.00    -0.009 A 
HETATM    6  C3  UNK     1      18.951  -0.983  34.781  1.00  0.00     0.021 A 
HETATM    7  C4  UNK     1      18.181  -0.399  36.903  1.00  0.00     0.026 A 
HETATM    8  C6  UNK     1      18.798  -1.733  37.034  1.00  0.00     0.194 A 
HETATM    9  C10 UNK     1      19.903  -3.248  35.415  1.00  0.00     0.028 C 
HETATM   10  C15 UNK     1      17.747   1.287  35.232  1.00  0.00     0.013 A 
HETATM   11  C16 UNK     1      17.588   0.347  37.906  1.00  0.00     0.016 A 
HETATM   12  C19 UNK     1      19.207  -0.893  33.470  1.00  0.00     0.136 C 
HETATM   13  C20 UNK     1      17.143   2.058  36.232  1.00  0.00     0.001 A 
HETATM   14  C21 UNK     1      17.064   1.592  37.556  1.00  0.00     0.001 A 
HETATM   15  C22 UNK     1      19.878  -1.962  32.805  1.00  0.00     0.111 C 
HETATM   16  C23 UNK     1      18.808   0.271  32.751  1.00  0.00     0.111 C 
ENDROOT
BRANCH   9  17
HETATM   17  C9  UNK     1      20.190  -4.305  36.402  1.00  0.00    -0.035 A 
HETATM   18  C13 UNK     1      19.327  -5.384  36.509  1.00  0.00     0.013 A 
HETATM   19  C11 UNK     1      19.597  -6.384  37.444  1.00  0.00     0.030 A 
HETATM   20  C5  UNK     1      20.727  -6.291  38.257  1.00  0.00     0.030 A 
HETATM   21  C12 UNK     1      21.585  -5.198  38.137  1.00  0.00     0.030 A 
HETATM   22  C14 UNK     1      21.315  -4.199  37.203  1.00  0.00     0.013 A 
BRANCH  20  23
HETATM   23  N1  UNK     1      21.001  -7.303  39.201  1.00  0.00    -0.382 N 
BRANCH  23  24
HETATM   24  C7  UNK     1      22.325  -7.430  39.777  1.00  0.00     0.118 C 
HETATM   25  C17 UNK     1      23.318  -7.972  38.771  1.00  0.00     0.026 C 
ENDBRANCH  23  24
BRANCH  23  26
HETATM   26  C8  UNK     1      19.958  -8.219  39.618  1.00  0.00     0.118 C 
HETATM   27  C18 UNK     1      20.186  -9.609  39.060  1.00  0.00     0.026 C 
ENDBRANCH  23  26
ENDBRANCH  20  23
ENDBRANCH   9  17
TORSDOF 4
ENDMDL
MODEL 8
REMARK VINA RESULT:      -7.5     10.371     12.740
REMARK  4 active torsions:
REMARK  status: ('A' for Active; 'I' for Inactive)
REMARK    1  A    between atoms: C5_9  and  N1_2 
REMARK    2  A    between atoms: C7_11  and  N1_2 
REMARK    3  A    between atoms: C8_12  and  N1_2 
REMARK    4  A    between atoms: C10_14  and  C9_13 
ROOT
HETATM    1  O1  UNK     1      30.537  -6.475  33.932  1.00  0.00    -0.287 OA
HETATM    2  N2  UNK     1      26.577 -10.356  36.239  1.00  0.00    -0.191 NA
HETATM    3  N3  UNK     1      27.491  -7.998  39.952  1.00  0.00    -0.191 NA
HETATM    4  C1  UNK     1      29.020  -7.789  35.317  1.00  0.00     0.029 A 
HETATM    5  C2  UNK     1      29.479  -6.565  37.299  1.00  0.00    -0.009 A 
HETATM    6  C3  UNK     1      28.700  -7.679  36.734  1.00  0.00     0.021 A 
HETATM    7  C4  UNK     1      30.254  -6.003  36.270  1.00  0.00     0.026 A 
HETATM    8  C6  UNK     1      30.018  -6.719  35.001  1.00  0.00     0.194 A 
HETATM    9  C10 UNK     1      28.574  -8.636  34.387  1.00  0.00     0.028 C 
HETATM   10  C15 UNK     1      29.550  -6.040  38.579  1.00  0.00     0.013 A 
HETATM   11  C16 UNK     1      31.104  -4.931  36.477  1.00  0.00     0.016 A 
HETATM   12  C19 UNK     1      27.850  -8.444  37.430  1.00  0.00     0.136 C 
HETATM   13  C20 UNK     1      30.403  -4.955  38.809  1.00  0.00     0.001 A 
HETATM   14  C21 UNK     1      31.173  -4.406  37.768  1.00  0.00     0.001 A 
HETATM   15  C22 UNK     1      27.148  -9.498  36.773  1.00  0.00     0.111 C 
HETATM   16  C23 UNK     1      27.652  -8.198  38.819  1.00  0.00     0.111 C 
ENDROOT
BRANCH   9  17
HETATM   17  C9  UNK     1      28.975  -8.650  32.969  1.00  0.00    -0.035 A 
HETATM   18  C13 UNK     1      28.315  -7.828  32.070  1.00  0.00     0.013 A 
HETATM   19  C11 UNK     1      28.694  -7.843  30.727  1.00  0.00     0.030 A 
HETATM   20  C5  UNK     1      29.727  -8.678  30.303  1.00  0.00     0.030 A 
HETATM   21  C12 UNK     1      30.381  -9.499  31.221  1.00  0.00     0.030 A 
HETATM   22  C14 UNK     1      30.003  -9.486  32.563  1.00  0.00     0.013 A 
BRANCH  20  23
HETATM   23  N1  UNK     1      30.110  -8.691  28.946  1.00  0.00    -0.382 N 
BRANCH  23  24
HETATM   24  C7  UNK     1      29.833  -9.846  28.115  1.00  0.00     0.118 C 
HETATM   25  C17 UNK     1      28.379 -10.259  28.207  1.00  0.00     0.026 C 
ENDBRANCH  23  24
BRANCH  23  26
HETATM   26  C8  UNK     1      30.773  -7.544  28.360  1.00  0.00     0.118 C 
HETATM   27  C18 UNK     1      32.000  -7.146  29.155  1.00  0.00     0.026 C 
ENDBRANCH  23  26
ENDBRANCH  20  23
ENDBRANCH   9  17
TORSDOF 4
ENDMDL
MODEL 9
REMARK VINA RESULT:      -7.5     11.398     13.777
REMARK  4 active torsions:
REMARK  status: ('A' for Active; 'I' for Inactive)
REMARK    1  A    between atoms: C5_9  and  N1_2 
REMARK    2  A    between atoms: C7_11  and  N1_2 
REMARK    3  A    between atoms: C8_12  and  N1_2 
REMARK    4  A    between atoms: C10_14  and  C9_13 
ROOT
HETATM    1  O1  UNK     1      30.815  -9.403  34.104  1.00  0.00    -0.287 OA
HETATM    2  N2  UNK     1      31.023  -5.977  29.176  1.00  0.00    -0.191 NA
HETATM    3  N3  UNK     1      30.654 -10.001  27.215  1.00  0.00    -0.191 NA
HETATM    4  C1  UNK     1      30.857  -8.473  31.851  1.00  0.00     0.029 A 
HETATM    5  C2  UNK     1      30.662 -10.583  30.780  1.00  0.00    -0.009 A 
HETATM    6  C3  UNK     1      30.780  -9.133  30.554  1.00  0.00     0.021 A 
HETATM    7  C4  UNK     1      30.665 -10.815  32.166  1.00  0.00     0.026 A 
HETATM    8  C6  UNK     1      30.784  -9.539  32.899  1.00  0.00     0.194 A 
HETATM    9  C10 UNK     1      30.970  -7.181  32.164  1.00  0.00     0.028 C 
HETATM   10  C15 UNK     1      30.559 -11.651  29.904  1.00  0.00     0.013 A 
HETATM   11  C16 UNK     1      30.569 -12.083  32.710  1.00  0.00     0.016 A 
HETATM   12  C19 UNK     1      30.811  -8.549  29.350  1.00  0.00     0.136 C 
HETATM   13  C20 UNK     1      30.460 -12.942  30.435  1.00  0.00     0.001 A 
HETATM   14  C21 UNK     1      30.465 -13.156  31.824  1.00  0.00     0.001 A 
HETATM   15  C22 UNK     1      30.928  -7.131  29.254  1.00  0.00     0.111 C 
HETATM   16  C23 UNK     1      30.724  -9.350  28.174  1.00  0.00     0.111 C 
ENDROOT
BRANCH   9  17
HETATM   17  C9  UNK     1      31.038  -6.625  33.528  1.00  0.00    -0.035 A 
HETATM   18  C13 UNK     1      32.270  -6.272  34.054  1.00  0.00     0.013 A 
HETATM   19  C11 UNK     1      32.335  -5.748  35.345  1.00  0.00     0.030 A 
HETATM   20  C5  UNK     1      31.167  -5.583  36.090  1.00  0.00     0.030 A 
HETATM   21  C12 UNK     1      29.935  -5.944  35.545  1.00  0.00     0.030 A 
HETATM   22  C14 UNK     1      29.870  -6.468  34.255  1.00  0.00     0.013 A 
BRANCH  20  23
HETATM   23  N1  UNK     1      31.233  -5.051  37.395  1.00  0.00    -0.382 N 
BRANCH  23  24
HETATM   24  C7  UNK     1      32.128  -5.627  38.379  1.00  0.00     0.118 C 
HETATM   25  C17 UNK     1      31.953  -7.128  38.476  1.00  0.00     0.026 C 
ENDBRANCH  23  24
BRANCH  23  26
HETATM   26  C8  UNK     1      30.418  -3.911  37.764  1.00  0.00     0.118 C 
HETATM   27  C18 UNK     1      29.614  -4.187  39.019  1.00  0.00     0.026 C 
ENDBRANCH  23  26
ENDBRANCH  20  23
ENDBRANCH   9  17
TORSDOF 4
ENDMDL
MODEL 10
REMARK VINA RESULT:      -7.5     11.047     13.993
REMARK  4 active torsions:
REMARK  status: ('A' for Active; 'I' for Inactive)
REMARK    1  A    between atoms: C5_9  and  N1_2 
REMARK    2  A    between atoms: C7_11  and  N1_2 
REMARK    3  A    between atoms: C8_12  and  N1_2 
REMARK    4  A    between atoms: C10_14  and  C9_13 
ROOT
HETATM    1  O1  UNK     1      30.706  -9.087  35.682  1.00  0.00    -0.287 OA
HETATM    2  N2  UNK     1      32.318  -3.366  36.544  1.00  0.00    -0.191 NA
HETATM    3  N3  UNK     1      29.283  -3.741  39.833  1.00  0.00    -0.191 NA
HETATM    4  C1  UNK     1      31.009  -6.785  36.424  1.00  0.00     0.029 A 
HETATM    5  C2  UNK     1      29.411  -6.946  38.172  1.00  0.00    -0.009 A 
HETATM    6  C3  UNK     1      30.367  -6.048  37.505  1.00  0.00     0.021 A 
HETATM    7  C4  UNK     1      29.457  -8.195  37.530  1.00  0.00     0.026 A 
HETATM    8  C6  UNK     1      30.436  -8.167  36.425  1.00  0.00     0.194 A 
HETATM    9  C10 UNK     1      31.937  -6.405  35.544  1.00  0.00     0.028 C 
HETATM   10  C15 UNK     1      28.552  -6.754  39.243  1.00  0.00     0.013 A 
HETATM   11  C16 UNK     1      28.670  -9.264  37.920  1.00  0.00     0.016 A 
HETATM   12  C19 UNK     1      30.587  -4.774  37.853  1.00  0.00     0.136 C 
HETATM   13  C20 UNK     1      27.749  -7.824  39.653  1.00  0.00     0.001 A 
HETATM   14  C21 UNK     1      27.807  -9.066  38.998  1.00  0.00     0.001 A 
HETATM   15  C22 UNK     1      31.542  -3.998  37.131  1.00  0.00     0.111 C 
HETATM   16  C23 UNK     1      29.868  -4.205  38.945  1.00  0.00     0.111 C 
ENDROOT
BRANCH   9  17
HETATM   17  C9  UNK     1      32.517  -7.248  34.483  1.00  0.00    -0.035 A 
HETATM   18  C13 UNK     1      33.631  -8.022  34.766  1.00  0.00     0.013 A 
HETATM   19  C11 UNK     1      34.181  -8.819  33.763  1.00  0.00     0.030 A 
HETATM   20  C5  UNK     1      33.609  -8.833  32.491  1.00  0.00     0.030 A 
HETATM   21  C12 UNK     1      32.488  -8.048  32.222  1.00  0.00     0.030 A 
HETATM   22  C14 UNK     1      31.938  -7.250  33.225  1.00  0.00     0.013 A 
BRANCH  20  23
HETATM   23  N1  UNK     1      34.165  -9.640  31.476  1.00  0.00    -0.382 N 
BRANCH  23  24
HETATM   24  C7  UNK     1      33.696 -10.998  31.280  1.00  0.00     0.118 C 
HETATM   25  C17 UNK     1      32.766 -11.096  30.088  1.00  0.00     0.026 C 
ENDBRANCH  23  24
BRANCH  23  26
HETATM   26  C8  UNK     1      35.200  -9.119  30.608  1.00  0.00     0.118 C 
HETATM   27  C18 UNK     1      36.529  -9.804  30.855  1.00  0.00     0.026 C 
ENDBRANCH  23  26
ENDBRANCH  20  23
ENDBRANCH   9  17
TORSDOF 4
ENDMDL
