MODEL 1
REMARK VINA RESULT:      -7.7      0.000      0.000
REMARK  3 active torsions:
REMARK  status: ('A' for Active; 'I' for Inactive)
REMARK    1  A    between atoms: C6_9  and  N1_2 
REMARK    2  A    between atoms: C11_14  and  C12_15 
REMARK    3  A    between atoms: C13_16  and  C14_17 
ROOT
HETATM    1  N2  UNK     1      31.911  -8.847  27.844  1.00  0.00    -0.191 NA
HETATM    2  C12 UNK     1      31.811  -7.987  31.153  1.00  0.00     0.034 C 
HETATM    3  C13 UNK     1      30.961  -8.067  30.126  1.00  0.00     0.055 C 
HETATM    4  C19 UNK     1      31.488  -8.498  28.866  1.00  0.00     0.100 C 
ENDROOT
BRANCH   3   5
HETATM    5  C14 UNK     1      29.526  -7.728  30.190  1.00  0.00    -0.015 A 
HETATM    6  C15 UNK     1      28.598  -8.746  30.335  1.00  0.00     0.016 A 
HETATM    7  C17 UNK     1      27.242  -8.426  30.396  1.00  0.00     0.043 A 
HETATM    8  C20 UNK     1      26.834  -7.096  30.312  1.00  0.00     0.116 A 
HETATM    9  C18 UNK     1      27.783  -6.083  30.166  1.00  0.00     0.043 A 
HETATM   10  F1  UNK     1      25.532  -6.790  30.371  1.00  0.00    -0.206 F 
HETATM   11  C16 UNK     1      29.140  -6.403  30.105  1.00  0.00     0.016 A 
ENDBRANCH   3   5
BRANCH   2  12
HETATM   12  C11 UNK     1      31.417  -7.578  32.492  1.00  0.00    -0.035 A 
HETATM   13  C10 UNK     1      30.937  -8.524  33.398  1.00  0.00     0.013 A 
HETATM   14  C8  UNK     1      30.559  -8.131  34.681  1.00  0.00     0.030 A 
HETATM   15  C6  UNK     1      30.655  -6.785  35.084  1.00  0.00     0.030 A 
HETATM   16  C7  UNK     1      31.142  -5.846  34.154  1.00  0.00     0.030 A 
HETATM   17  C9  UNK     1      31.520  -6.239  32.870  1.00  0.00     0.013 A 
BRANCH  15  18
HETATM   18  N1  UNK     1      30.277  -6.390  36.373  1.00  0.00    -0.381 N 
HETATM   19  C4  UNK     1      29.019  -6.888  36.941  1.00  0.00     0.123 C 
HETATM   20  C2  UNK     1      29.061  -6.837  38.468  1.00  0.00     0.020 C 
HETATM   21  C1  UNK     1      29.445  -5.451  38.972  1.00  0.00     0.003 C 
HETATM   22  C3  UNK     1      30.771  -5.017  38.358  1.00  0.00     0.020 C 
HETATM   23  C5  UNK     1      30.721  -5.066  36.833  1.00  0.00     0.123 C 
ENDBRANCH  15  18
ENDBRANCH   2  12
TORSDOF 3
ENDMDL
MODEL 2
REMARK VINA RESULT:      -7.7      0.359      1.463
REMARK  3 active torsions:
REMARK  status: ('A' for Active; 'I' for Inactive)
REMARK    1  A    between atoms: C6_9  and  N1_2 
REMARK    2  A    between atoms: C11_14  and  C12_15 
REMARK    3  A    between atoms: C13_16  and  C14_17 
ROOT
HETATM    1  N2  UNK     1      31.890  -8.871  27.843  1.00  0.00    -0.191 NA
HETATM    2  C12 UNK     1      31.815  -7.900  31.122  1.00  0.00     0.034 C 
HETATM    3  C13 UNK     1      30.956  -8.024  30.108  1.00  0.00     0.055 C 
HETATM    4  C19 UNK     1      31.473  -8.492  28.858  1.00  0.00     0.100 C 
ENDROOT
BRANCH   3   5
HETATM    5  C14 UNK     1      29.518  -7.699  30.177  1.00  0.00    -0.015 A 
HETATM    6  C15 UNK     1      29.119  -6.377  30.076  1.00  0.00     0.016 A 
HETATM    7  C17 UNK     1      27.760  -6.070  30.141  1.00  0.00     0.043 A 
HETATM    8  C20 UNK     1      26.821  -7.088  30.304  1.00  0.00     0.116 A 
HETATM    9  C18 UNK     1      27.241  -8.414  30.404  1.00  0.00     0.043 A 
HETATM   10  F1  UNK     1      25.517  -6.792  30.366  1.00  0.00    -0.206 F 
HETATM   11  C16 UNK     1      28.601  -8.722  30.339  1.00  0.00     0.016 A 
ENDBRANCH   3   5
BRANCH   2  12
HETATM   12  C11 UNK     1      31.432  -7.450  32.451  1.00  0.00    -0.035 A 
HETATM   13  C10 UNK     1      30.996  -8.372  33.401  1.00  0.00     0.013 A 
HETATM   14  C8  UNK     1      30.627  -7.940  34.675  1.00  0.00     0.030 A 
HETATM   15  C6  UNK     1      30.688  -6.577  35.023  1.00  0.00     0.030 A 
HETATM   16  C7  UNK     1      31.131  -5.662  34.048  1.00  0.00     0.030 A 
HETATM   17  C9  UNK     1      31.500  -6.095  32.774  1.00  0.00     0.013 A 
BRANCH  15  18
HETATM   18  N1  UNK     1      30.320  -6.142  36.302  1.00  0.00    -0.381 N 
HETATM   19  C4  UNK     1      30.876  -4.890  36.826  1.00  0.00     0.123 C 
HETATM   20  C2  UNK     1      29.967  -4.311  37.910  1.00  0.00     0.020 C 
HETATM   21  C1  UNK     1      29.663  -5.337  38.994  1.00  0.00     0.003 C 
HETATM   22  C3  UNK     1      29.068  -6.596  38.374  1.00  0.00     0.020 C 
HETATM   23  C5  UNK     1      29.981  -7.172  37.295  1.00  0.00     0.123 C 
ENDBRANCH  15  18
ENDBRANCH   2  12
TORSDOF 3
ENDMDL
MODEL 3
REMARK VINA RESULT:      -7.7     16.070     18.643
REMARK  3 active torsions:
REMARK  status: ('A' for Active; 'I' for Inactive)
REMARK    1  A    between atoms: C6_9  and  N1_2 
REMARK    2  A    between atoms: C11_14  and  C12_15 
REMARK    3  A    between atoms: C13_16  and  C14_17 
ROOT
HETATM    1  N2  UNK     1      18.847  10.469  34.716  1.00  0.00    -0.191 NA
HETATM    2  C12 UNK     1      19.361   7.512  33.074  1.00  0.00     0.034 C 
HETATM    3  C13 UNK     1      18.329   8.286  33.417  1.00  0.00     0.055 C 
HETATM    4  C19 UNK     1      18.617   9.491  34.135  1.00  0.00     0.100 C 
ENDROOT
BRANCH   3   5
HETATM    5  C14 UNK     1      16.914   7.983  33.125  1.00  0.00    -0.015 A 
HETATM    6  C15 UNK     1      16.065   7.655  34.167  1.00  0.00     0.016 A 
HETATM    7  C17 UNK     1      14.728   7.368  33.892  1.00  0.00     0.043 A 
HETATM    8  C20 UNK     1      14.261   7.416  32.579  1.00  0.00     0.116 A 
HETATM    9  C18 UNK     1      15.131   7.749  31.541  1.00  0.00     0.043 A 
HETATM   10  F1  UNK     1      12.977   7.141  32.314  1.00  0.00    -0.206 F 
HETATM   11  C16 UNK     1      16.468   8.035  31.816  1.00  0.00     0.016 A 
ENDBRANCH   3   5
BRANCH   2  12
HETATM   12  C11 UNK     1      19.223   6.269  32.334  1.00  0.00    -0.035 A 
HETATM   13  C10 UNK     1      18.599   5.170  32.925  1.00  0.00     0.013 A 
HETATM   14  C8  UNK     1      18.467   3.977  32.215  1.00  0.00     0.030 A 
HETATM   15  C6  UNK     1      18.957   3.859  30.900  1.00  0.00     0.030 A 
HETATM   16  C7  UNK     1      19.584   4.980  30.322  1.00  0.00     0.030 A 
HETATM   17  C9  UNK     1      19.715   6.173  31.032  1.00  0.00     0.013 A 
BRANCH  15  18
HETATM   18  N1  UNK     1      18.824   2.662  30.186  1.00  0.00    -0.381 N 
HETATM   19  C4  UNK     1      17.742   2.524  29.205  1.00  0.00     0.123 C 
HETATM   20  C2  UNK     1      18.090   1.455  28.169  1.00  0.00     0.020 C 
HETATM   21  C1  UNK     1      18.477   0.138  28.830  1.00  0.00     0.003 C 
HETATM   22  C3  UNK     1      19.619   0.361  29.815  1.00  0.00     0.020 C 
HETATM   23  C5  UNK     1      19.265   1.426  30.849  1.00  0.00     0.123 C 
ENDBRANCH  15  18
ENDBRANCH   2  12
TORSDOF 3
ENDMDL
MODEL 4
REMARK VINA RESULT:      -7.7      0.060      1.426
REMARK  3 active torsions:
REMARK  status: ('A' for Active; 'I' for Inactive)
REMARK    1  A    between atoms: C6_9  and  N1_2 
REMARK    2  A    between atoms: C11_14  and  C12_15 
REMARK    3  A    between atoms: C13_16  and  C14_17 
ROOT
HETATM    1  N2  UNK     1      31.926  -8.836  27.836  1.00  0.00    -0.191 NA
HETATM    2  C12 UNK     1      31.826  -8.001  31.151  1.00  0.00     0.034 C 
HETATM    3  C13 UNK     1      30.976  -8.076  30.124  1.00  0.00     0.055 C 
HETATM    4  C19 UNK     1      31.502  -8.496  28.861  1.00  0.00     0.100 C 
ENDROOT
BRANCH   3   5
HETATM    5  C14 UNK     1      29.539  -7.744  30.192  1.00  0.00    -0.015 A 
HETATM    6  C15 UNK     1      29.147  -6.420  30.099  1.00  0.00     0.016 A 
HETATM    7  C17 UNK     1      27.790  -6.106  30.163  1.00  0.00     0.043 A 
HETATM    8  C20 UNK     1      26.846  -7.120  30.319  1.00  0.00     0.116 A 
HETATM    9  C18 UNK     1      27.259  -8.449  30.411  1.00  0.00     0.043 A 
HETATM   10  F1  UNK     1      25.542  -6.818  30.380  1.00  0.00    -0.206 F 
HETATM   11  C16 UNK     1      28.617  -8.763  30.347  1.00  0.00     0.016 A 
ENDBRANCH   3   5
BRANCH   2  12
HETATM   12  C11 UNK     1      31.432  -7.603  32.493  1.00  0.00    -0.035 A 
HETATM   13  C10 UNK     1      31.562  -6.273  32.893  1.00  0.00     0.013 A 
HETATM   14  C8  UNK     1      31.186  -5.892  34.180  1.00  0.00     0.030 A 
HETATM   15  C6  UNK     1      30.672  -6.833  35.093  1.00  0.00     0.030 A 
HETATM   16  C7  UNK     1      30.549  -8.170  34.669  1.00  0.00     0.030 A 
HETATM   17  C9  UNK     1      30.925  -8.551  33.381  1.00  0.00     0.013 A 
BRANCH  15  18
HETATM   18  N1  UNK     1      30.292  -6.450  36.385  1.00  0.00    -0.381 N 
HETATM   19  C4  UNK     1      29.075  -7.018  36.977  1.00  0.00     0.123 C 
HETATM   20  C2  UNK     1      29.139  -6.952  38.503  1.00  0.00     0.020 C 
HETATM   21  C1  UNK     1      29.448  -5.542  38.991  1.00  0.00     0.003 C 
HETATM   22  C3  UNK     1      30.735  -5.034  38.352  1.00  0.00     0.020 C 
HETATM   23  C5  UNK     1      30.664  -5.098  36.828  1.00  0.00     0.123 C 
ENDBRANCH  15  18
ENDBRANCH   2  12
TORSDOF 3
ENDMDL
MODEL 5
REMARK VINA RESULT:      -7.5      0.624      1.566
REMARK  3 active torsions:
REMARK  status: ('A' for Active; 'I' for Inactive)
REMARK    1  A    between atoms: C6_9  and  N1_2 
REMARK    2  A    between atoms: C11_14  and  C12_15 
REMARK    3  A    between atoms: C13_16  and  C14_17 
ROOT
HETATM    1  N2  UNK     1      32.154  -9.596  28.507  1.00  0.00    -0.191 NA
HETATM    2  C12 UNK     1      31.916  -8.282  31.656  1.00  0.00     0.034 C 
HETATM    3  C13 UNK     1      31.131  -8.439  30.588  1.00  0.00     0.055 C 
HETATM    4  C19 UNK     1      31.698  -9.078  29.439  1.00  0.00     0.100 C 
ENDROOT
BRANCH   3   5
HETATM    5  C14 UNK     1      29.728  -7.988  30.500  1.00  0.00    -0.015 A 
HETATM    6  C15 UNK     1      28.710  -8.919  30.627  1.00  0.00     0.016 A 
HETATM    7  C17 UNK     1      27.385  -8.493  30.544  1.00  0.00     0.043 A 
HETATM    8  C20 UNK     1      27.097  -7.145  30.335  1.00  0.00     0.116 A 
HETATM    9  C18 UNK     1      28.134  -6.221  30.210  1.00  0.00     0.043 A 
HETATM   10  F1  UNK     1      25.824  -6.737  30.256  1.00  0.00    -0.206 F 
HETATM   11  C16 UNK     1      29.461  -6.647  30.293  1.00  0.00     0.016 A 
ENDBRANCH   3   5
BRANCH   2  12
HETATM   12  C11 UNK     1      31.475  -7.664  32.896  1.00  0.00    -0.035 A 
HETATM   13  C10 UNK     1      31.761  -6.322  33.147  1.00  0.00     0.013 A 
HETATM   14  C8  UNK     1      31.338  -5.730  34.337  1.00  0.00     0.030 A 
HETATM   15  C6  UNK     1      30.621  -6.468  35.298  1.00  0.00     0.030 A 
HETATM   16  C7  UNK     1      30.342  -7.821  35.024  1.00  0.00     0.030 A 
HETATM   17  C9  UNK     1      30.765  -8.413  33.834  1.00  0.00     0.013 A 
BRANCH  15  18
HETATM   18  N1  UNK     1      30.194  -5.873  36.492  1.00  0.00    -0.381 N 
HETATM   19  C4  UNK     1      30.953  -4.747  37.048  1.00  0.00     0.123 C 
HETATM   20  C2  UNK     1      30.067  -3.903  37.964  1.00  0.00     0.020 C 
HETATM   21  C1  UNK     1      29.384  -4.755  39.026  1.00  0.00     0.003 C 
HETATM   22  C3  UNK     1      28.599  -5.885  38.369  1.00  0.00     0.020 C 
HETATM   23  C5  UNK     1      29.490  -6.727  37.459  1.00  0.00     0.123 C 
ENDBRANCH  15  18
ENDBRANCH   2  12
TORSDOF 3
ENDMDL
MODEL 6
REMARK VINA RESULT:      -7.2      4.446      7.570
REMARK  3 active torsions:
REMARK  status: ('A' for Active; 'I' for Inactive)
REMARK    1  A    between atoms: C6_9  and  N1_2 
REMARK    2  A    between atoms: C11_14  and  C12_15 
REMARK    3  A    between atoms: C13_16  and  C14_17 
ROOT
HETATM    1  N2  UNK     1      29.259  -3.634  39.962  1.00  0.00    -0.191 NA
HETATM    2  C12 UNK     1      31.816  -4.859  38.047  1.00  0.00     0.034 C 
HETATM    3  C13 UNK     1      30.545  -5.168  38.315  1.00  0.00     0.055 C 
HETATM    4  C19 UNK     1      29.836  -4.320  39.225  1.00  0.00     0.100 C 
ENDROOT
BRANCH   3   5
HETATM    5  C14 UNK     1      29.823  -6.328  37.754  1.00  0.00    -0.015 A 
HETATM    6  C15 UNK     1      29.168  -6.194  36.542  1.00  0.00     0.016 A 
HETATM    7  C17 UNK     1      28.487  -7.289  36.012  1.00  0.00     0.043 A 
HETATM    8  C20 UNK     1      28.471  -8.501  36.702  1.00  0.00     0.116 A 
HETATM    9  C18 UNK     1      29.136  -8.618  37.922  1.00  0.00     0.043 A 
HETATM   10  F1  UNK     1      27.816  -9.553  36.193  1.00  0.00    -0.206 F 
HETATM   11  C16 UNK     1      29.818  -7.522  38.452  1.00  0.00     0.016 A 
ENDBRANCH   3   5
BRANCH   2  12
HETATM   12  C11 UNK     1      32.653  -5.619  37.134  1.00  0.00    -0.035 A 
HETATM   13  C10 UNK     1      33.418  -6.684  37.611  1.00  0.00     0.013 A 
HETATM   14  C8  UNK     1      34.223  -7.412  36.736  1.00  0.00     0.030 A 
HETATM   15  C6  UNK     1      34.278  -7.091  35.366  1.00  0.00     0.030 A 
HETATM   16  C7  UNK     1      33.498  -6.013  34.905  1.00  0.00     0.030 A 
HETATM   17  C9  UNK     1      32.693  -5.284  35.780  1.00  0.00     0.013 A 
BRANCH  15  18
HETATM   18  N1  UNK     1      35.084  -7.823  34.486  1.00  0.00    -0.381 N 
HETATM   19  C4  UNK     1      36.401  -7.299  34.108  1.00  0.00     0.123 C 
HETATM   20  C2  UNK     1      37.319  -8.432  33.650  1.00  0.00     0.020 C 
HETATM   21  C1  UNK     1      36.669  -9.274  32.560  1.00  0.00     0.003 C 
HETATM   22  C3  UNK     1      35.320  -9.801  33.036  1.00  0.00     0.020 C 
HETATM   23  C5  UNK     1      34.406  -8.665  33.489  1.00  0.00     0.123 C 
ENDBRANCH  15  18
ENDBRANCH   2  12
TORSDOF 3
ENDMDL
MODEL 7
REMARK VINA RESULT:      -7.1      4.329      7.954
REMARK  3 active torsions:
REMARK  status: ('A' for Active; 'I' for Inactive)
REMARK    1  A    between atoms: C6_9  and  N1_2 
REMARK    2  A    between atoms: C11_14  and  C12_15 
REMARK    3  A    between atoms: C13_16  and  C14_17 
ROOT
HETATM    1  N2  UNK     1      29.520  -3.640  39.864  1.00  0.00    -0.191 NA
HETATM    2  C12 UNK     1      29.453  -6.491  37.975  1.00  0.00     0.034 C 
HETATM    3  C13 UNK     1      30.284  -5.470  38.195  1.00  0.00     0.055 C 
HETATM    4  C19 UNK     1      29.861  -4.460  39.117  1.00  0.00     0.100 C 
ENDROOT
BRANCH   3   5
HETATM    5  C14 UNK     1      31.599  -5.299  37.546  1.00  0.00    -0.015 A 
HETATM    6  C15 UNK     1      31.694  -4.518  36.407  1.00  0.00     0.016 A 
HETATM    7  C17 UNK     1      32.936  -4.357  35.794  1.00  0.00     0.043 A 
HETATM    8  C20 UNK     1      34.064  -4.977  36.330  1.00  0.00     0.116 A 
HETATM    9  C18 UNK     1      33.951  -5.760  37.478  1.00  0.00     0.043 A 
HETATM   10  F1  UNK     1      35.257  -4.821  35.741  1.00  0.00    -0.206 F 
HETATM   11  C16 UNK     1      32.708  -5.922  38.092  1.00  0.00     0.016 A 
ENDBRANCH   3   5
BRANCH   2  12
HETATM   12  C11 UNK     1      29.753  -7.594  37.077  1.00  0.00    -0.035 A 
HETATM   13  C10 UNK     1      30.378  -8.742  37.566  1.00  0.00     0.013 A 
HETATM   14  C8  UNK     1      30.667  -9.799  36.704  1.00  0.00     0.030 A 
HETATM   15  C6  UNK     1      30.336  -9.730  35.337  1.00  0.00     0.030 A 
HETATM   16  C7  UNK     1      29.706  -8.563  34.864  1.00  0.00     0.030 A 
HETATM   17  C9  UNK     1      29.417  -7.506  35.726  1.00  0.00     0.013 A 
BRANCH  15  18
HETATM   18  N1  UNK     1      30.625 -10.793  34.472  1.00  0.00    -0.381 N 
HETATM   19  C4  UNK     1      31.665 -11.760  34.839  1.00  0.00     0.123 C 
HETATM   20  C2  UNK     1      31.443 -13.088  34.115  1.00  0.00     0.020 C 
HETATM   21  C1  UNK     1      31.305 -12.891  32.611  1.00  0.00     0.003 C 
HETATM   22  C3  UNK     1      30.191 -11.894  32.311  1.00  0.00     0.020 C 
HETATM   23  C5  UNK     1      30.420 -10.568  33.033  1.00  0.00     0.123 C 
ENDBRANCH  15  18
ENDBRANCH   2  12
TORSDOF 3
ENDMDL
MODEL 8
REMARK VINA RESULT:      -7.1      3.673      7.904
REMARK  3 active torsions:
REMARK  status: ('A' for Active; 'I' for Inactive)
REMARK    1  A    between atoms: C6_9  and  N1_2 
REMARK    2  A    between atoms: C11_14  and  C12_15 
REMARK    3  A    between atoms: C13_16  and  C14_17 
ROOT
HETATM    1  N2  UNK     1      29.464  -3.751  39.859  1.00  0.00    -0.191 NA
HETATM    2  C12 UNK     1      30.955  -4.484  36.869  1.00  0.00     0.034 C 
HETATM    3  C13 UNK     1      30.514  -5.144  37.942  1.00  0.00     0.055 C 
HETATM    4  C19 UNK     1      29.934  -4.373  39.000  1.00  0.00     0.100 C 
ENDROOT
BRANCH   3   5
HETATM    5  C14 UNK     1      30.594  -6.607  38.124  1.00  0.00    -0.015 A 
HETATM    6  C15 UNK     1      31.833  -7.199  38.301  1.00  0.00     0.016 A 
HETATM    7  C17 UNK     1      31.909  -8.580  38.473  1.00  0.00     0.043 A 
HETATM    8  C20 UNK     1      30.746  -9.349  38.465  1.00  0.00     0.116 A 
HETATM    9  C18 UNK     1      29.506  -8.737  38.285  1.00  0.00     0.043 A 
HETATM   10  F1  UNK     1      30.820 -10.677  38.630  1.00  0.00    -0.206 F 
HETATM   11  C16 UNK     1      29.430  -7.354  38.113  1.00  0.00     0.016 A 
ENDBRANCH   3   5
BRANCH   2  12
HETATM   12  C11 UNK     1      31.553  -5.133  35.714  1.00  0.00    -0.035 A 
HETATM   13  C10 UNK     1      32.929  -5.050  35.502  1.00  0.00     0.013 A 
HETATM   14  C8  UNK     1      33.502  -5.673  34.393  1.00  0.00     0.030 A 
HETATM   15  C6  UNK     1      32.711  -6.391  33.476  1.00  0.00     0.030 A 
HETATM   16  C7  UNK     1      31.324  -6.462  33.709  1.00  0.00     0.030 A 
HETATM   17  C9  UNK     1      30.751  -5.840  34.818  1.00  0.00     0.013 A 
BRANCH  15  18
HETATM   18  N1  UNK     1      33.287  -7.017  32.364  1.00  0.00    -0.381 N 
HETATM   19  C4  UNK     1      32.438  -7.390  31.227  1.00  0.00     0.123 C 
HETATM   20  C2  UNK     1      33.271  -7.509  29.951  1.00  0.00     0.020 C 
HETATM   21  C1  UNK     1      34.464  -8.437  30.144  1.00  0.00     0.003 C 
HETATM   22  C3  UNK     1      35.307  -7.970  31.325  1.00  0.00     0.020 C 
HETATM   23  C5  UNK     1      34.470  -7.857  32.598  1.00  0.00     0.123 C 
ENDBRANCH  15  18
ENDBRANCH   2  12
TORSDOF 3
ENDMDL
MODEL 9
REMARK VINA RESULT:      -7.1      1.597      2.305
REMARK  3 active torsions:
REMARK  status: ('A' for Active; 'I' for Inactive)
REMARK    1  A    between atoms: C6_9  and  N1_2 
REMARK    2  A    between atoms: C11_14  and  C12_15 
REMARK    3  A    between atoms: C13_16  and  C14_17 
ROOT
HETATM    1  N2  UNK     1      32.420  -8.982  28.590  1.00  0.00    -0.191 NA
HETATM    2  C12 UNK     1      31.547  -8.997  31.897  1.00  0.00     0.034 C 
HETATM    3  C13 UNK     1      30.993  -8.662  30.729  1.00  0.00     0.055 C 
HETATM    4  C19 UNK     1      31.783  -8.839  29.548  1.00  0.00     0.100 C 
ENDROOT
BRANCH   3   5
HETATM    5  C14 UNK     1      29.634  -8.107  30.569  1.00  0.00    -0.015 A 
HETATM    6  C15 UNK     1      29.461  -6.734  30.565  1.00  0.00     0.016 A 
HETATM    7  C17 UNK     1      28.178  -6.210  30.413  1.00  0.00     0.043 A 
HETATM    8  C20 UNK     1      27.087  -7.067  30.268  1.00  0.00     0.116 A 
HETATM    9  C18 UNK     1      27.280  -8.448  30.274  1.00  0.00     0.043 A 
HETATM   10  F1  UNK     1      25.855  -6.563  30.122  1.00  0.00    -0.206 F 
HETATM   11  C16 UNK     1      28.564  -8.973  30.426  1.00  0.00     0.016 A 
ENDBRANCH   3   5
BRANCH   2  12
HETATM   12  C11 UNK     1      30.862  -8.885  33.174  1.00  0.00    -0.035 A 
HETATM   13  C10 UNK     1      30.130  -9.963  33.671  1.00  0.00     0.013 A 
HETATM   14  C8  UNK     1      29.472  -9.854  34.896  1.00  0.00     0.030 A 
HETATM   15  C6  UNK     1      29.533  -8.665  35.647  1.00  0.00     0.030 A 
HETATM   16  C7  UNK     1      30.278  -7.588  35.127  1.00  0.00     0.030 A 
HETATM   17  C9  UNK     1      30.936  -7.697  33.903  1.00  0.00     0.013 A 
BRANCH  15  18
HETATM   18  N1  UNK     1      28.875  -8.555  36.878  1.00  0.00    -0.381 N 
HETATM   19  C4  UNK     1      28.096  -7.347  37.174  1.00  0.00     0.123 C 
HETATM   20  C2  UNK     1      27.035  -7.639  38.236  1.00  0.00     0.020 C 
HETATM   21  C1  UNK     1      27.644  -8.285  39.474  1.00  0.00     0.003 C 
HETATM   22  C3  UNK     1      28.413  -9.542  39.087  1.00  0.00     0.020 C 
HETATM   23  C5  UNK     1      29.474  -9.244  38.030  1.00  0.00     0.123 C 
ENDBRANCH  15  18
ENDBRANCH   2  12
TORSDOF 3
ENDMDL
MODEL 10
REMARK VINA RESULT:      -7.1      3.555      7.928
REMARK  3 active torsions:
REMARK  status: ('A' for Active; 'I' for Inactive)
REMARK    1  A    between atoms: C6_9  and  N1_2 
REMARK    2  A    between atoms: C11_14  and  C12_15 
REMARK    3  A    between atoms: C13_16  and  C14_17 
ROOT
HETATM    1  N2  UNK     1      29.510  -3.692  39.923  1.00  0.00    -0.191 NA
HETATM    2  C12 UNK     1      29.153  -5.983  37.408  1.00  0.00     0.034 C 
HETATM    3  C13 UNK     1      30.126  -5.236  37.934  1.00  0.00     0.055 C 
HETATM    4  C19 UNK     1      29.784  -4.384  39.032  1.00  0.00     0.100 C 
ENDROOT
BRANCH   3   5
HETATM    5  C14 UNK     1      31.523  -5.212  37.456  1.00  0.00    -0.015 A 
HETATM    6  C15 UNK     1      31.861  -4.388  36.398  1.00  0.00     0.016 A 
HETATM    7  C17 UNK     1      33.180  -4.365  35.946  1.00  0.00     0.043 A 
HETATM    8  C20 UNK     1      34.141  -5.167  36.561  1.00  0.00     0.116 A 
HETATM    9  C18 UNK     1      33.783  -5.992  37.627  1.00  0.00     0.043 A 
HETATM   10  F1  UNK     1      35.408  -5.145  36.127  1.00  0.00    -0.206 F 
HETATM   11  C16 UNK     1      32.463  -6.015  38.078  1.00  0.00     0.016 A 
ENDBRANCH   3   5
BRANCH   2  12
HETATM   12  C11 UNK     1      29.354  -6.903  36.300  1.00  0.00    -0.035 A 
HETATM   13  C10 UNK     1      29.105  -6.486  34.993  1.00  0.00     0.013 A 
HETATM   14  C8  UNK     1      29.298  -7.369  33.931  1.00  0.00     0.030 A 
HETATM   15  C6  UNK     1      29.743  -8.686  34.155  1.00  0.00     0.030 A 
HETATM   16  C7  UNK     1      29.988  -9.086  35.483  1.00  0.00     0.030 A 
HETATM   17  C9  UNK     1      29.796  -8.203  36.545  1.00  0.00     0.013 A 
BRANCH  15  18
HETATM   18  N1  UNK     1      29.938  -9.572  33.089  1.00  0.00    -0.381 N 
HETATM   19  C4  UNK     1      30.538 -10.887  33.345  1.00  0.00     0.123 C 
HETATM   20  C2  UNK     1      30.150 -11.877  32.246  1.00  0.00     0.020 C 
HETATM   21  C1  UNK     1      30.465 -11.328  30.860  1.00  0.00     0.003 C 
HETATM   22  C3  UNK     1      29.788  -9.976  30.664  1.00  0.00     0.020 C 
HETATM   23  C5  UNK     1      30.182  -8.990  31.761  1.00  0.00     0.123 C 
ENDBRANCH  15  18
ENDBRANCH   2  12
TORSDOF 3
ENDMDL
