MODEL 1
REMARK VINA RESULT:      -8.5      0.000      0.000
REMARK  3 active torsions:
REMARK  status: ('A' for Active; 'I' for Inactive)
REMARK    1  A    between atoms: C7_11  and  O2_2 
REMARK    2  A    between atoms: C9_13  and  O4_4 
REMARK    3  A    between atoms: C3_7  and  C5_9 
ROOT
HETATM    1  O1  UNK     1      18.443  -0.534  33.309  1.00  0.00    -0.306 OA
HETATM    2  O3  UNK     1      20.544  -3.042  35.737  1.00  0.00    -0.287 OA
HETATM    3  C1  UNK     1      18.785  -1.479  35.520  1.00  0.00     0.051 A 
HETATM    4  C2  UNK     1      18.110  -0.639  34.635  1.00  0.00     0.126 A 
HETATM    5  C3  UNK     1      19.492  -1.303  32.828  1.00  0.00     0.090 A 
HETATM    6  C4  UNK     1      19.905  -2.288  35.016  1.00  0.00     0.187 A 
HETATM    7  C6  UNK     1      20.222  -2.141  33.581  1.00  0.00     0.093 A 
HETATM    8  C7  UNK     1      17.046   0.141  35.088  1.00  0.00     0.134 A 
HETATM    9  C8  UNK     1      18.402  -1.546  36.862  1.00  0.00     0.021 A 
HETATM   10  C9  UNK     1      16.660   0.076  36.428  1.00  0.00     0.101 A 
HETATM   11  C10 UNK     1      17.337  -0.765  37.312  1.00  0.00     0.040 A 
ENDROOT
BRANCH   5  12
HETATM   12  C5  UNK     1      19.769  -1.108  31.391  1.00  0.00    -0.002 A 
HETATM   13  C11 UNK     1      19.573   0.144  30.801  1.00  0.00     0.014 A 
HETATM   14  C13 UNK     1      19.835   0.328  29.444  1.00  0.00     0.001 A 
HETATM   15  C15 UNK     1      20.295  -0.738  28.672  1.00  0.00     0.000 A 
HETATM   16  C14 UNK     1      20.492  -1.989  29.256  1.00  0.00     0.001 A 
HETATM   17  C12 UNK     1      20.230  -2.174  30.614  1.00  0.00     0.014 A 
ENDBRANCH   5  12
BRANCH   8  18
HETATM   18  O2  UNK     1      16.380   0.964  34.230  1.00  0.00    -0.356 OA
HETATM   19  H9  UNK     1      15.425   0.822  34.348  1.00  0.00     0.218 HD
ENDBRANCH   8  18
BRANCH  10  20
HETATM   20  O4  UNK     1      15.622   0.831  36.887  1.00  0.00    -0.358 OA
HETATM   21  H10 UNK     1      15.264   1.344  36.141  1.00  0.00     0.217 HD
ENDBRANCH  10  20
TORSDOF 3
ENDMDL
MODEL 2
REMARK VINA RESULT:      -8.4     13.563     16.651
REMARK  3 active torsions:
REMARK  status: ('A' for Active; 'I' for Inactive)
REMARK    1  A    between atoms: C7_11  and  O2_2 
REMARK    2  A    between atoms: C9_13  and  O4_4 
REMARK    3  A    between atoms: C3_7  and  C5_9 
ROOT
HETATM    1  O1  UNK     1      19.087  -0.944  17.746  1.00  0.00    -0.306 OA
HETATM    2  O3  UNK     1      19.216   2.366  15.374  1.00  0.00    -0.287 OA
HETATM    3  C1  UNK     1      19.144   1.477  17.563  1.00  0.00     0.051 A 
HETATM    4  C2  UNK     1      19.098   0.304  18.314  1.00  0.00     0.126 A 
HETATM    5  C3  UNK     1      19.132  -1.041  16.364  1.00  0.00     0.090 A 
HETATM    6  C4  UNK     1      19.180   1.379  16.095  1.00  0.00     0.187 A 
HETATM    7  C6  UNK     1      19.170   0.013  15.533  1.00  0.00     0.093 A 
HETATM    8  C7  UNK     1      19.060   0.370  19.707  1.00  0.00     0.134 A 
HETATM    9  C8  UNK     1      19.153   2.723  18.196  1.00  0.00     0.021 A 
HETATM   10  C9  UNK     1      19.069   1.612  20.343  1.00  0.00     0.101 A 
HETATM   11  C10 UNK     1      19.116   2.785  19.589  1.00  0.00     0.040 A 
ENDROOT
BRANCH   5  12
HETATM   12  C5  UNK     1      19.109  -2.428  15.858  1.00  0.00    -0.002 A 
HETATM   13  C11 UNK     1      17.926  -2.971  15.349  1.00  0.00     0.014 A 
HETATM   14  C13 UNK     1      17.906  -4.282  14.872  1.00  0.00     0.001 A 
HETATM   15  C15 UNK     1      19.067  -5.053  14.901  1.00  0.00     0.000 A 
HETATM   16  C14 UNK     1      20.250  -4.514  15.409  1.00  0.00     0.001 A 
HETATM   17  C12 UNK     1      20.271  -3.204  15.886  1.00  0.00     0.014 A 
ENDBRANCH   5  12
BRANCH   8  18
HETATM   18  O2  UNK     1      19.016  -0.772  20.450  1.00  0.00    -0.356 OA
HETATM   19  H9  UNK     1      18.590  -1.467  19.919  1.00  0.00     0.218 HD
ENDBRANCH   8  18
BRANCH  10  20
HETATM   20  O4  UNK     1      19.034   1.694  21.703  1.00  0.00    -0.358 OA
HETATM   21  H10 UNK     1      19.143   2.628  21.956  1.00  0.00     0.217 HD
ENDBRANCH  10  20
TORSDOF 3
ENDMDL
MODEL 3
REMARK VINA RESULT:      -8.3      2.319      6.666
REMARK  3 active torsions:
REMARK  status: ('A' for Active; 'I' for Inactive)
REMARK    1  A    between atoms: C7_11  and  O2_2 
REMARK    2  A    between atoms: C9_13  and  O4_4 
REMARK    3  A    between atoms: C3_7  and  C5_9 
ROOT
HETATM    1  O1  UNK     1      18.927  -0.103  32.892  1.00  0.00    -0.306 OA
HETATM    2  O3  UNK     1      18.652   2.974  30.237  1.00  0.00    -0.287 OA
HETATM    3  C1  UNK     1      19.326   0.748  30.653  1.00  0.00     0.051 A 
HETATM    4  C2  UNK     1      19.390  -0.262  31.612  1.00  0.00     0.126 A 
HETATM    5  C3  UNK     1      18.362   1.114  33.244  1.00  0.00     0.090 A 
HETATM    6  C4  UNK     1      18.737   2.043  31.025  1.00  0.00     0.187 A 
HETATM    7  C6  UNK     1      18.249   2.162  32.414  1.00  0.00     0.093 A 
HETATM    8  C7  UNK     1      19.947  -1.499  31.285  1.00  0.00     0.134 A 
HETATM    9  C8  UNK     1      19.815   0.529  29.362  1.00  0.00     0.021 A 
HETATM   10  C9  UNK     1      20.435  -1.721  29.997  1.00  0.00     0.101 A 
HETATM   11  C10 UNK     1      20.369  -0.709  29.039  1.00  0.00     0.040 A 
ENDROOT
BRANCH   5  12
HETATM   12  C5  UNK     1      17.901   1.178  34.646  1.00  0.00    -0.002 A 
HETATM   13  C11 UNK     1      16.695   0.578  35.017  1.00  0.00     0.014 A 
HETATM   14  C13 UNK     1      16.261   0.640  36.341  1.00  0.00     0.001 A 
HETATM   15  C15 UNK     1      17.031   1.300  37.298  1.00  0.00     0.000 A 
HETATM   16  C14 UNK     1      18.235   1.901  36.931  1.00  0.00     0.001 A 
HETATM   17  C12 UNK     1      18.670   1.840  35.607  1.00  0.00     0.014 A 
ENDBRANCH   5  12
BRANCH   8  18
HETATM   18  O2  UNK     1      20.013  -2.492  32.216  1.00  0.00    -0.356 OA
HETATM   19  H9  UNK     1      20.195  -2.088  33.082  1.00  0.00     0.218 HD
ENDBRANCH   8  18
BRANCH  10  20
HETATM   20  O4  UNK     1      20.981  -2.924  29.661  1.00  0.00    -0.358 OA
HETATM   21  H10 UNK     1      20.264  -3.511  29.362  1.00  0.00     0.217 HD
ENDBRANCH  10  20
TORSDOF 3
ENDMDL
MODEL 4
REMARK VINA RESULT:      -8.3      1.819      5.933
REMARK  3 active torsions:
REMARK  status: ('A' for Active; 'I' for Inactive)
REMARK    1  A    between atoms: C7_11  and  O2_2 
REMARK    2  A    between atoms: C9_13  and  O4_4 
REMARK    3  A    between atoms: C3_7  and  C5_9 
ROOT
HETATM    1  O1  UNK     1      18.597  -0.017  32.835  1.00  0.00    -0.306 OA
HETATM    2  O3  UNK     1      20.887  -3.333  33.436  1.00  0.00    -0.287 OA
HETATM    3  C1  UNK     1      20.057  -1.725  31.915  1.00  0.00     0.051 A 
HETATM    4  C2  UNK     1      19.256  -0.592  31.780  1.00  0.00     0.126 A 
HETATM    5  C3  UNK     1      18.741  -0.584  34.093  1.00  0.00     0.090 A 
HETATM    6  C4  UNK     1      20.204  -2.336  33.245  1.00  0.00     0.187 A 
HETATM    7  C6  UNK     1      19.477  -1.677  34.349  1.00  0.00     0.093 A 
HETATM    8  C7  UNK     1      19.098   0.005  30.529  1.00  0.00     0.134 A 
HETATM    9  C8  UNK     1      20.706  -2.269  30.803  1.00  0.00     0.021 A 
HETATM   10  C9  UNK     1      19.744  -0.535  29.416  1.00  0.00     0.101 A 
HETATM   11  C10 UNK     1      20.546  -1.669  29.554  1.00  0.00     0.040 A 
ENDROOT
BRANCH   5  12
HETATM   12  C5  UNK     1      17.985   0.110  35.154  1.00  0.00    -0.002 A 
HETATM   13  C11 UNK     1      16.604  -0.076  35.269  1.00  0.00     0.014 A 
HETATM   14  C13 UNK     1      15.890   0.580  36.272  1.00  0.00     0.001 A 
HETATM   15  C15 UNK     1      16.554   1.422  37.164  1.00  0.00     0.000 A 
HETATM   16  C14 UNK     1      17.931   1.610  37.052  1.00  0.00     0.001 A 
HETATM   17  C12 UNK     1      18.646   0.955  36.050  1.00  0.00     0.014 A 
ENDBRANCH   5  12
BRANCH   8  18
HETATM   18  O2  UNK     1      18.317   1.113  30.388  1.00  0.00    -0.356 OA
HETATM   19  H9  UNK     1      18.889   1.899  30.433  1.00  0.00     0.218 HD
ENDBRANCH   8  18
BRANCH  10  20
HETATM   20  O4  UNK     1      19.602   0.036  28.187  1.00  0.00    -0.358 OA
HETATM   21  H10 UNK     1      20.039   0.906  28.202  1.00  0.00     0.217 HD
ENDBRANCH  10  20
TORSDOF 3
ENDMDL
MODEL 5
REMARK VINA RESULT:      -8.3      1.611      2.871
REMARK  3 active torsions:
REMARK  status: ('A' for Active; 'I' for Inactive)
REMARK    1  A    between atoms: C7_11  and  O2_2 
REMARK    2  A    between atoms: C9_13  and  O4_4 
REMARK    3  A    between atoms: C3_7  and  C5_9 
ROOT
HETATM    1  O1  UNK     1      18.930  -0.641  33.693  1.00  0.00    -0.306 OA
HETATM    2  O3  UNK     1      17.840   3.207  34.470  1.00  0.00    -0.287 OA
HETATM    3  C1  UNK     1      18.143   1.011  35.290  1.00  0.00     0.051 A 
HETATM    4  C2  UNK     1      18.526  -0.286  34.955  1.00  0.00     0.126 A 
HETATM    5  C3  UNK     1      18.964   0.338  32.711  1.00  0.00     0.090 A 
HETATM    6  C4  UNK     1      18.168   2.050  34.249  1.00  0.00     0.187 A 
HETATM    7  C6  UNK     1      18.612   1.618  32.907  1.00  0.00     0.093 A 
HETATM    8  C7  UNK     1      18.509  -1.290  35.924  1.00  0.00     0.134 A 
HETATM    9  C8  UNK     1      17.740   1.316  36.593  1.00  0.00     0.021 A 
HETATM   10  C9  UNK     1      18.109  -0.990  37.226  1.00  0.00     0.101 A 
HETATM   11  C10 UNK     1      17.725   0.310  37.559  1.00  0.00     0.040 A 
ENDROOT
BRANCH   5  12
HETATM   12  C5  UNK     1      19.406  -0.153  31.390  1.00  0.00    -0.002 A 
HETATM   13  C11 UNK     1      19.323   0.677  30.269  1.00  0.00     0.014 A 
HETATM   14  C13 UNK     1      19.741   0.213  29.022  1.00  0.00     0.001 A 
HETATM   15  C15 UNK     1      20.245  -1.081  28.892  1.00  0.00     0.000 A 
HETATM   16  C14 UNK     1      20.328  -1.912  30.009  1.00  0.00     0.001 A 
HETATM   17  C12 UNK     1      19.911  -1.449  31.256  1.00  0.00     0.014 A 
ENDBRANCH   5  12
BRANCH   8  18
HETATM   18  O2  UNK     1      18.883  -2.561  35.605  1.00  0.00    -0.356 OA
HETATM   19  H9  UNK     1      19.488  -2.521  34.844  1.00  0.00     0.218 HD
ENDBRANCH   8  18
BRANCH  10  20
HETATM   20  O4  UNK     1      18.087  -1.958  38.185  1.00  0.00    -0.358 OA
HETATM   21  H10 UNK     1      17.640  -2.741  37.818  1.00  0.00     0.217 HD
ENDBRANCH  10  20
TORSDOF 3
ENDMDL
MODEL 6
REMARK VINA RESULT:      -8.2      1.169      2.999
REMARK  3 active torsions:
REMARK  status: ('A' for Active; 'I' for Inactive)
REMARK    1  A    between atoms: C7_11  and  O2_2 
REMARK    2  A    between atoms: C9_13  and  O4_4 
REMARK    3  A    between atoms: C3_7  and  C5_9 
ROOT
HETATM    1  O1  UNK     1      19.486  -1.523  33.620  1.00  0.00    -0.306 OA
HETATM    2  O3  UNK     1      17.437   1.595  35.258  1.00  0.00    -0.287 OA
HETATM    3  C1  UNK     1      18.466  -0.509  35.577  1.00  0.00     0.051 A 
HETATM    4  C2  UNK     1      19.163  -1.542  34.953  1.00  0.00     0.126 A 
HETATM    5  C3  UNK     1      19.108  -0.423  32.865  1.00  0.00     0.090 A 
HETATM    6  C4  UNK     1      18.054   0.655  34.777  1.00  0.00     0.187 A 
HETATM    7  C6  UNK     1      18.428   0.628  33.348  1.00  0.00     0.093 A 
HETATM    8  C7  UNK     1      19.563  -2.658  35.689  1.00  0.00     0.134 A 
HETATM    9  C8  UNK     1      18.164  -0.582  36.940  1.00  0.00     0.021 A 
HETATM   10  C9  UNK     1      19.264  -2.734  37.049  1.00  0.00     0.101 A 
HETATM   11  C10 UNK     1      18.566  -1.698  37.673  1.00  0.00     0.040 A 
ENDROOT
BRANCH   5  12
HETATM   12  C5  UNK     1      19.499  -0.508  31.443  1.00  0.00    -0.002 A 
HETATM   13  C11 UNK     1      19.322   0.591  30.599  1.00  0.00     0.014 A 
HETATM   14  C13 UNK     1      19.692   0.510  29.256  1.00  0.00     0.001 A 
HETATM   15  C15 UNK     1      20.241  -0.669  28.754  1.00  0.00     0.000 A 
HETATM   16  C14 UNK     1      20.419  -1.769  29.594  1.00  0.00     0.001 A 
HETATM   17  C12 UNK     1      20.049  -1.689  30.936  1.00  0.00     0.014 A 
ENDBRANCH   5  12
BRANCH   8  18
HETATM   18  O2  UNK     1      20.245  -3.672  35.086  1.00  0.00    -0.356 OA
HETATM   19  H9  UNK     1      19.788  -3.898  34.257  1.00  0.00     0.218 HD
ENDBRANCH   8  18
BRANCH  10  20
HETATM   20  O4  UNK     1      19.648  -3.816  37.783  1.00  0.00    -0.358 OA
HETATM   21  H10 UNK     1      20.554  -3.662  38.104  1.00  0.00     0.217 HD
ENDBRANCH  10  20
TORSDOF 3
ENDMDL
MODEL 7
REMARK VINA RESULT:      -8.1     25.015     27.025
REMARK  3 active torsions:
REMARK  status: ('A' for Active; 'I' for Inactive)
REMARK    1  A    between atoms: C7_11  and  O2_2 
REMARK    2  A    between atoms: C9_13  and  O4_4 
REMARK    3  A    between atoms: C3_7  and  C5_9 
ROOT
HETATM    1  O1  UNK     1      13.328   7.542   8.481  1.00  0.00    -0.306 OA
HETATM    2  O3  UNK     1      15.446   4.278   9.690  1.00  0.00    -0.287 OA
HETATM    3  C1  UNK     1      15.338   6.631   9.496  1.00  0.00     0.051 A 
HETATM    4  C2  UNK     1      14.561   7.703   9.059  1.00  0.00     0.126 A 
HETATM    5  C3  UNK     1      12.830   6.255   8.334  1.00  0.00     0.090 A 
HETATM    6  C4  UNK     1      14.818   5.265   9.334  1.00  0.00     0.187 A 
HETATM    7  C6  UNK     1      13.484   5.145   8.709  1.00  0.00     0.093 A 
HETATM    8  C7  UNK     1      15.032   9.008   9.199  1.00  0.00     0.134 A 
HETATM    9  C8  UNK     1      16.588   6.855  10.078  1.00  0.00     0.021 A 
HETATM   10  C9  UNK     1      16.280   9.236   9.780  1.00  0.00     0.101 A 
HETATM   11  C10 UNK     1      17.056   8.162  10.218  1.00  0.00     0.040 A 
ENDROOT
BRANCH   5  12
HETATM   12  C5  UNK     1      11.500   6.196   7.696  1.00  0.00    -0.002 A 
HETATM   13  C11 UNK     1      10.345   6.162   8.483  1.00  0.00     0.014 A 
HETATM   14  C13 UNK     1       9.088   6.105   7.880  1.00  0.00     0.001 A 
HETATM   15  C15 UNK     1       8.982   6.085   6.490  1.00  0.00     0.000 A 
HETATM   16  C14 UNK     1      10.133   6.119   5.702  1.00  0.00     0.001 A 
HETATM   17  C12 UNK     1      11.390   6.175   6.303  1.00  0.00     0.014 A 
ENDBRANCH   5  12
BRANCH   8  18
HETATM   18  O2  UNK     1      14.280  10.062   8.774  1.00  0.00    -0.356 OA
HETATM   19  H9  UNK     1      14.857  10.672   8.283  1.00  0.00     0.218 HD
ENDBRANCH   8  18
BRANCH  10  20
HETATM   20  O4  UNK     1      16.755  10.505   9.926  1.00  0.00    -0.358 OA
HETATM   21  H10 UNK     1      16.057  11.047  10.334  1.00  0.00     0.217 HD
ENDBRANCH  10  20
TORSDOF 3
ENDMDL
MODEL 8
REMARK VINA RESULT:      -8.0      2.243      6.616
REMARK  3 active torsions:
REMARK  status: ('A' for Active; 'I' for Inactive)
REMARK    1  A    between atoms: C7_11  and  O2_2 
REMARK    2  A    between atoms: C9_13  and  O4_4 
REMARK    3  A    between atoms: C3_7  and  C5_9 
ROOT
HETATM    1  O1  UNK     1      18.757   0.155  32.979  1.00  0.00    -0.306 OA
HETATM    2  O3  UNK     1      17.799   4.096  32.583  1.00  0.00    -0.287 OA
HETATM    3  C1  UNK     1      18.530   2.102  31.545  1.00  0.00     0.051 A 
HETATM    4  C2  UNK     1      18.844   0.760  31.751  1.00  0.00     0.126 A 
HETATM    5  C3  UNK     1      18.329   0.913  34.059  1.00  0.00     0.090 A 
HETATM    6  C4  UNK     1      18.086   2.912  32.690  1.00  0.00     0.187 A 
HETATM    7  C6  UNK     1      18.006   2.214  33.990  1.00  0.00     0.093 A 
HETATM    8  C7  UNK     1      19.270  -0.029  30.682  1.00  0.00     0.134 A 
HETATM    9  C8  UNK     1      18.638   2.666  30.271  1.00  0.00     0.021 A 
HETATM   10  C9  UNK     1      19.378   0.530  29.409  1.00  0.00     0.101 A 
HETATM   11  C10 UNK     1      19.063   1.874  29.204  1.00  0.00     0.040 A 
ENDROOT
BRANCH   5  12
HETATM   12  C5  UNK     1      18.277   0.166  35.333  1.00  0.00    -0.002 A 
HETATM   13  C11 UNK     1      18.729  -1.155  35.390  1.00  0.00     0.014 A 
HETATM   14  C13 UNK     1      18.679  -1.860  36.593  1.00  0.00     0.001 A 
HETATM   15  C15 UNK     1      18.181  -1.246  37.742  1.00  0.00     0.000 A 
HETATM   16  C14 UNK     1      17.729   0.073  37.687  1.00  0.00     0.001 A 
HETATM   17  C12 UNK     1      17.777   0.778  36.485  1.00  0.00     0.014 A 
ENDBRANCH   5  12
BRANCH   8  18
HETATM   18  O2  UNK     1      19.578  -1.342  30.875  1.00  0.00    -0.356 OA
HETATM   19  H9  UNK     1      20.547  -1.434  30.863  1.00  0.00     0.218 HD
ENDBRANCH   8  18
BRANCH  10  20
HETATM   20  O4  UNK     1      19.791  -0.226  28.353  1.00  0.00    -0.358 OA
HETATM   21  H10 UNK     1      20.256   0.354  27.724  1.00  0.00     0.217 HD
ENDBRANCH  10  20
TORSDOF 3
ENDMDL
MODEL 9
REMARK VINA RESULT:      -8.0     24.685     27.373
REMARK  3 active torsions:
REMARK  status: ('A' for Active; 'I' for Inactive)
REMARK    1  A    between atoms: C7_11  and  O2_2 
REMARK    2  A    between atoms: C9_13  and  O4_4 
REMARK    3  A    between atoms: C3_7  and  C5_9 
ROOT
HETATM    1  O1  UNK     1      11.315   7.612   9.439  1.00  0.00    -0.306 OA
HETATM    2  O3  UNK     1      12.027   6.169   5.696  1.00  0.00    -0.287 OA
HETATM    3  C1  UNK     1      10.436   6.821   7.318  1.00  0.00     0.051 A 
HETATM    4  C2  UNK     1      10.264   7.315   8.609  1.00  0.00     0.126 A 
HETATM    5  C3  UNK     1      12.604   7.418   8.967  1.00  0.00     0.090 A 
HETATM    6  C4  UNK     1      11.802   6.604   6.817  1.00  0.00     0.187 A 
HETATM    7  C6  UNK     1      12.899   6.942   7.747  1.00  0.00     0.093 A 
HETATM    8  C7  UNK     1       8.979   7.527   9.109  1.00  0.00     0.134 A 
HETATM    9  C8  UNK     1       9.328   6.536   6.516  1.00  0.00     0.021 A 
HETATM   10  C9  UNK     1       7.869   7.244   8.312  1.00  0.00     0.101 A 
HETATM   11  C10 UNK     1       8.044   6.750   7.018  1.00  0.00     0.040 A 
ENDROOT
BRANCH   5  12
HETATM   12  C5  UNK     1      13.658   7.763   9.942  1.00  0.00    -0.002 A 
HETATM   13  C11 UNK     1      13.435   8.762  10.893  1.00  0.00     0.014 A 
HETATM   14  C13 UNK     1      14.431   9.087  11.814  1.00  0.00     0.001 A 
HETATM   15  C15 UNK     1      15.652   8.414  11.788  1.00  0.00     0.000 A 
HETATM   16  C14 UNK     1      15.878   7.416  10.840  1.00  0.00     0.001 A 
HETATM   17  C12 UNK     1      14.883   7.090   9.919  1.00  0.00     0.014 A 
ENDBRANCH   5  12
BRANCH   8  18
HETATM   18  O2  UNK     1       8.801   8.010  10.371  1.00  0.00    -0.356 OA
HETATM   19  H9  UNK     1       8.705   7.256  10.978  1.00  0.00     0.218 HD
ENDBRANCH   8  18
BRANCH  10  20
HETATM   20  O4  UNK     1       6.607   7.446   8.784  1.00  0.00    -0.358 OA
HETATM   21  H10 UNK     1       6.445   6.812   9.505  1.00  0.00     0.217 HD
ENDBRANCH  10  20
TORSDOF 3
ENDMDL
MODEL 10
REMARK VINA RESULT:      -7.9      2.839      6.884
REMARK  3 active torsions:
REMARK  status: ('A' for Active; 'I' for Inactive)
REMARK    1  A    between atoms: C7_11  and  O2_2 
REMARK    2  A    between atoms: C9_13  and  O4_4 
REMARK    3  A    between atoms: C3_7  and  C5_9 
ROOT
HETATM    1  O1  UNK     1      18.380   1.184  33.095  1.00  0.00    -0.306 OA
HETATM    2  O3  UNK     1      18.180   5.252  32.963  1.00  0.00    -0.287 OA
HETATM    3  C1  UNK     1      18.428   3.223  31.776  1.00  0.00     0.051 A 
HETATM    4  C2  UNK     1      18.490   1.836  31.893  1.00  0.00     0.126 A 
HETATM    5  C3  UNK     1      18.191   1.942  34.242  1.00  0.00     0.090 A 
HETATM    6  C4  UNK     1      18.238   4.031  32.991  1.00  0.00     0.187 A 
HETATM    7  C6  UNK     1      18.123   3.282  34.259  1.00  0.00     0.093 A 
HETATM    8  C7  UNK     1      18.671   1.048  30.756  1.00  0.00     0.134 A 
HETATM    9  C8  UNK     1      18.546   3.833  30.524  1.00  0.00     0.021 A 
HETATM   10  C9  UNK     1      18.789   1.653  29.505  1.00  0.00     0.101 A 
HETATM   11  C10 UNK     1      18.726   3.042  29.390  1.00  0.00     0.040 A 
ENDROOT
BRANCH   5  12
HETATM   12  C5  UNK     1      18.092   1.142  35.479  1.00  0.00    -0.002 A 
HETATM   13  C11 UNK     1      18.446  -0.210  35.471  1.00  0.00     0.014 A 
HETATM   14  C13 UNK     1      18.353  -0.965  36.641  1.00  0.00     0.001 A 
HETATM   15  C15 UNK     1      17.906  -0.371  37.821  1.00  0.00     0.000 A 
HETATM   16  C14 UNK     1      17.552   0.978  37.832  1.00  0.00     0.001 A 
HETATM   17  C12 UNK     1      17.645   1.734  36.663  1.00  0.00     0.014 A 
ENDBRANCH   5  12
BRANCH   8  18
HETATM   18  O2  UNK     1      18.732  -0.310  30.862  1.00  0.00    -0.356 OA
HETATM   19  H9  UNK     1      18.923  -0.677  29.982  1.00  0.00     0.218 HD
ENDBRANCH   8  18
BRANCH  10  20
HETATM   20  O4  UNK     1      18.966   0.898  28.384  1.00  0.00    -0.358 OA
HETATM   21  H10 UNK     1      19.887   0.583  28.369  1.00  0.00     0.217 HD
ENDBRANCH  10  20
TORSDOF 3
ENDMDL
