MODEL 1
REMARK VINA RESULT:      -8.0      0.000      0.000
REMARK  4 active torsions:
REMARK  status: ('A' for Active; 'I' for Inactive)
REMARK    1  A    between atoms: C7_12  and  O2_2 
REMARK    2  A    between atoms: C11_16  and  O3_3 
REMARK    3  A    between atoms: C14_19  and  O4_4 
REMARK    4  A    between atoms: C1_6  and  C2_7 
ROOT
HETATM    1  O1  UNK     1      16.818   5.774  32.416  1.00  0.00    -0.309 OA
HETATM    2  O5  UNK     1      19.827   7.921  34.127  1.00  0.00    -0.287 OA
HETATM    3  C1  UNK     1      18.148   5.425  32.246  1.00  0.00     0.093 A 
HETATM    4  C3  UNK     1      17.504   7.657  33.788  1.00  0.00     0.051 A 
HETATM    5  C4  UNK     1      16.524   6.878  33.176  1.00  0.00     0.090 A 
HETATM    6  C5  UNK     1      19.180   6.091  32.789  1.00  0.00     0.094 A 
HETATM    7  C6  UNK     1      18.916   7.284  33.616  1.00  0.00     0.187 A 
HETATM    8  C8  UNK     1      17.146   8.771  34.552  1.00  0.00     0.055 A 
HETATM    9  C10 UNK     1      15.176   7.208  33.325  1.00  0.00     0.041 A 
HETATM   10  C11 UNK     1      15.797   9.099  34.699  1.00  0.00     0.069 A 
HETATM   11  C13 UNK     1      14.815   8.319  34.087  1.00  0.00     0.039 A 
ENDROOT
BRANCH   3  12
HETATM   12  C2  UNK     1      18.351   4.220  31.417  1.00  0.00     0.031 A 
HETATM   13  C7  UNK     1      18.231   2.936  31.959  1.00  0.00     0.083 A 
HETATM   14  C12 UNK     1      18.427   1.813  31.157  1.00  0.00     0.074 A 
HETATM   15  C14 UNK     1      18.743   1.967  29.807  1.00  0.00     0.070 A 
HETATM   16  C15 UNK     1      18.864   3.245  29.260  1.00  0.00     0.038 A 
HETATM   17  C9  UNK     1      18.668   4.368  30.064  1.00  0.00     0.020 A 
BRANCH  13  18
HETATM   18  O2  UNK     1      17.922   2.758  33.275  1.00  0.00    -0.355 OA
HETATM   19  C16 UNK     1      18.207   1.479  33.839  1.00  0.00     0.210 C 
ENDBRANCH  13  18
BRANCH  15  20
HETATM   20  O4  UNK     1      18.936   0.871  29.023  1.00  0.00    -0.356 OA
HETATM   21  C18 UNK     1      20.103   0.089  29.275  1.00  0.00     0.210 C 
ENDBRANCH  15  20
ENDBRANCH   3  12
BRANCH  10  22
HETATM   22  O3  UNK     1      15.439  10.182  35.442  1.00  0.00    -0.356 OA
HETATM   23  C17 UNK     1      14.187  10.792  35.137  1.00  0.00     0.210 C 
ENDBRANCH  10  22
TORSDOF 4
ENDMDL
MODEL 2
REMARK VINA RESULT:      -7.8      2.071      7.492
REMARK  4 active torsions:
REMARK  status: ('A' for Active; 'I' for Inactive)
REMARK    1  A    between atoms: C7_12  and  O2_2 
REMARK    2  A    between atoms: C11_16  and  O3_3 
REMARK    3  A    between atoms: C14_19  and  O4_4 
REMARK    4  A    between atoms: C1_6  and  C2_7 
ROOT
HETATM    1  O1  UNK     1      18.351   4.172  34.489  1.00  0.00    -0.309 OA
HETATM    2  O5  UNK     1      18.144   2.077  31.002  1.00  0.00    -0.287 OA
HETATM    3  C1  UNK     1      18.253   4.809  33.262  1.00  0.00     0.093 A 
HETATM    4  C3  UNK     1      18.321   2.023  33.357  1.00  0.00     0.051 A 
HETATM    5  C4  UNK     1      18.386   2.801  34.512  1.00  0.00     0.090 A 
HETATM    6  C5  UNK     1      18.177   4.172  32.082  1.00  0.00     0.094 A 
HETATM    7  C6  UNK     1      18.209   2.697  32.054  1.00  0.00     0.187 A 
HETATM    8  C8  UNK     1      18.361   0.629  33.440  1.00  0.00     0.055 A 
HETATM    9  C10 UNK     1      18.491   2.186  35.761  1.00  0.00     0.041 A 
HETATM   10  C11 UNK     1      18.466   0.018  34.691  1.00  0.00     0.069 A 
HETATM   11  C13 UNK     1      18.530   0.795  35.848  1.00  0.00     0.039 A 
ENDROOT
BRANCH   3  12
HETATM   12  C2  UNK     1      18.217   6.283  33.353  1.00  0.00     0.031 A 
HETATM   13  C7  UNK     1      17.117   7.012  32.890  1.00  0.00     0.083 A 
HETATM   14  C12 UNK     1      17.106   8.403  32.986  1.00  0.00     0.074 A 
HETATM   15  C14 UNK     1      18.194   9.072  33.548  1.00  0.00     0.070 A 
HETATM   16  C15 UNK     1      19.293   8.350  34.012  1.00  0.00     0.038 A 
HETATM   17  C9  UNK     1      19.304   6.958  33.914  1.00  0.00     0.020 A 
BRANCH  13  18
HETATM   18  O2  UNK     1      16.041   6.383  32.337  1.00  0.00    -0.355 OA
HETATM   19  C16 UNK     1      14.907   7.191  32.031  1.00  0.00     0.210 C 
ENDBRANCH  13  18
BRANCH  15  20
HETATM   20  O4  UNK     1      18.183  10.430  33.642  1.00  0.00    -0.356 OA
HETATM   21  C18 UNK     1      17.015  11.034  34.197  1.00  0.00     0.210 C 
ENDBRANCH  15  20
ENDBRANCH   3  12
BRANCH  10  22
HETATM   22  O3  UNK     1      18.503  -1.340  34.782  1.00  0.00    -0.356 OA
HETATM   23  C17 UNK     1      19.622  -1.913  35.456  1.00  0.00     0.210 C 
ENDBRANCH  10  22
TORSDOF 4
ENDMDL
MODEL 3
REMARK VINA RESULT:      -7.7      7.699     12.672
REMARK  4 active torsions:
REMARK  status: ('A' for Active; 'I' for Inactive)
REMARK    1  A    between atoms: C7_12  and  O2_2 
REMARK    2  A    between atoms: C11_16  and  O3_3 
REMARK    3  A    between atoms: C14_19  and  O4_4 
REMARK    4  A    between atoms: C1_6  and  C2_7 
ROOT
HETATM    1  O1  UNK     1      18.781  -4.656  36.448  1.00  0.00    -0.309 OA
HETATM    2  O5  UNK     1      22.404  -5.462  38.127  1.00  0.00    -0.287 OA
HETATM    3  C1  UNK     1      19.628  -3.644  36.872  1.00  0.00     0.093 A 
HETATM    4  C3  UNK     1      20.409  -6.303  37.181  1.00  0.00     0.051 A 
HETATM    5  C4  UNK     1      19.184  -5.957  36.613  1.00  0.00     0.090 A 
HETATM    6  C5  UNK     1      20.834  -3.849  37.426  1.00  0.00     0.094 A 
HETATM    7  C6  UNK     1      21.314  -5.231  37.624  1.00  0.00     0.187 A 
HETATM    8  C8  UNK     1      20.768  -7.646  37.324  1.00  0.00     0.055 A 
HETATM    9  C10 UNK     1      18.309  -6.955  36.183  1.00  0.00     0.041 A 
HETATM   10  C11 UNK     1      19.890  -8.641  36.893  1.00  0.00     0.069 A 
HETATM   11  C13 UNK     1      18.664  -8.296  36.324  1.00  0.00     0.039 A 
ENDROOT
BRANCH   3  12
HETATM   12  C2  UNK     1      19.100  -2.284  36.641  1.00  0.00     0.031 A 
HETATM   13  C7  UNK     1      19.406  -1.574  35.476  1.00  0.00     0.083 A 
HETATM   14  C12 UNK     1      18.895  -0.291  35.281  1.00  0.00     0.074 A 
HETATM   15  C14 UNK     1      18.075   0.288  36.249  1.00  0.00     0.070 A 
HETATM   16  C15 UNK     1      17.766  -0.416  37.413  1.00  0.00     0.038 A 
HETATM   17  C9  UNK     1      18.278  -1.699  37.608  1.00  0.00     0.020 A 
BRANCH  13  18
HETATM   18  O2  UNK     1      20.205  -2.117  34.513  1.00  0.00    -0.355 OA
HETATM   19  C16 UNK     1      19.779  -1.967  33.161  1.00  0.00     0.210 C 
ENDBRANCH  13  18
BRANCH  15  20
HETATM   20  O4  UNK     1      17.577   1.540  36.059  1.00  0.00    -0.356 OA
HETATM   21  C18 UNK     1      18.279   2.388  35.151  1.00  0.00     0.210 C 
ENDBRANCH  15  20
ENDBRANCH   3  12
BRANCH  10  22
HETATM   22  O3  UNK     1      20.232  -9.952  37.027  1.00  0.00    -0.356 OA
HETATM   23  C17 UNK     1      19.523 -10.710  38.006  1.00  0.00     0.210 C 
ENDBRANCH  10  22
TORSDOF 4
ENDMDL
MODEL 4
REMARK VINA RESULT:      -7.6      2.033      7.495
REMARK  4 active torsions:
REMARK  status: ('A' for Active; 'I' for Inactive)
REMARK    1  A    between atoms: C7_12  and  O2_2 
REMARK    2  A    between atoms: C11_16  and  O3_3 
REMARK    3  A    between atoms: C14_19  and  O4_4 
REMARK    4  A    between atoms: C1_6  and  C2_7 
ROOT
HETATM    1  O1  UNK     1      18.238   3.865  34.481  1.00  0.00    -0.309 OA
HETATM    2  O5  UNK     1      18.280   1.633  31.073  1.00  0.00    -0.287 OA
HETATM    3  C1  UNK     1      18.152   4.449  33.227  1.00  0.00     0.093 A 
HETATM    4  C3  UNK     1      18.370   1.677  33.433  1.00  0.00     0.051 A 
HETATM    5  C4  UNK     1      18.348   2.499  34.559  1.00  0.00     0.090 A 
HETATM    6  C5  UNK     1      18.156   3.765  32.071  1.00  0.00     0.094 A 
HETATM    7  C6  UNK     1      18.270   2.294  32.102  1.00  0.00     0.187 A 
HETATM    8  C8  UNK     1      18.483   0.291  33.573  1.00  0.00     0.055 A 
HETATM    9  C10 UNK     1      18.439   1.938  35.833  1.00  0.00     0.041 A 
HETATM   10  C11 UNK     1      18.574  -0.266  34.849  1.00  0.00     0.069 A 
HETATM   11  C13 UNK     1      18.552   0.556  35.976  1.00  0.00     0.039 A 
ENDROOT
BRANCH   3  12
HETATM   12  C2  UNK     1      18.030   5.921  33.259  1.00  0.00     0.031 A 
HETATM   13  C7  UNK     1      19.144   6.737  33.477  1.00  0.00     0.083 A 
HETATM   14  C12 UNK     1      19.004   8.125  33.502  1.00  0.00     0.074 A 
HETATM   15  C14 UNK     1      17.749   8.703  33.308  1.00  0.00     0.070 A 
HETATM   16  C15 UNK     1      16.634   7.893  33.090  1.00  0.00     0.038 A 
HETATM   17  C9  UNK     1      16.775   6.505  33.066  1.00  0.00     0.020 A 
BRANCH  13  18
HETATM   18  O2  UNK     1      20.382   6.199  33.668  1.00  0.00    -0.355 OA
HETATM   19  C16 UNK     1      21.322   6.347  32.607  1.00  0.00     0.210 C 
ENDBRANCH  13  18
BRANCH  15  20
HETATM   20  O4  UNK     1      17.611  10.057  33.334  1.00  0.00    -0.356 OA
HETATM   21  C18 UNK     1      16.576  10.589  34.159  1.00  0.00     0.210 C 
ENDBRANCH  15  20
ENDBRANCH   3  12
BRANCH  10  22
HETATM   22  O3  UNK     1      18.683  -1.615  34.995  1.00  0.00    -0.356 OA
HETATM   23  C17 UNK     1      19.932  -2.117  35.465  1.00  0.00     0.210 C 
ENDBRANCH  10  22
TORSDOF 4
ENDMDL
MODEL 5
REMARK VINA RESULT:      -7.6      1.200      2.056
REMARK  4 active torsions:
REMARK  status: ('A' for Active; 'I' for Inactive)
REMARK    1  A    between atoms: C7_12  and  O2_2 
REMARK    2  A    between atoms: C11_16  and  O3_3 
REMARK    3  A    between atoms: C14_19  and  O4_4 
REMARK    4  A    between atoms: C1_6  and  C2_7 
ROOT
HETATM    1  O1  UNK     1      16.560   5.773  32.457  1.00  0.00    -0.309 OA
HETATM    2  O5  UNK     1      18.892   7.822  35.095  1.00  0.00    -0.287 OA
HETATM    3  C1  UNK     1      17.817   5.318  32.823  1.00  0.00     0.093 A 
HETATM    4  C3  UNK     1      16.854   7.701  33.906  1.00  0.00     0.051 A 
HETATM    5  C4  UNK     1      16.108   6.950  33.000  1.00  0.00     0.090 A 
HETATM    6  C5  UNK     1      18.627   5.948  33.690  1.00  0.00     0.094 A 
HETATM    7  C6  UNK     1      18.185   7.216  34.303  1.00  0.00     0.187 A 
HETATM    8  C8  UNK     1      16.343   8.892  34.427  1.00  0.00     0.055 A 
HETATM    9  C10 UNK     1      14.841   7.386  32.609  1.00  0.00     0.041 A 
HETATM   10  C11 UNK     1      15.076   9.325  34.034  1.00  0.00     0.069 A 
HETATM   11  C13 UNK     1      14.327   8.574  33.128  1.00  0.00     0.039 A 
ENDROOT
BRANCH   3  12
HETATM   12  C2  UNK     1      18.202   4.042  32.187  1.00  0.00     0.031 A 
HETATM   13  C7  UNK     1      18.650   3.996  30.863  1.00  0.00     0.083 A 
HETATM   14  C12 UNK     1      19.008   2.779  30.285  1.00  0.00     0.074 A 
HETATM   15  C14 UNK     1      18.920   1.601  31.027  1.00  0.00     0.070 A 
HETATM   16  C15 UNK     1      18.473   1.641  32.348  1.00  0.00     0.038 A 
HETATM   17  C9  UNK     1      18.115   2.859  32.926  1.00  0.00     0.020 A 
BRANCH  13  18
HETATM   18  O2  UNK     1      18.747   5.133  30.116  1.00  0.00    -0.355 OA
HETATM   19  C16 UNK     1      20.015   5.785  30.093  1.00  0.00     0.210 C 
ENDBRANCH  13  18
BRANCH  15  20
HETATM   20  O4  UNK     1      19.267   0.412  30.462  1.00  0.00    -0.356 OA
HETATM   21  C18 UNK     1      19.757   0.449  29.122  1.00  0.00     0.210 C 
ENDBRANCH  15  20
ENDBRANCH   3  12
BRANCH  10  22
HETATM   22  O3  UNK     1      14.568  10.484  34.538  1.00  0.00    -0.356 OA
HETATM   23  C17 UNK     1      15.503  11.433  35.048  1.00  0.00     0.210 C 
ENDBRANCH  10  22
TORSDOF 4
ENDMDL
MODEL 6
REMARK VINA RESULT:      -7.6      1.710      7.565
REMARK  4 active torsions:
REMARK  status: ('A' for Active; 'I' for Inactive)
REMARK    1  A    between atoms: C7_12  and  O2_2 
REMARK    2  A    between atoms: C11_16  and  O3_3 
REMARK    3  A    between atoms: C14_19  and  O4_4 
REMARK    4  A    between atoms: C1_6  and  C2_7 
ROOT
HETATM    1  O1  UNK     1      17.989   3.656  33.228  1.00  0.00    -0.309 OA
HETATM    2  O5  UNK     1      19.031   2.417  29.490  1.00  0.00    -0.287 OA
HETATM    3  C1  UNK     1      18.082   4.543  32.167  1.00  0.00     0.093 A 
HETATM    4  C3  UNK     1      18.629   1.842  31.746  1.00  0.00     0.051 A 
HETATM    5  C4  UNK     1      18.266   2.332  32.999  1.00  0.00     0.090 A 
HETATM    6  C5  UNK     1      18.415   4.192  30.914  1.00  0.00     0.094 A 
HETATM    7  C6  UNK     1      18.721   2.779  30.616  1.00  0.00     0.187 A 
HETATM    8  C8  UNK     1      18.900   0.482  31.571  1.00  0.00     0.055 A 
HETATM    9  C10 UNK     1      18.170   1.463  34.086  1.00  0.00     0.041 A 
HETATM   10  C11 UNK     1      18.803  -0.384  32.661  1.00  0.00     0.069 A 
HETATM   11  C13 UNK     1      18.439   0.106  33.915  1.00  0.00     0.039 A 
ENDROOT
BRANCH   3  12
HETATM   12  C2  UNK     1      17.758   5.939  32.522  1.00  0.00     0.031 A 
HETATM   13  C7  UNK     1      18.670   6.746  33.208  1.00  0.00     0.083 A 
HETATM   14  C12 UNK     1      18.340   8.062  33.532  1.00  0.00     0.074 A 
HETATM   15  C14 UNK     1      17.096   8.578  33.171  1.00  0.00     0.070 A 
HETATM   16  C15 UNK     1      16.181   7.778  32.486  1.00  0.00     0.038 A 
HETATM   17  C9  UNK     1      16.511   6.462  32.163  1.00  0.00     0.020 A 
BRANCH  13  18
HETATM   18  O2  UNK     1      19.894   6.267  33.572  1.00  0.00    -0.355 OA
HETATM   19  C16 UNK     1      20.984   6.545  32.696  1.00  0.00     0.210 C 
ENDBRANCH  13  18
BRANCH  15  20
HETATM   20  O4  UNK     1      16.773   9.862  33.488  1.00  0.00    -0.356 OA
HETATM   21  C18 UNK     1      15.390  10.214  33.445  1.00  0.00     0.210 C 
ENDBRANCH  15  20
ENDBRANCH   3  12
BRANCH  10  22
HETATM   22  O3  UNK     1      19.062  -1.711  32.499  1.00  0.00    -0.356 OA
HETATM   23  C17 UNK     1      20.180  -2.057  31.683  1.00  0.00     0.210 C 
ENDBRANCH  10  22
TORSDOF 4
ENDMDL
MODEL 7
REMARK VINA RESULT:      -7.5     22.907     25.074
REMARK  4 active torsions:
REMARK  status: ('A' for Active; 'I' for Inactive)
REMARK    1  A    between atoms: C7_12  and  O2_2 
REMARK    2  A    between atoms: C11_16  and  O3_3 
REMARK    3  A    between atoms: C14_19  and  O4_4 
REMARK    4  A    between atoms: C1_6  and  C2_7 
ROOT
HETATM    1  O1  UNK     1      13.534   8.028   7.902  1.00  0.00    -0.309 OA
HETATM    2  O5  UNK     1      10.506   9.122  10.398  1.00  0.00    -0.287 OA
HETATM    3  C1  UNK     1      13.714   8.983   8.891  1.00  0.00     0.093 A 
HETATM    4  C3  UNK     1      11.216   7.781   8.588  1.00  0.00     0.051 A 
HETATM    5  C4  UNK     1      12.296   7.452   7.769  1.00  0.00     0.090 A 
HETATM    6  C5  UNK     1      12.756   9.379   9.744  1.00  0.00     0.094 A 
HETATM    7  C6  UNK     1      11.408   8.788   9.643  1.00  0.00     0.187 A 
HETATM    8  C8  UNK     1       9.977   7.162   8.406  1.00  0.00     0.055 A 
HETATM    9  C10 UNK     1      12.141   6.499   6.762  1.00  0.00     0.041 A 
HETATM   10  C11 UNK     1       9.827   6.209   7.397  1.00  0.00     0.069 A 
HETATM   11  C13 UNK     1      10.906   5.878   6.578  1.00  0.00     0.039 A 
ENDROOT
BRANCH   3  12
HETATM   12  C2  UNK     1      15.084   9.532   8.951  1.00  0.00     0.031 A 
HETATM   13  C7  UNK     1      16.079   8.921   9.720  1.00  0.00     0.083 A 
HETATM   14  C12 UNK     1      17.365   9.459   9.761  1.00  0.00     0.074 A 
HETATM   15  C14 UNK     1      17.663  10.610   9.032  1.00  0.00     0.070 A 
HETATM   16  C15 UNK     1      16.675  11.223   8.262  1.00  0.00     0.038 A 
HETATM   17  C9  UNK     1      15.388  10.686   8.222  1.00  0.00     0.020 A 
BRANCH  13  18
HETATM   18  O2  UNK     1      15.814   7.795  10.442  1.00  0.00    -0.355 OA
HETATM   19  C16 UNK     1      16.371   6.573   9.961  1.00  0.00     0.210 C 
ENDBRANCH  13  18
BRANCH  15  20
HETATM   20  O4  UNK     1      18.918  11.135   9.072  1.00  0.00    -0.356 OA
HETATM   21  C18 UNK     1      19.388  11.787   7.892  1.00  0.00     0.210 C 
ENDBRANCH  15  20
ENDBRANCH   3  12
BRANCH  10  22
HETATM   22  O3  UNK     1       8.623   5.599   7.214  1.00  0.00    -0.356 OA
HETATM   23  C17 UNK     1       7.823   5.383   8.375  1.00  0.00     0.210 C 
ENDBRANCH  10  22
TORSDOF 4
ENDMDL
MODEL 8
REMARK VINA RESULT:      -7.5      1.789      7.625
REMARK  4 active torsions:
REMARK  status: ('A' for Active; 'I' for Inactive)
REMARK    1  A    between atoms: C7_12  and  O2_2 
REMARK    2  A    between atoms: C11_16  and  O3_3 
REMARK    3  A    between atoms: C14_19  and  O4_4 
REMARK    4  A    between atoms: C1_6  and  C2_7 
ROOT
HETATM    1  O1  UNK     1      18.680   6.104  31.758  1.00  0.00    -0.309 OA
HETATM    2  O5  UNK     1      18.099   3.031  34.368  1.00  0.00    -0.287 OA
HETATM    3  C1  UNK     1      18.525   6.324  33.117  1.00  0.00     0.093 A 
HETATM    4  C3  UNK     1      18.429   3.717  32.131  1.00  0.00     0.051 A 
HETATM    5  C4  UNK     1      18.626   4.814  31.294  1.00  0.00     0.090 A 
HETATM    6  C5  UNK     1      18.336   5.351  34.024  1.00  0.00     0.094 A 
HETATM    7  C6  UNK     1      18.272   3.947  33.576  1.00  0.00     0.187 A 
HETATM    8  C8  UNK     1      18.383   2.424  31.603  1.00  0.00     0.055 A 
HETATM    9  C10 UNK     1      18.780   4.623  29.920  1.00  0.00     0.041 A 
HETATM   10  C11 UNK     1      18.537   2.238  30.229  1.00  0.00     0.069 A 
HETATM   11  C13 UNK     1      18.735   3.334  29.390  1.00  0.00     0.039 A 
ENDROOT
BRANCH   3  12
HETATM   12  C2  UNK     1      18.607   7.745  33.508  1.00  0.00     0.031 A 
HETATM   13  C7  UNK     1      17.485   8.578  33.461  1.00  0.00     0.083 A 
HETATM   14  C12 UNK     1      17.587   9.918  33.835  1.00  0.00     0.074 A 
HETATM   15  C14 UNK     1      18.813  10.431  34.260  1.00  0.00     0.070 A 
HETATM   16  C15 UNK     1      19.935   9.605  34.310  1.00  0.00     0.038 A 
HETATM   17  C9  UNK     1      19.833   8.266  33.935  1.00  0.00     0.020 A 
BRANCH  13  18
HETATM   18  O2  UNK     1      16.275   8.102  33.050  1.00  0.00    -0.355 OA
HETATM   19  C16 UNK     1      15.898   8.370  31.702  1.00  0.00     0.210 C 
ENDBRANCH  13  18
BRANCH  15  20
HETATM   20  O4  UNK     1      18.913  11.739  34.625  1.00  0.00    -0.356 OA
HETATM   21  C18 UNK     1      17.761  12.558  34.429  1.00  0.00     0.210 C 
ENDBRANCH  15  20
ENDBRANCH   3  12
BRANCH  10  22
HETATM   22  O3  UNK     1      18.495   0.981  29.706  1.00  0.00    -0.356 OA
HETATM   23  C17 UNK     1      19.743   0.377  29.370  1.00  0.00     0.210 C 
ENDBRANCH  10  22
TORSDOF 4
ENDMDL
MODEL 9
REMARK VINA RESULT:      -7.5      1.453      7.639
REMARK  4 active torsions:
REMARK  status: ('A' for Active; 'I' for Inactive)
REMARK    1  A    between atoms: C7_12  and  O2_2 
REMARK    2  A    between atoms: C11_16  and  O3_3 
REMARK    3  A    between atoms: C14_19  and  O4_4 
REMARK    4  A    between atoms: C1_6  and  C2_7 
ROOT
HETATM    1  O1  UNK     1      18.145   4.307  31.285  1.00  0.00    -0.309 OA
HETATM    2  O5  UNK     1      18.613   1.590  34.284  1.00  0.00    -0.287 OA
HETATM    3  C1  UNK     1      17.933   4.645  32.612  1.00  0.00     0.093 A 
HETATM    4  C3  UNK     1      18.689   2.040  31.966  1.00  0.00     0.051 A 
HETATM    5  C4  UNK     1      18.512   3.019  30.989  1.00  0.00     0.090 A 
HETATM    6  C5  UNK     1      18.077   3.794  33.642  1.00  0.00     0.094 A 
HETATM    7  C6  UNK     1      18.473   2.398  33.376  1.00  0.00     0.187 A 
HETATM    8  C8  UNK     1      19.064   0.743  31.606  1.00  0.00     0.055 A 
HETATM    9  C10 UNK     1      18.713   2.705  29.644  1.00  0.00     0.041 A 
HETATM   10  C11 UNK     1      19.264   0.434  30.260  1.00  0.00     0.069 A 
HETATM   11  C13 UNK     1      19.089   1.412  29.282  1.00  0.00     0.039 A 
ENDROOT
BRANCH   3  12
HETATM   12  C2  UNK     1      17.548   6.056  32.818  1.00  0.00     0.031 A 
HETATM   13  C7  UNK     1      18.419   6.965  33.426  1.00  0.00     0.083 A 
HETATM   14  C12 UNK     1      18.033   8.293  33.609  1.00  0.00     0.074 A 
HETATM   15  C14 UNK     1      16.773   8.718  33.184  1.00  0.00     0.070 A 
HETATM   16  C15 UNK     1      15.901   7.815  32.577  1.00  0.00     0.038 A 
HETATM   17  C9  UNK     1      16.287   6.487  32.395  1.00  0.00     0.020 A 
BRANCH  13  18
HETATM   18  O2  UNK     1      19.655   6.576  33.849  1.00  0.00    -0.355 OA
HETATM   19  C16 UNK     1      20.714   6.639  32.897  1.00  0.00     0.210 C 
ENDBRANCH  13  18
BRANCH  15  20
HETATM   20  O4  UNK     1      16.396  10.013  33.364  1.00  0.00    -0.356 OA
HETATM   21  C18 UNK     1      15.003  10.305  33.252  1.00  0.00     0.210 C 
ENDBRANCH  15  20
ENDBRANCH   3  12
BRANCH  10  22
HETATM   22  O3  UNK     1      19.632  -0.827  29.901  1.00  0.00    -0.356 OA
HETATM   23  C17 UNK     1      20.709  -0.948  28.973  1.00  0.00     0.210 C 
ENDBRANCH  10  22
TORSDOF 4
ENDMDL
MODEL 10
REMARK VINA RESULT:      -7.4      1.690      7.549
REMARK  4 active torsions:
REMARK  status: ('A' for Active; 'I' for Inactive)
REMARK    1  A    between atoms: C7_12  and  O2_2 
REMARK    2  A    between atoms: C11_16  and  O3_3 
REMARK    3  A    between atoms: C14_19  and  O4_4 
REMARK    4  A    between atoms: C1_6  and  C2_7 
ROOT
HETATM    1  O1  UNK     1      18.152   4.161  33.570  1.00  0.00    -0.309 OA
HETATM    2  O5  UNK     1      18.881   2.941  29.753  1.00  0.00    -0.287 OA
HETATM    3  C1  UNK     1      18.276   5.066  32.528  1.00  0.00     0.093 A 
HETATM    4  C3  UNK     1      18.540   2.339  32.012  1.00  0.00     0.051 A 
HETATM    5  C4  UNK     1      18.289   2.824  33.294  1.00  0.00     0.090 A 
HETATM    6  C5  UNK     1      18.510   4.723  31.251  1.00  0.00     0.094 A 
HETATM    7  C6  UNK     1      18.664   3.297  30.902  1.00  0.00     0.187 A 
HETATM    8  C8  UNK     1      18.670   0.966  31.789  1.00  0.00     0.055 A 
HETATM    9  C10 UNK     1      18.165   1.936  34.363  1.00  0.00     0.041 A 
HETATM   10  C11 UNK     1      18.546   0.081  32.861  1.00  0.00     0.069 A 
HETATM   11  C13 UNK     1      18.293   0.565  34.144  1.00  0.00     0.039 A 
ENDROOT
BRANCH   3  12
HETATM   12  C2  UNK     1      18.104   6.476  32.935  1.00  0.00     0.031 A 
HETATM   13  C7  UNK     1      16.880   7.133  32.779  1.00  0.00     0.083 A 
HETATM   14  C12 UNK     1      16.742   8.465  33.170  1.00  0.00     0.074 A 
HETATM   15  C14 UNK     1      17.828   9.145  33.721  1.00  0.00     0.070 A 
HETATM   16  C15 UNK     1      19.052   8.495  33.879  1.00  0.00     0.038 A 
HETATM   17  C9  UNK     1      19.189   7.163  33.487  1.00  0.00     0.020 A 
BRANCH  13  18
HETATM   18  O2  UNK     1      15.802   6.491  32.244  1.00  0.00    -0.355 OA
HETATM   19  C16 UNK     1      14.619   7.263  32.052  1.00  0.00     0.210 C 
ENDBRANCH  13  18
BRANCH  15  20
HETATM   20  O4  UNK     1      17.695  10.445  34.102  1.00  0.00    -0.356 OA
HETATM   21  C18 UNK     1      16.366  10.950  34.235  1.00  0.00     0.210 C 
ENDBRANCH  15  20
ENDBRANCH   3  12
BRANCH  10  22
HETATM   22  O3  UNK     1      18.669  -1.259  32.652  1.00  0.00    -0.356 OA
HETATM   23  C17 UNK     1      19.801  -1.697  31.903  1.00  0.00     0.210 C 
ENDBRANCH  10  22
TORSDOF 4
ENDMDL
