MODEL 1
REMARK VINA RESULT:      -8.1      0.000      0.000
REMARK  6 active torsions:
REMARK  status: ('A' for Active; 'I' for Inactive)
REMARK    1  A    between atoms: C16_23  and  O1_1 
REMARK    2  A    between atoms: C5_12  and  O1_1 
REMARK    3  A    between atoms: C3_10  and  O2_2 
REMARK    4  A    between atoms: C20_27  and  N2_6 
REMARK    5  A    between atoms: C1_8  and  C6_13 
REMARK    6  A    between atoms: C2_9  and  C7_14 
ROOT
HETATM    1  N3  UNK     1      19.117 -11.510  39.285  1.00  0.00    -0.191 NA
HETATM    2  C6  UNK     1      19.141  -8.296  37.889  1.00  0.00     0.035 C 
HETATM    3  C7  UNK     1      19.951  -9.224  38.423  1.00  0.00     0.055 C 
HETATM    4  C18 UNK     1      19.495 -10.483  38.899  1.00  0.00     0.100 C 
ENDROOT
BRANCH   3   5
HETATM    5  C2  UNK     1      21.376  -8.937  38.467  1.00  0.00    -0.015 A 
HETATM    6  C11 UNK     1      21.954  -8.456  39.641  1.00  0.00     0.013 A 
HETATM    7  C13 UNK     1      23.321  -8.180  39.684  1.00  0.00     0.007 A 
HETATM    8  C10 UNK     1      24.109  -8.386  38.551  1.00  0.00    -0.062 A 
HETATM    9  C14 UNK     1      23.530  -8.866  37.377  1.00  0.00     0.007 A 
HETATM   10  C15 UNK     1      25.570  -8.089  38.596  1.00  0.00     0.048 C 
HETATM   11  C12 UNK     1      22.164  -9.142  37.334  1.00  0.00     0.013 A 
ENDBRANCH   3   5
BRANCH   2  12
HETATM   12  C1  UNK     1      19.520  -7.001  37.384  1.00  0.00    -0.032 A 
HETATM   13  C4  UNK     1      19.740  -6.807  36.013  1.00  0.00     0.051 A 
HETATM   14  C3  UNK     1      20.107  -5.553  35.525  1.00  0.00     0.102 A 
HETATM   15  C5  UNK     1      20.260  -4.480  36.403  1.00  0.00     0.111 A 
HETATM   16  C9  UNK     1      20.046  -4.661  37.769  1.00  0.00     0.041 A 
HETATM   17  C8  UNK     1      19.677  -5.916  38.258  1.00  0.00     0.014 A 
BRANCH  14  18
HETATM   18  O2  UNK     1      20.313  -5.388  34.188  1.00  0.00    -0.353 OA
HETATM   19  C21 UNK     1      20.683  -6.545  33.441  1.00  0.00     0.210 C 
ENDBRANCH  14  18
BRANCH  15  20
HETATM   20  O1  UNK     1      20.618  -3.251  35.939  1.00  0.00    -0.289 OA
BRANCH  20  21
HETATM   21  C16 UNK     1      19.605  -2.350  35.658  1.00  0.00     0.169 A 
HETATM   22  N1  UNK     1      19.655  -1.750  34.454  1.00  0.00    -0.234 NA
HETATM   23  C22 UNK     1      18.660  -0.873  34.192  1.00  0.00     0.155 A 
HETATM   24  C20 UNK     1      17.634  -0.578  35.074  1.00  0.00     0.120 A 
HETATM   25  C19 UNK     1      17.627  -1.225  36.305  1.00  0.00     0.042 A 
HETATM   26  C17 UNK     1      18.634  -2.134  36.611  1.00  0.00     0.061 A 
BRANCH  24  27
HETATM   27  N2  UNK     1      16.622   0.354  34.732  1.00  0.00    -0.114 N 
HETATM   28  O3  UNK     1      15.505   0.272  35.301  1.00  0.00    -0.532 OA
HETATM   29  O4  UNK     1      16.873   1.234  33.872  1.00  0.00    -0.532 OA
ENDBRANCH  24  27
ENDBRANCH  20  21
ENDBRANCH  15  20
ENDBRANCH   2  12
TORSDOF 6
ENDMDL
MODEL 2
REMARK VINA RESULT:      -8.0     10.821     13.639
REMARK  6 active torsions:
REMARK  status: ('A' for Active; 'I' for Inactive)
REMARK    1  A    between atoms: C16_23  and  O1_1 
REMARK    2  A    between atoms: C5_12  and  O1_1 
REMARK    3  A    between atoms: C3_10  and  O2_2 
REMARK    4  A    between atoms: C20_27  and  N2_6 
REMARK    5  A    between atoms: C1_8  and  C6_13 
REMARK    6  A    between atoms: C2_9  and  C7_14 
ROOT
HETATM    1  N3  UNK     1      29.522  -3.966  39.777  1.00  0.00    -0.191 NA
HETATM    2  C6  UNK     1      29.332  -5.896  36.859  1.00  0.00     0.035 C 
HETATM    3  C7  UNK     1      30.208  -5.257  37.649  1.00  0.00     0.055 C 
HETATM    4  C18 UNK     1      29.833  -4.545  38.821  1.00  0.00     0.100 C 
ENDROOT
BRANCH   3   5
HETATM    5  C2  UNK     1      31.620  -5.344  37.309  1.00  0.00    -0.015 A 
HETATM    6  C11 UNK     1      32.156  -4.499  36.338  1.00  0.00     0.013 A 
HETATM    7  C13 UNK     1      33.509  -4.583  36.011  1.00  0.00     0.007 A 
HETATM    8  C10 UNK     1      34.326  -5.512  36.655  1.00  0.00    -0.062 A 
HETATM    9  C14 UNK     1      33.789  -6.358  37.625  1.00  0.00     0.007 A 
HETATM   10  C15 UNK     1      35.773  -5.603  36.304  1.00  0.00     0.048 C 
HETATM   11  C12 UNK     1      32.436  -6.274  37.952  1.00  0.00     0.013 A 
ENDBRANCH   3   5
BRANCH   2  12
HETATM   12  C1  UNK     1      29.627  -6.638  35.659  1.00  0.00    -0.032 A 
HETATM   13  C4  UNK     1      30.059  -7.970  35.734  1.00  0.00     0.051 A 
HETATM   14  C3  UNK     1      30.344  -8.688  34.572  1.00  0.00     0.102 A 
HETATM   15  C5  UNK     1      30.203  -8.080  33.324  1.00  0.00     0.111 A 
HETATM   16  C9  UNK     1      29.775  -6.756  33.238  1.00  0.00     0.041 A 
HETATM   17  C8  UNK     1      29.489  -6.038  34.400  1.00  0.00     0.014 A 
BRANCH  14  18
HETATM   18  O2  UNK     1      30.760  -9.981  34.669  1.00  0.00    -0.353 OA
HETATM   19  C21 UNK     1      31.737 -10.276  35.665  1.00  0.00     0.210 C 
ENDBRANCH  14  18
BRANCH  15  20
HETATM   20  O1  UNK     1      30.478  -8.771  32.183  1.00  0.00    -0.289 OA
BRANCH  20  21
HETATM   21  C16 UNK     1      31.558  -8.354  31.424  1.00  0.00     0.169 A 
HETATM   22  N1  UNK     1      32.778  -8.579  31.946  1.00  0.00    -0.234 NA
HETATM   23  C22 UNK     1      33.824  -8.168  31.195  1.00  0.00     0.155 A 
HETATM   24  C20 UNK     1      33.699  -7.550  29.962  1.00  0.00     0.120 A 
HETATM   25  C19 UNK     1      32.416  -7.341  29.466  1.00  0.00     0.042 A 
HETATM   26  C17 UNK     1      31.315  -7.750  30.209  1.00  0.00     0.061 A 
BRANCH  24  27
HETATM   27  N2  UNK     1      34.841  -7.144  29.228  1.00  0.00    -0.114 N 
HETATM   28  O3  UNK     1      35.153  -7.780  28.191  1.00  0.00    -0.532 OA
HETATM   29  O4  UNK     1      35.507  -6.161  29.637  1.00  0.00    -0.532 OA
ENDBRANCH  24  27
ENDBRANCH  20  21
ENDBRANCH  15  20
ENDBRANCH   2  12
TORSDOF 6
ENDMDL
MODEL 3
REMARK VINA RESULT:      -8.0      9.808     13.436
REMARK  6 active torsions:
REMARK  status: ('A' for Active; 'I' for Inactive)
REMARK    1  A    between atoms: C16_23  and  O1_1 
REMARK    2  A    between atoms: C5_12  and  O1_1 
REMARK    3  A    between atoms: C3_10  and  O2_2 
REMARK    4  A    between atoms: C20_27  and  N2_6 
REMARK    5  A    between atoms: C1_8  and  C6_13 
REMARK    6  A    between atoms: C2_9  and  C7_14 
ROOT
HETATM    1  N3  UNK     1      32.540  -9.124  28.334  1.00  0.00    -0.191 NA
HETATM    2  C6  UNK     1      33.283  -8.936  31.753  1.00  0.00     0.035 C 
HETATM    3  C7  UNK     1      32.347  -8.595  30.853  1.00  0.00     0.055 C 
HETATM    4  C18 UNK     1      32.450  -8.884  29.465  1.00  0.00     0.100 C 
ENDROOT
BRANCH   3   5
HETATM    5  C2  UNK     1      31.143  -7.941  31.341  1.00  0.00    -0.015 A 
HETATM    6  C11 UNK     1      31.133  -6.561  31.545  1.00  0.00     0.013 A 
HETATM    7  C13 UNK     1      29.979  -5.933  32.012  1.00  0.00     0.007 A 
HETATM    8  C10 UNK     1      28.834  -6.686  32.276  1.00  0.00    -0.062 A 
HETATM    9  C14 UNK     1      28.844  -8.065  32.073  1.00  0.00     0.007 A 
HETATM   10  C15 UNK     1      27.600  -6.015  32.778  1.00  0.00     0.048 C 
HETATM   11  C12 UNK     1      29.998  -8.693  31.606  1.00  0.00     0.013 A 
ENDBRANCH   3   5
BRANCH   2  12
HETATM   12  C1  UNK     1      33.256  -8.683  33.171  1.00  0.00    -0.032 A 
HETATM   13  C4  UNK     1      34.048  -7.669  33.729  1.00  0.00     0.051 A 
HETATM   14  C3  UNK     1      34.021  -7.425  35.102  1.00  0.00     0.102 A 
HETATM   15  C5  UNK     1      33.202  -8.192  35.932  1.00  0.00     0.111 A 
HETATM   16  C9  UNK     1      32.411  -9.203  35.388  1.00  0.00     0.041 A 
HETATM   17  C8  UNK     1      32.437  -9.447  34.014  1.00  0.00     0.014 A 
BRANCH  14  18
HETATM   18  O2  UNK     1      34.798  -6.434  35.622  1.00  0.00    -0.353 OA
HETATM   19  C21 UNK     1      34.785  -5.178  34.948  1.00  0.00     0.210 C 
ENDBRANCH  14  18
BRANCH  15  20
HETATM   20  O1  UNK     1      33.167  -7.963  37.274  1.00  0.00    -0.289 OA
BRANCH  20  21
HETATM   21  C16 UNK     1      32.201  -7.095  37.753  1.00  0.00     0.169 A 
HETATM   22  N1  UNK     1      30.979  -7.617  37.965  1.00  0.00    -0.234 NA
HETATM   23  C22 UNK     1      30.045  -6.759  38.432  1.00  0.00     0.155 A 
HETATM   24  C20 UNK     1      30.283  -5.419  38.692  1.00  0.00     0.120 A 
HETATM   25  C19 UNK     1      31.563  -4.929  38.458  1.00  0.00     0.042 A 
HETATM   26  C17 UNK     1      32.551  -5.780  37.976  1.00  0.00     0.061 A 
BRANCH  24  27
HETATM   27  N2  UNK     1      29.255  -4.576  39.182  1.00  0.00    -0.114 N 
HETATM   28  O3  UNK     1      29.557  -3.649  39.973  1.00  0.00    -0.532 OA
HETATM   29  O4  UNK     1      28.074  -4.782  38.810  1.00  0.00    -0.532 OA
ENDBRANCH  24  27
ENDBRANCH  20  21
ENDBRANCH  15  20
ENDBRANCH   2  12
TORSDOF 6
ENDMDL
MODEL 4
REMARK VINA RESULT:      -8.0     10.288     13.517
REMARK  6 active torsions:
REMARK  status: ('A' for Active; 'I' for Inactive)
REMARK    1  A    between atoms: C16_23  and  O1_1 
REMARK    2  A    between atoms: C5_12  and  O1_1 
REMARK    3  A    between atoms: C3_10  and  O2_2 
REMARK    4  A    between atoms: C20_27  and  N2_6 
REMARK    5  A    between atoms: C1_8  and  C6_13 
REMARK    6  A    between atoms: C2_9  and  C7_14 
ROOT
HETATM    1  N3  UNK     1      29.037  -4.315  39.472  1.00  0.00    -0.191 NA
HETATM    2  C6  UNK     1      29.083  -6.146  36.485  1.00  0.00     0.035 C 
HETATM    3  C7  UNK     1      29.887  -5.491  37.337  1.00  0.00     0.055 C 
HETATM    4  C18 UNK     1      29.422  -4.842  38.513  1.00  0.00     0.100 C 
ENDROOT
BRANCH   3   5
HETATM    5  C2  UNK     1      31.315  -5.492  37.060  1.00  0.00    -0.015 A 
HETATM    6  C11 UNK     1      31.837  -4.646  36.082  1.00  0.00     0.013 A 
HETATM    7  C13 UNK     1      33.206  -4.647  35.817  1.00  0.00     0.007 A 
HETATM    8  C10 UNK     1      34.053  -5.496  36.529  1.00  0.00    -0.062 A 
HETATM    9  C14 UNK     1      33.532  -6.343  37.506  1.00  0.00     0.007 A 
HETATM   10  C15 UNK     1      35.517  -5.499  36.244  1.00  0.00     0.048 C 
HETATM   11  C12 UNK     1      32.163  -6.341  37.772  1.00  0.00     0.013 A 
ENDBRANCH   3   5
BRANCH   2  12
HETATM   12  C1  UNK     1      29.472  -6.828  35.277  1.00  0.00    -0.032 A 
HETATM   13  C4  UNK     1      29.238  -6.245  34.023  1.00  0.00     0.051 A 
HETATM   14  C3  UNK     1      29.614  -6.906  32.854  1.00  0.00     0.102 A 
HETATM   15  C5  UNK     1      30.226  -8.157  32.926  1.00  0.00     0.111 A 
HETATM   16  C9  UNK     1      30.463  -8.748  34.167  1.00  0.00     0.041 A 
HETATM   17  C8  UNK     1      30.087  -8.086  35.337  1.00  0.00     0.014 A 
BRANCH  14  18
HETATM   18  O2  UNK     1      29.379  -6.319  31.647  1.00  0.00    -0.353 OA
HETATM   19  C21 UNK     1      29.696  -4.934  31.526  1.00  0.00     0.210 C 
ENDBRANCH  14  18
BRANCH  15  20
HETATM   20  O1  UNK     1      30.599  -8.812  31.791  1.00  0.00    -0.289 OA
BRANCH  20  21
HETATM   21  C16 UNK     1      31.742  -8.378  31.143  1.00  0.00     0.169 A 
HETATM   22  N1  UNK     1      31.630  -8.146  29.822  1.00  0.00    -0.234 NA
HETATM   23  C22 UNK     1      32.753  -7.722  29.201  1.00  0.00     0.155 A 
HETATM   24  C20 UNK     1      33.965  -7.522  29.842  1.00  0.00     0.120 A 
HETATM   25  C19 UNK     1      34.029  -7.775  31.208  1.00  0.00     0.042 A 
HETATM   26  C17 UNK     1      32.894  -8.213  31.882  1.00  0.00     0.061 A 
BRANCH  24  27
HETATM   27  N2  UNK     1      35.104  -7.075  29.127  1.00  0.00    -0.114 N 
HETATM   28  O3  UNK     1      35.783  -6.130  29.599  1.00  0.00    -0.532 OA
HETATM   29  O4  UNK     1      35.400  -7.638  28.044  1.00  0.00    -0.532 OA
ENDBRANCH  24  27
ENDBRANCH  20  21
ENDBRANCH  15  20
ENDBRANCH   2  12
TORSDOF 6
ENDMDL
MODEL 5
REMARK VINA RESULT:      -8.0      9.063     13.081
REMARK  6 active torsions:
REMARK  status: ('A' for Active; 'I' for Inactive)
REMARK    1  A    between atoms: C16_23  and  O1_1 
REMARK    2  A    between atoms: C5_12  and  O1_1 
REMARK    3  A    between atoms: C3_10  and  O2_2 
REMARK    4  A    between atoms: C20_27  and  N2_6 
REMARK    5  A    between atoms: C1_8  and  C6_13 
REMARK    6  A    between atoms: C2_9  and  C7_14 
ROOT
HETATM    1  N3  UNK     1      25.041  -7.748  38.688  1.00  0.00    -0.191 NA
HETATM    2  C6  UNK     1      28.524  -7.375  38.786  1.00  0.00     0.035 C 
HETATM    3  C7  UNK     1      27.520  -7.721  37.965  1.00  0.00     0.055 C 
HETATM    4  C18 UNK     1      26.154  -7.738  38.360  1.00  0.00     0.100 C 
ENDROOT
BRANCH   3   5
HETATM    5  C2  UNK     1      27.850  -8.048  36.587  1.00  0.00    -0.015 A 
HETATM    6  C11 UNK     1      28.058  -7.027  35.659  1.00  0.00     0.013 A 
HETATM    7  C13 UNK     1      28.375  -7.341  34.337  1.00  0.00     0.007 A 
HETATM    8  C10 UNK     1      28.483  -8.675  33.944  1.00  0.00    -0.062 A 
HETATM    9  C14 UNK     1      28.274  -9.695  34.871  1.00  0.00     0.007 A 
HETATM   10  C15 UNK     1      28.819  -9.009  32.530  1.00  0.00     0.048 C 
HETATM   11  C12 UNK     1      27.958  -9.382  36.193  1.00  0.00     0.013 A 
ENDBRANCH   3   5
BRANCH   2  12
HETATM   12  C1  UNK     1      29.928  -7.331  38.467  1.00  0.00    -0.032 A 
HETATM   13  C4  UNK     1      30.581  -6.103  38.292  1.00  0.00     0.051 A 
HETATM   14  C3  UNK     1      31.941  -6.061  37.983  1.00  0.00     0.102 A 
HETATM   15  C5  UNK     1      32.661  -7.248  37.844  1.00  0.00     0.111 A 
HETATM   16  C9  UNK     1      32.023  -8.476  38.015  1.00  0.00     0.041 A 
HETATM   17  C8  UNK     1      30.662  -8.518  38.325  1.00  0.00     0.014 A 
BRANCH  14  18
HETATM   18  O2  UNK     1      32.554  -4.856  37.820  1.00  0.00    -0.353 OA
HETATM   19  C21 UNK     1      32.241  -4.123  36.637  1.00  0.00     0.210 C 
ENDBRANCH  14  18
BRANCH  15  20
HETATM   20  O1  UNK     1      33.990  -7.220  37.543  1.00  0.00    -0.289 OA
BRANCH  20  21
HETATM   21  C16 UNK     1      34.345  -7.146  36.208  1.00  0.00     0.169 A 
HETATM   22  N1  UNK     1      35.245  -6.201  35.880  1.00  0.00    -0.234 NA
HETATM   23  C22 UNK     1      35.583  -6.139  34.572  1.00  0.00     0.155 A 
HETATM   24  C20 UNK     1      35.064  -6.973  33.596  1.00  0.00     0.120 A 
HETATM   25  C19 UNK     1      34.138  -7.934  33.987  1.00  0.00     0.042 A 
HETATM   26  C17 UNK     1      33.764  -8.029  35.323  1.00  0.00     0.061 A 
BRANCH  24  27
HETATM   27  N2  UNK     1      35.465  -6.851  32.242  1.00  0.00    -0.114 N 
HETATM   28  O3  UNK     1      36.423  -6.090  31.960  1.00  0.00    -0.532 OA
HETATM   29  O4  UNK     1      34.850  -7.508  31.366  1.00  0.00    -0.532 OA
ENDBRANCH  24  27
ENDBRANCH  20  21
ENDBRANCH  15  20
ENDBRANCH   2  12
TORSDOF 6
ENDMDL
MODEL 6
REMARK VINA RESULT:      -7.9      9.769     12.167
REMARK  6 active torsions:
REMARK  status: ('A' for Active; 'I' for Inactive)
REMARK    1  A    between atoms: C16_23  and  O1_1 
REMARK    2  A    between atoms: C5_12  and  O1_1 
REMARK    3  A    between atoms: C3_10  and  O2_2 
REMARK    4  A    between atoms: C20_27  and  N2_6 
REMARK    5  A    between atoms: C1_8  and  C6_13 
REMARK    6  A    between atoms: C2_9  and  C7_14 
ROOT
HETATM    1  N3  UNK     1      28.388  -9.968  28.186  1.00  0.00    -0.191 NA
HETATM    2  C6  UNK     1      29.336 -10.115  31.557  1.00  0.00     0.035 C 
HETATM    3  C7  UNK     1      29.151  -9.252  30.546  1.00  0.00     0.055 C 
HETATM    4  C18 UNK     1      28.732  -9.643  29.245  1.00  0.00     0.100 C 
ENDROOT
BRANCH   3   5
HETATM    5  C2  UNK     1      29.346  -7.836  30.818  1.00  0.00    -0.015 A 
HETATM    6  C11 UNK     1      30.518  -7.202  30.410  1.00  0.00     0.013 A 
HETATM    7  C13 UNK     1      30.704  -5.844  30.672  1.00  0.00     0.007 A 
HETATM    8  C10 UNK     1      29.718  -5.122  31.343  1.00  0.00    -0.062 A 
HETATM    9  C14 UNK     1      28.546  -5.756  31.752  1.00  0.00     0.007 A 
HETATM   10  C15 UNK     1      29.918  -3.671  31.625  1.00  0.00     0.048 C 
HETATM   11  C12 UNK     1      28.359  -7.113  31.490  1.00  0.00     0.013 A 
ENDBRANCH   3   5
BRANCH   2  12
HETATM   12  C1  UNK     1      29.757  -9.803  32.898  1.00  0.00    -0.032 A 
HETATM   13  C4  UNK     1      31.115  -9.611  33.192  1.00  0.00     0.051 A 
HETATM   14  C3  UNK     1      31.522  -9.309  34.492  1.00  0.00     0.102 A 
HETATM   15  C5  UNK     1      30.576  -9.197  35.511  1.00  0.00     0.111 A 
HETATM   16  C9  UNK     1      29.223  -9.387  35.231  1.00  0.00     0.041 A 
HETATM   17  C8  UNK     1      28.815  -9.689  33.931  1.00  0.00     0.014 A 
BRANCH  14  18
HETATM   18  O2  UNK     1      32.846  -9.124  34.753  1.00  0.00    -0.353 OA
HETATM   19  C21 UNK     1      33.760  -9.382  33.689  1.00  0.00     0.210 C 
ENDBRANCH  14  18
BRANCH  15  20
HETATM   20  O1  UNK     1      30.961  -8.902  36.784  1.00  0.00    -0.289 OA
BRANCH  20  21
HETATM   21  C16 UNK     1      30.443  -7.756  37.363  1.00  0.00     0.169 A 
HETATM   22  N1  UNK     1      29.504  -7.936  38.310  1.00  0.00    -0.234 NA
HETATM   23  C22 UNK     1      29.007  -6.809  38.868  1.00  0.00     0.155 A 
HETATM   24  C20 UNK     1      29.408  -5.529  38.520  1.00  0.00     0.120 A 
HETATM   25  C19 UNK     1      30.381  -5.397  37.536  1.00  0.00     0.042 A 
HETATM   26  C17 UNK     1      30.917  -6.533  36.939  1.00  0.00     0.061 A 
BRANCH  24  27
HETATM   27  N2  UNK     1      28.842  -4.391  39.147  1.00  0.00    -0.114 N 
HETATM   28  O3  UNK     1      29.571  -3.679  39.880  1.00  0.00    -0.532 OA
HETATM   29  O4  UNK     1      27.630  -4.130  38.950  1.00  0.00    -0.532 OA
ENDBRANCH  24  27
ENDBRANCH  20  21
ENDBRANCH  15  20
ENDBRANCH   2  12
TORSDOF 6
ENDMDL
MODEL 7
REMARK VINA RESULT:      -7.9      9.646     13.206
REMARK  6 active torsions:
REMARK  status: ('A' for Active; 'I' for Inactive)
REMARK    1  A    between atoms: C16_23  and  O1_1 
REMARK    2  A    between atoms: C5_12  and  O1_1 
REMARK    3  A    between atoms: C3_10  and  O2_2 
REMARK    4  A    between atoms: C20_27  and  N2_6 
REMARK    5  A    between atoms: C1_8  and  C6_13 
REMARK    6  A    between atoms: C2_9  and  C7_14 
ROOT
HETATM    1  N3  UNK     1      31.941  -8.814  27.917  1.00  0.00    -0.191 NA
HETATM    2  C6  UNK     1      32.872  -8.767  31.296  1.00  0.00     0.035 C 
HETATM    3  C7  UNK     1      31.887  -8.394  30.464  1.00  0.00     0.055 C 
HETATM    4  C18 UNK     1      31.914  -8.624  29.062  1.00  0.00     0.100 C 
ENDROOT
BRANCH   3   5
HETATM    5  C2  UNK     1      30.710  -7.766  31.045  1.00  0.00    -0.015 A 
HETATM    6  C11 UNK     1      30.626  -6.377  31.120  1.00  0.00     0.013 A 
HETATM    7  C13 UNK     1      29.498  -5.775  31.677  1.00  0.00     0.007 A 
HETATM    8  C10 UNK     1      28.454  -6.564  32.159  1.00  0.00    -0.062 A 
HETATM    9  C14 UNK     1      28.538  -7.953  32.085  1.00  0.00     0.007 A 
HETATM   10  C15 UNK     1      27.248  -5.920  32.757  1.00  0.00     0.048 C 
HETATM   11  C12 UNK     1      29.665  -8.555  31.528  1.00  0.00     0.013 A 
ENDBRANCH   3   5
BRANCH   2  12
HETATM   12  C1  UNK     1      32.923  -8.575  32.722  1.00  0.00    -0.032 A 
HETATM   13  C4  UNK     1      32.460  -9.572  33.593  1.00  0.00     0.051 A 
HETATM   14  C3  UNK     1      32.509  -9.384  34.974  1.00  0.00     0.102 A 
HETATM   15  C5  UNK     1      33.021  -8.197  35.499  1.00  0.00     0.111 A 
HETATM   16  C9  UNK     1      33.483  -7.198  34.643  1.00  0.00     0.041 A 
HETATM   17  C8  UNK     1      33.435  -7.386  33.261  1.00  0.00     0.014 A 
BRANCH  14  18
HETATM   18  O2  UNK     1      32.055 -10.368  35.800  1.00  0.00    -0.353 OA
HETATM   19  C21 UNK     1      31.582 -11.564  35.186  1.00  0.00     0.210 C 
ENDBRANCH  14  18
BRANCH  15  20
HETATM   20  O1  UNK     1      33.075  -8.003  36.847  1.00  0.00    -0.289 OA
BRANCH  20  21
HETATM   21  C16 UNK     1      32.144  -7.147  37.410  1.00  0.00     0.169 A 
HETATM   22  N1  UNK     1      30.895  -7.628  37.548  1.00  0.00    -0.234 NA
HETATM   23  C22 UNK     1      29.996  -6.782  38.101  1.00  0.00     0.155 A 
HETATM   24  C20 UNK     1      30.295  -5.494  38.513  1.00  0.00     0.120 A 
HETATM   25  C19 UNK     1      31.601  -5.044  38.349  1.00  0.00     0.042 A 
HETATM   26  C17 UNK     1      32.554  -5.885  37.785  1.00  0.00     0.061 A 
BRANCH  24  27
HETATM   27  N2  UNK     1      29.301  -4.661  39.084  1.00  0.00    -0.114 N 
HETATM   28  O3  UNK     1      29.649  -3.782  39.911  1.00  0.00    -0.532 OA
HETATM   29  O4  UNK     1      28.103  -4.827  38.746  1.00  0.00    -0.532 OA
ENDBRANCH  24  27
ENDBRANCH  20  21
ENDBRANCH  15  20
ENDBRANCH   2  12
TORSDOF 6
ENDMDL
MODEL 8
REMARK VINA RESULT:      -7.9      9.494     12.880
REMARK  6 active torsions:
REMARK  status: ('A' for Active; 'I' for Inactive)
REMARK    1  A    between atoms: C16_23  and  O1_1 
REMARK    2  A    between atoms: C5_12  and  O1_1 
REMARK    3  A    between atoms: C3_10  and  O2_2 
REMARK    4  A    between atoms: C20_27  and  N2_6 
REMARK    5  A    between atoms: C1_8  and  C6_13 
REMARK    6  A    between atoms: C2_9  and  C7_14 
ROOT
HETATM    1  N3  UNK     1      31.838  -9.091  27.661  1.00  0.00    -0.191 NA
HETATM    2  C6  UNK     1      31.776  -8.194  31.048  1.00  0.00     0.035 C 
HETATM    3  C7  UNK     1      31.009  -8.224  29.947  1.00  0.00     0.055 C 
HETATM    4  C18 UNK     1      31.463  -8.700  28.687  1.00  0.00     0.100 C 
ENDROOT
BRANCH   3   5
HETATM    5  C2  UNK     1      29.625  -7.790  30.071  1.00  0.00    -0.015 A 
HETATM    6  C11 UNK     1      29.322  -6.430  30.105  1.00  0.00     0.013 A 
HETATM    7  C13 UNK     1      27.995  -6.014  30.224  1.00  0.00     0.007 A 
HETATM    8  C10 UNK     1      26.974  -6.960  30.310  1.00  0.00    -0.062 A 
HETATM    9  C14 UNK     1      27.278  -8.320  30.277  1.00  0.00     0.007 A 
HETATM   10  C15 UNK     1      25.556  -6.515  30.439  1.00  0.00     0.048 C 
HETATM   11  C12 UNK     1      28.603  -8.736  30.158  1.00  0.00     0.013 A 
ENDBRANCH   3   5
BRANCH   2  12
HETATM   12  C1  UNK     1      31.395  -7.730  32.358  1.00  0.00    -0.032 A 
HETATM   13  C4  UNK     1      31.913  -6.530  32.867  1.00  0.00     0.051 A 
HETATM   14  C3  UNK     1      31.544  -6.082  34.135  1.00  0.00     0.102 A 
HETATM   15  C5  UNK     1      30.654  -6.829  34.908  1.00  0.00     0.111 A 
HETATM   16  C9  UNK     1      30.134  -8.024  34.413  1.00  0.00     0.041 A 
HETATM   17  C8  UNK     1      30.502  -8.473  33.144  1.00  0.00     0.014 A 
BRANCH  14  18
HETATM   18  O2  UNK     1      32.058  -4.913  34.608  1.00  0.00    -0.353 OA
HETATM   19  C21 UNK     1      33.471  -4.851  34.790  1.00  0.00     0.210 C 
ENDBRANCH  14  18
BRANCH  15  20
HETATM   20  O1  UNK     1      30.286  -6.401  36.148  1.00  0.00    -0.289 OA
BRANCH  20  21
HETATM   21  C16 UNK     1      29.767  -7.339  37.024  1.00  0.00     0.169 A 
HETATM   22  N1  UNK     1      30.591  -8.339  37.388  1.00  0.00    -0.234 NA
HETATM   23  C22 UNK     1      30.073  -9.248  38.243  1.00  0.00     0.155 A 
HETATM   24  C20 UNK     1      28.781  -9.196  38.741  1.00  0.00     0.120 A 
HETATM   25  C19 UNK     1      27.969  -8.142  38.335  1.00  0.00     0.042 A 
HETATM   26  C17 UNK     1      28.467  -7.187  37.455  1.00  0.00     0.061 A 
BRANCH  24  27
HETATM   27  N2  UNK     1      28.302 -10.185  39.636  1.00  0.00    -0.114 N 
HETATM   28  O3  UNK     1      27.066 -10.271  39.840  1.00  0.00    -0.532 OA
HETATM   29  O4  UNK     1      29.128 -10.946  40.197  1.00  0.00    -0.532 OA
ENDBRANCH  24  27
ENDBRANCH  20  21
ENDBRANCH  15  20
ENDBRANCH   2  12
TORSDOF 6
ENDMDL
MODEL 9
REMARK VINA RESULT:      -7.9     10.231     12.543
REMARK  6 active torsions:
REMARK  status: ('A' for Active; 'I' for Inactive)
REMARK    1  A    between atoms: C16_23  and  O1_1 
REMARK    2  A    between atoms: C5_12  and  O1_1 
REMARK    3  A    between atoms: C3_10  and  O2_2 
REMARK    4  A    between atoms: C20_27  and  N2_6 
REMARK    5  A    between atoms: C1_8  and  C6_13 
REMARK    6  A    between atoms: C2_9  and  C7_14 
ROOT
HETATM    1  N3  UNK     1      29.496  -3.619  40.011  1.00  0.00    -0.191 NA
HETATM    2  C6  UNK     1      28.870  -6.093  37.609  1.00  0.00     0.035 C 
HETATM    3  C7  UNK     1      29.839  -5.286  38.070  1.00  0.00     0.055 C 
HETATM    4  C18 UNK     1      29.653  -4.367  39.138  1.00  0.00     0.100 C 
ENDROOT
BRANCH   3   5
HETATM    5  C2  UNK     1      31.160  -5.402  37.471  1.00  0.00    -0.015 A 
HETATM    6  C11 UNK     1      31.404  -4.859  36.210  1.00  0.00     0.013 A 
HETATM    7  C13 UNK     1      32.671  -4.970  35.636  1.00  0.00     0.007 A 
HETATM    8  C10 UNK     1      33.693  -5.625  36.324  1.00  0.00    -0.062 A 
HETATM    9  C14 UNK     1      33.448  -6.168  37.585  1.00  0.00     0.007 A 
HETATM   10  C15 UNK     1      35.046  -5.745  35.710  1.00  0.00     0.048 C 
HETATM   11  C12 UNK     1      32.182  -6.057  38.159  1.00  0.00     0.013 A 
ENDBRANCH   3   5
BRANCH   2  12
HETATM   12  C1  UNK     1      28.974  -7.049  36.537  1.00  0.00    -0.032 A 
HETATM   13  C4  UNK     1      29.736  -8.216  36.694  1.00  0.00     0.051 A 
HETATM   14  C3  UNK     1      29.836  -9.141  35.656  1.00  0.00     0.102 A 
HETATM   15  C5  UNK     1      29.178  -8.909  34.448  1.00  0.00     0.111 A 
HETATM   16  C9  UNK     1      28.418  -7.752  34.279  1.00  0.00     0.041 A 
HETATM   17  C8  UNK     1      28.317  -6.826  35.318  1.00  0.00     0.014 A 
BRANCH  14  18
HETATM   18  O2  UNK     1      30.580 -10.269  35.832  1.00  0.00    -0.353 OA
HETATM   19  C21 UNK     1      31.997 -10.133  35.738  1.00  0.00     0.210 C 
ENDBRANCH  14  18
BRANCH  15  20
HETATM   20  O1  UNK     1      29.268  -9.806  33.426  1.00  0.00    -0.289 OA
BRANCH  20  21
HETATM   21  C16 UNK     1      29.751  -9.350  32.212  1.00  0.00     0.169 A 
HETATM   22  N1  UNK     1      31.054  -9.019  32.172  1.00  0.00    -0.234 NA
HETATM   23  C22 UNK     1      31.513  -8.575  30.980  1.00  0.00     0.155 A 
HETATM   24  C20 UNK     1      30.730  -8.453  29.844  1.00  0.00     0.120 A 
HETATM   25  C19 UNK     1      29.389  -8.809  29.937  1.00  0.00     0.042 A 
HETATM   26  C17 UNK     1      28.880  -9.269  31.146  1.00  0.00     0.061 A 
BRANCH  24  27
HETATM   27  N2  UNK     1      31.279  -7.980  28.627  1.00  0.00    -0.114 N 
HETATM   28  O3  UNK     1      31.353  -6.740  28.436  1.00  0.00    -0.532 OA
HETATM   29  O4  UNK     1      31.675  -8.813  27.775  1.00  0.00    -0.532 OA
ENDBRANCH  24  27
ENDBRANCH  20  21
ENDBRANCH  15  20
ENDBRANCH   2  12
TORSDOF 6
ENDMDL
MODEL 10
REMARK VINA RESULT:      -7.9      8.920     12.553
REMARK  6 active torsions:
REMARK  status: ('A' for Active; 'I' for Inactive)
REMARK    1  A    between atoms: C16_23  and  O1_1 
REMARK    2  A    between atoms: C5_12  and  O1_1 
REMARK    3  A    between atoms: C3_10  and  O2_2 
REMARK    4  A    between atoms: C20_27  and  N2_6 
REMARK    5  A    between atoms: C1_8  and  C6_13 
REMARK    6  A    between atoms: C2_9  and  C7_14 
ROOT
HETATM    1  N3  UNK     1      33.065 -11.041  29.675  1.00  0.00    -0.191 NA
HETATM    2  C6  UNK     1      32.952 -10.361  33.111  1.00  0.00     0.035 C 
HETATM    3  C7  UNK     1      32.343 -10.063  31.953  1.00  0.00     0.055 C 
HETATM    4  C18 UNK     1      32.738 -10.599  30.697  1.00  0.00     0.100 C 
ENDROOT
BRANCH   3   5
HETATM    5  C2  UNK     1      31.186  -9.181  32.000  1.00  0.00    -0.015 A 
HETATM    6  C11 UNK     1      29.906  -9.718  32.126  1.00  0.00     0.013 A 
HETATM    7  C13 UNK     1      28.797  -8.873  32.171  1.00  0.00     0.007 A 
HETATM    8  C10 UNK     1      28.970  -7.491  32.090  1.00  0.00    -0.062 A 
HETATM    9  C14 UNK     1      30.250  -6.955  31.964  1.00  0.00     0.007 A 
HETATM   10  C15 UNK     1      27.784  -6.588  32.136  1.00  0.00     0.048 C 
HETATM   11  C12 UNK     1      31.359  -7.799  31.919  1.00  0.00     0.013 A 
ENDBRANCH   3   5
BRANCH   2  12
HETATM   12  C1  UNK     1      32.615  -9.864  34.421  1.00  0.00    -0.032 A 
HETATM   13  C4  UNK     1      33.265  -8.737  34.944  1.00  0.00     0.051 A 
HETATM   14  C3  UNK     1      32.939  -8.257  36.212  1.00  0.00     0.102 A 
HETATM   15  C5  UNK     1      31.960  -8.899  36.971  1.00  0.00     0.111 A 
HETATM   16  C9  UNK     1      31.307 -10.021  36.461  1.00  0.00     0.041 A 
HETATM   17  C8  UNK     1      31.633 -10.501  35.192  1.00  0.00     0.014 A 
BRANCH  14  18
HETATM   18  O2  UNK     1      33.583  -7.160  36.699  1.00  0.00    -0.353 OA
HETATM   19  C21 UNK     1      33.477  -5.956  35.943  1.00  0.00     0.210 C 
ENDBRANCH  14  18
BRANCH  15  20
HETATM   20  O1  UNK     1      31.632  -8.439  38.211  1.00  0.00    -0.289 OA
BRANCH  20  21
HETATM   21  C16 UNK     1      30.488  -7.669  38.329  1.00  0.00     0.169 A 
HETATM   22  N1  UNK     1      29.322  -8.337  38.408  1.00  0.00    -0.234 NA
HETATM   23  C22 UNK     1      28.213  -7.573  38.524  1.00  0.00     0.155 A 
HETATM   24  C20 UNK     1      28.225  -6.188  38.562  1.00  0.00     0.120 A 
HETATM   25  C19 UNK     1      29.455  -5.546  38.477  1.00  0.00     0.042 A 
HETATM   26  C17 UNK     1      30.619  -6.297  38.357  1.00  0.00     0.061 A 
BRANCH  24  27
HETATM   27  N2  UNK     1      27.021  -5.450  38.684  1.00  0.00    -0.114 N 
HETATM   28  O3  UNK     1      27.084  -4.235  38.997  1.00  0.00    -0.532 OA
HETATM   29  O4  UNK     1      25.929  -6.033  38.476  1.00  0.00    -0.532 OA
ENDBRANCH  24  27
ENDBRANCH  20  21
ENDBRANCH  15  20
ENDBRANCH   2  12
TORSDOF 6
ENDMDL
