MODEL 1
REMARK VINA RESULT:      -8.5      0.000      0.000
REMARK  3 active torsions:
REMARK  status: ('A' for Active; 'I' for Inactive)
REMARK    1  A    between atoms: C9_13  and  O3_3 
REMARK    2  A    between atoms: C10_14  and  O4_4 
REMARK    3  A    between atoms: C3_7  and  C4_8 
ROOT
HETATM    1  O1  UNK     1      13.160   7.429   8.432  1.00  0.00    -0.309 OA
HETATM    2  O2  UNK     1      15.207   4.134   9.675  1.00  0.00    -0.287 OA
HETATM    3  C1  UNK     1      15.168   6.482   9.417  1.00  0.00     0.051 A 
HETATM    4  C2  UNK     1      14.413   7.567   8.972  1.00  0.00     0.090 A 
HETATM    5  C3  UNK     1      12.626   6.155   8.315  1.00  0.00     0.093 A 
HETATM    6  C5  UNK     1      14.602   5.130   9.304  1.00  0.00     0.187 A 
HETATM    7  C6  UNK     1      13.251   5.036   8.712  1.00  0.00     0.094 A 
HETATM    8  C7  UNK     1      16.440   6.682   9.959  1.00  0.00     0.054 A 
HETATM    9  C8  UNK     1      14.927   8.860   9.070  1.00  0.00     0.041 A 
HETATM   10  C10 UNK     1      16.951   7.977  10.054  1.00  0.00     0.066 A 
HETATM   11  C12 UNK     1      16.196   9.064   9.610  1.00  0.00     0.039 A 
ENDROOT
BRANCH   5  12
HETATM   12  C4  UNK     1      11.273   6.123   7.726  1.00  0.00     0.031 A 
HETATM   13  C11 UNK     1      10.162   6.047   8.572  1.00  0.00     0.017 A 
HETATM   14  C14 UNK     1       8.874   6.015   8.039  1.00  0.00     0.001 A 
HETATM   15  C15 UNK     1       8.690   6.059   6.658  1.00  0.00     0.003 A 
HETATM   16  C13 UNK     1       9.794   6.135   5.809  1.00  0.00     0.037 A 
HETATM   17  C9  UNK     1      11.082   6.167   6.342  1.00  0.00     0.078 A 
BRANCH  17  18
HETATM   18  O3  UNK     1      12.145   6.241   5.489  1.00  0.00    -0.360 OA
HETATM   19  H9  UNK     1      12.399   7.173   5.376  1.00  0.00     0.217 HD
ENDBRANCH  17  18
ENDBRANCH   5  12
BRANCH  10  20
HETATM   20  O4  UNK     1      18.190   8.180  10.581  1.00  0.00    -0.361 OA
HETATM   21  H10 UNK     1      18.316   7.577  11.333  1.00  0.00     0.217 HD
ENDBRANCH  10  20
TORSDOF 3
ENDMDL
MODEL 2
REMARK VINA RESULT:      -8.4      1.194      2.321
REMARK  3 active torsions:
REMARK  status: ('A' for Active; 'I' for Inactive)
REMARK    1  A    between atoms: C9_13  and  O3_3 
REMARK    2  A    between atoms: C10_14  and  O4_4 
REMARK    3  A    between atoms: C3_7  and  C4_8 
ROOT
HETATM    1  O1  UNK     1      13.150   6.353   8.388  1.00  0.00    -0.309 OA
HETATM    2  O2  UNK     1      14.079  10.141   9.565  1.00  0.00    -0.287 OA
HETATM    3  C1  UNK     1      14.759   7.887   9.367  1.00  0.00     0.051 A 
HETATM    4  C2  UNK     1      14.377   6.615   8.942  1.00  0.00     0.090 A 
HETATM    5  C3  UNK     1      12.249   7.399   8.252  1.00  0.00     0.093 A 
HETATM    6  C5  UNK     1      13.810   9.000   9.216  1.00  0.00     0.187 A 
HETATM    7  C6  UNK     1      12.502   8.665   8.617  1.00  0.00     0.094 A 
HETATM    8  C7  UNK     1      16.022   8.095   9.925  1.00  0.00     0.054 A 
HETATM    9  C8  UNK     1      15.259   5.542   9.073  1.00  0.00     0.041 A 
HETATM   10  C10 UNK     1      16.903   7.020  10.055  1.00  0.00     0.066 A 
HETATM   11  C12 UNK     1      16.521   5.746   9.630  1.00  0.00     0.039 A 
ENDROOT
BRANCH   5  12
HETATM   12  C4  UNK     1      10.964   7.008   7.639  1.00  0.00     0.031 A 
HETATM   13  C11 UNK     1       9.782   7.179   8.366  1.00  0.00     0.017 A 
HETATM   14  C14 UNK     1       8.556   6.817   7.808  1.00  0.00     0.001 A 
HETATM   15  C15 UNK     1       8.506   6.282   6.521  1.00  0.00     0.003 A 
HETATM   16  C13 UNK     1       9.683   6.108   5.792  1.00  0.00     0.037 A 
HETATM   17  C9  UNK     1      10.909   6.470   6.350  1.00  0.00     0.078 A 
BRANCH  17  18
HETATM   18  O3  UNK     1      12.044   6.290   5.615  1.00  0.00    -0.360 OA
HETATM   19  H9  UNK     1      12.793   6.140   6.218  1.00  0.00     0.217 HD
ENDBRANCH  17  18
ENDBRANCH   5  12
BRANCH  10  20
HETATM   20  O4  UNK     1      18.135   7.214  10.599  1.00  0.00    -0.361 OA
HETATM   21  H10 UNK     1      18.175   8.107  10.983  1.00  0.00     0.217 HD
ENDBRANCH  10  20
TORSDOF 3
ENDMDL
MODEL 3
REMARK VINA RESULT:      -8.2     24.036     26.230
REMARK  3 active torsions:
REMARK  status: ('A' for Active; 'I' for Inactive)
REMARK    1  A    between atoms: C9_13  and  O3_3 
REMARK    2  A    between atoms: C10_14  and  O4_4 
REMARK    3  A    between atoms: C3_7  and  C4_8 
ROOT
HETATM    1  O1  UNK     1      18.776  -0.027  33.226  1.00  0.00    -0.309 OA
HETATM    2  O2  UNK     1      18.585   3.170  30.708  1.00  0.00    -0.287 OA
HETATM    3  C1  UNK     1      19.201   0.911  31.026  1.00  0.00     0.051 A 
HETATM    4  C2  UNK     1      19.235  -0.143  31.939  1.00  0.00     0.090 A 
HETATM    5  C3  UNK     1      18.263   1.193  33.638  1.00  0.00     0.093 A 
HETATM    6  C5  UNK     1      18.649   2.204  31.456  1.00  0.00     0.187 A 
HETATM    7  C6  UNK     1      18.171   2.277  32.852  1.00  0.00     0.094 A 
HETATM    8  C7  UNK     1      19.683   0.736  29.727  1.00  0.00     0.054 A 
HETATM    9  C8  UNK     1      19.753  -1.380  31.555  1.00  0.00     0.041 A 
HETATM   10  C10 UNK     1      20.201  -0.503  29.346  1.00  0.00     0.066 A 
HETATM   11  C12 UNK     1      20.236  -1.559  30.259  1.00  0.00     0.039 A 
ENDROOT
BRANCH   5  12
HETATM   12  C4  UNK     1      17.793   1.205  35.037  1.00  0.00     0.031 A 
HETATM   13  C11 UNK     1      18.623   1.731  36.032  1.00  0.00     0.017 A 
HETATM   14  C14 UNK     1      18.199   1.753  37.360  1.00  0.00     0.001 A 
HETATM   15  C15 UNK     1      16.946   1.248  37.702  1.00  0.00     0.003 A 
HETATM   16  C13 UNK     1      16.114   0.720  36.714  1.00  0.00     0.037 A 
HETATM   17  C9  UNK     1      16.536   0.699  35.385  1.00  0.00     0.078 A 
BRANCH  17  18
HETATM   18  O3  UNK     1      15.703   0.178  34.439  1.00  0.00    -0.360 OA
HETATM   19  H9  UNK     1      14.832   0.605  34.510  1.00  0.00     0.217 HD
ENDBRANCH  17  18
ENDBRANCH   5  12
BRANCH  10  20
HETATM   20  O4  UNK     1      20.674  -0.681  28.082  1.00  0.00    -0.361 OA
HETATM   21  H10 UNK     1      20.105  -1.320  27.620  1.00  0.00     0.217 HD
ENDBRANCH  10  20
TORSDOF 3
ENDMDL
MODEL 4
REMARK VINA RESULT:      -8.2     23.801     25.952
REMARK  3 active torsions:
REMARK  status: ('A' for Active; 'I' for Inactive)
REMARK    1  A    between atoms: C9_13  and  O3_3 
REMARK    2  A    between atoms: C10_14  and  O4_4 
REMARK    3  A    between atoms: C3_7  and  C4_8 
ROOT
HETATM    1  O1  UNK     1      17.963   3.426  33.655  1.00  0.00    -0.309 OA
HETATM    2  O2  UNK     1      19.153   1.467  30.287  1.00  0.00    -0.287 OA
HETATM    3  C1  UNK     1      18.699   3.532  31.343  1.00  0.00     0.051 A 
HETATM    4  C2  UNK     1      18.286   4.138  32.529  1.00  0.00     0.090 A 
HETATM    5  C3  UNK     1      18.044   2.042  33.608  1.00  0.00     0.093 A 
HETATM    6  C5  UNK     1      18.795   2.065  31.292  1.00  0.00     0.187 A 
HETATM    7  C6  UNK     1      18.434   1.345  32.530  1.00  0.00     0.094 A 
HETATM    8  C7  UNK     1      19.016   4.308  30.225  1.00  0.00     0.054 A 
HETATM    9  C8  UNK     1      18.188   5.528  32.602  1.00  0.00     0.041 A 
HETATM   10  C10 UNK     1      18.916   5.698  30.303  1.00  0.00     0.066 A 
HETATM   11  C12 UNK     1      18.502   6.306  31.489  1.00  0.00     0.039 A 
ENDROOT
BRANCH   5  12
HETATM   12  C4  UNK     1      17.680   1.377  34.875  1.00  0.00     0.031 A 
HETATM   13  C11 UNK     1      16.677   0.403  34.871  1.00  0.00     0.017 A 
HETATM   14  C14 UNK     1      16.317  -0.239  36.055  1.00  0.00     0.001 A 
HETATM   15  C15 UNK     1      16.956   0.090  37.250  1.00  0.00     0.003 A 
HETATM   16  C13 UNK     1      17.958   1.062  37.260  1.00  0.00     0.037 A 
HETATM   17  C9  UNK     1      18.319   1.703  36.076  1.00  0.00     0.078 A 
BRANCH  17  18
HETATM   18  O3  UNK     1      19.301   2.649  36.114  1.00  0.00    -0.360 OA
HETATM   19  H9  UNK     1      20.164   2.209  36.206  1.00  0.00     0.217 HD
ENDBRANCH  17  18
ENDBRANCH   5  12
BRANCH  10  20
HETATM   20  O4  UNK     1      19.221   6.461  29.218  1.00  0.00    -0.361 OA
HETATM   21  H10 UNK     1      19.140   7.400  29.459  1.00  0.00     0.217 HD
ENDBRANCH  10  20
TORSDOF 3
ENDMDL
MODEL 5
REMARK VINA RESULT:      -8.1     24.418     26.520
REMARK  3 active torsions:
REMARK  status: ('A' for Active; 'I' for Inactive)
REMARK    1  A    between atoms: C9_13  and  O3_3 
REMARK    2  A    between atoms: C10_14  and  O4_4 
REMARK    3  A    between atoms: C3_7  and  C4_8 
ROOT
HETATM    1  O1  UNK     1      18.347   0.716  32.803  1.00  0.00    -0.309 OA
HETATM    2  O2  UNK     1      20.445  -2.776  32.773  1.00  0.00    -0.287 OA
HETATM    3  C1  UNK     1      19.761  -0.845  31.594  1.00  0.00     0.051 A 
HETATM    4  C2  UNK     1      19.025   0.336  31.673  1.00  0.00     0.090 A 
HETATM    5  C3  UNK     1      18.389  -0.117  33.911  1.00  0.00     0.093 A 
HETATM    6  C5  UNK     1      19.817  -1.727  32.771  1.00  0.00     0.187 A 
HETATM    7  C6  UNK     1      19.067  -1.274  33.960  1.00  0.00     0.094 A 
HETATM    8  C7  UNK     1      20.433  -1.182  30.417  1.00  0.00     0.054 A 
HETATM    9  C8  UNK     1      18.958   1.190  30.572  1.00  0.00     0.041 A 
HETATM   10  C10 UNK     1      20.363  -0.326  29.316  1.00  0.00     0.066 A 
HETATM   11  C12 UNK     1      19.626   0.857  29.394  1.00  0.00     0.039 A 
ENDROOT
BRANCH   5  12
HETATM   12  C4  UNK     1      17.631   0.390  35.072  1.00  0.00     0.031 A 
HETATM   13  C11 UNK     1      16.266   0.104  35.173  1.00  0.00     0.017 A 
HETATM   14  C14 UNK     1      15.529   0.572  36.261  1.00  0.00     0.001 A 
HETATM   15  C15 UNK     1      16.152   1.329  37.252  1.00  0.00     0.003 A 
HETATM   16  C13 UNK     1      17.514   1.618  37.156  1.00  0.00     0.037 A 
HETATM   17  C9  UNK     1      18.251   1.149  36.069  1.00  0.00     0.078 A 
BRANCH  17  18
HETATM   18  O3  UNK     1      19.581   1.446  36.000  1.00  0.00    -0.360 OA
HETATM   19  H9  UNK     1      19.937   1.119  35.156  1.00  0.00     0.217 HD
ENDBRANCH  17  18
ENDBRANCH   5  12
BRANCH  10  20
HETATM   20  O4  UNK     1      21.013  -0.647  28.165  1.00  0.00    -0.361 OA
HETATM   21  H10 UNK     1      20.609  -1.446  27.785  1.00  0.00     0.217 HD
ENDBRANCH  10  20
TORSDOF 3
ENDMDL
MODEL 6
REMARK VINA RESULT:      -8.1     21.952     24.104
REMARK  3 active torsions:
REMARK  status: ('A' for Active; 'I' for Inactive)
REMARK    1  A    between atoms: C9_13  and  O3_3 
REMARK    2  A    between atoms: C10_14  and  O4_4 
REMARK    3  A    between atoms: C3_7  and  C4_8 
ROOT
HETATM    1  O1  UNK     1      18.840   3.486  30.728  1.00  0.00    -0.309 OA
HETATM    2  O2  UNK     1      17.966   2.789  34.645  1.00  0.00    -0.287 OA
HETATM    3  C1  UNK     1      18.214   4.366  32.903  1.00  0.00     0.051 A 
HETATM    4  C2  UNK     1      18.522   4.534  31.554  1.00  0.00     0.090 A 
HETATM    5  C3  UNK     1      18.863   2.206  31.261  1.00  0.00     0.093 A 
HETATM    6  C5  UNK     1      18.228   3.009  33.471  1.00  0.00     0.187 A 
HETATM    7  C6  UNK     1      18.579   1.917  32.541  1.00  0.00     0.094 A 
HETATM    8  C7  UNK     1      17.898   5.470  33.698  1.00  0.00     0.054 A 
HETATM    9  C8  UNK     1      18.515   5.810  30.991  1.00  0.00     0.041 A 
HETATM   10  C10 UNK     1      17.892   6.746  33.132  1.00  0.00     0.066 A 
HETATM   11  C12 UNK     1      18.200   6.915  31.781  1.00  0.00     0.039 A 
ENDROOT
BRANCH   5  12
HETATM   12  C4  UNK     1      19.211   1.155  30.285  1.00  0.00     0.031 A 
HETATM   13  C11 UNK     1      20.229   0.248  30.592  1.00  0.00     0.017 A 
HETATM   14  C14 UNK     1      20.575  -0.754  29.686  1.00  0.00     0.001 A 
HETATM   15  C15 UNK     1      19.905  -0.853  28.467  1.00  0.00     0.003 A 
HETATM   16  C13 UNK     1      18.888   0.050  28.154  1.00  0.00     0.037 A 
HETATM   17  C9  UNK     1      18.542   1.051  29.061  1.00  0.00     0.078 A 
BRANCH  17  18
HETATM   18  O3  UNK     1      17.544   1.921  28.731  1.00  0.00    -0.360 OA
HETATM   19  H9  UNK     1      17.901   2.826  28.718  1.00  0.00     0.217 HD
ENDBRANCH  17  18
ENDBRANCH   5  12
BRANCH  10  20
HETATM   20  O4  UNK     1      17.586   7.827  33.900  1.00  0.00    -0.361 OA
HETATM   21  H10 UNK     1      17.353   7.524  34.794  1.00  0.00     0.217 HD
ENDBRANCH  10  20
TORSDOF 3
ENDMDL
MODEL 7
REMARK VINA RESULT:      -7.9     24.762     26.801
REMARK  3 active torsions:
REMARK  status: ('A' for Active; 'I' for Inactive)
REMARK    1  A    between atoms: C9_13  and  O3_3 
REMARK    2  A    between atoms: C10_14  and  O4_4 
REMARK    3  A    between atoms: C3_7  and  C4_8 
ROOT
HETATM    1  O1  UNK     1      18.825   0.599  33.300  1.00  0.00    -0.309 OA
HETATM    2  O2  UNK     1      19.374  -2.625  35.730  1.00  0.00    -0.287 OA
HETATM    3  C1  UNK     1      18.715  -0.364  35.527  1.00  0.00     0.051 A 
HETATM    4  C2  UNK     1      18.548   0.698  34.640  1.00  0.00     0.090 A 
HETATM    5  C3  UNK     1      19.297  -0.609  32.810  1.00  0.00     0.093 A 
HETATM    6  C5  UNK     1      19.207  -1.650  35.010  1.00  0.00     0.187 A 
HETATM    7  C6  UNK     1      19.492  -1.704  33.561  1.00  0.00     0.094 A 
HETATM    8  C7  UNK     1      18.418  -0.206  36.883  1.00  0.00     0.054 A 
HETATM    9  C8  UNK     1      18.082   1.928  35.105  1.00  0.00     0.041 A 
HETATM   10  C10 UNK     1      17.952   1.026  37.345  1.00  0.00     0.066 A 
HETATM   11  C12 UNK     1      17.785   2.090  36.458  1.00  0.00     0.039 A 
ENDROOT
BRANCH   5  12
HETATM   12  C4  UNK     1      19.556  -0.607  31.357  1.00  0.00     0.031 A 
HETATM   13  C11 UNK     1      20.145  -1.730  30.767  1.00  0.00     0.017 A 
HETATM   14  C14 UNK     1      20.399  -1.751  29.396  1.00  0.00     0.001 A 
HETATM   15  C15 UNK     1      20.065  -0.650  28.608  1.00  0.00     0.003 A 
HETATM   16  C13 UNK     1      19.477   0.473  29.191  1.00  0.00     0.037 A 
HETATM   17  C9  UNK     1      19.222   0.494  30.561  1.00  0.00     0.078 A 
BRANCH  17  18
HETATM   18  O3  UNK     1      18.647   1.604  31.106  1.00  0.00    -0.360 OA
HETATM   19  H9  UNK     1      19.278   2.343  31.067  1.00  0.00     0.217 HD
ENDBRANCH  17  18
ENDBRANCH   5  12
BRANCH  10  20
HETATM   20  O4  UNK     1      17.661   1.189  38.665  1.00  0.00    -0.361 OA
HETATM   21  H10 UNK     1      17.206   0.393  38.989  1.00  0.00     0.217 HD
ENDBRANCH  10  20
TORSDOF 3
ENDMDL
MODEL 8
REMARK VINA RESULT:      -7.8      0.860      1.557
REMARK  3 active torsions:
REMARK  status: ('A' for Active; 'I' for Inactive)
REMARK    1  A    between atoms: C9_13  and  O3_3 
REMARK    2  A    between atoms: C10_14  and  O4_4 
REMARK    3  A    between atoms: C3_7  and  C4_8 
ROOT
HETATM    1  O1  UNK     1      13.087   7.688   8.358  1.00  0.00    -0.309 OA
HETATM    2  O2  UNK     1      15.041   4.298   9.493  1.00  0.00    -0.287 OA
HETATM    3  C1  UNK     1      15.064   6.655   9.318  1.00  0.00     0.051 A 
HETATM    4  C2  UNK     1      14.340   7.774   8.909  1.00  0.00     0.090 A 
HETATM    5  C3  UNK     1      12.521   6.433   8.195  1.00  0.00     0.093 A 
HETATM    6  C5  UNK     1      14.464   5.322   9.155  1.00  0.00     0.187 A 
HETATM    7  C6  UNK     1      13.115   5.285   8.554  1.00  0.00     0.094 A 
HETATM    8  C7  UNK     1      16.338   6.802   9.873  1.00  0.00     0.054 A 
HETATM    9  C8  UNK     1      14.887   9.049   9.054  1.00  0.00     0.041 A 
HETATM   10  C10 UNK     1      16.882   8.079  10.016  1.00  0.00     0.066 A 
HETATM   11  C12 UNK     1      16.158   9.200   9.607  1.00  0.00     0.039 A 
ENDROOT
BRANCH   5  12
HETATM   12  C4  UNK     1      11.170   6.457   7.599  1.00  0.00     0.031 A 
HETATM   13  C11 UNK     1      10.998   6.022   6.282  1.00  0.00     0.017 A 
HETATM   14  C14 UNK     1       9.731   6.035   5.698  1.00  0.00     0.001 A 
HETATM   15  C15 UNK     1       8.631   6.484   6.428  1.00  0.00     0.003 A 
HETATM   16  C13 UNK     1       8.798   6.920   7.743  1.00  0.00     0.037 A 
HETATM   17  C9  UNK     1      10.064   6.906   8.327  1.00  0.00     0.078 A 
BRANCH  17  18
HETATM   18  O3  UNK     1      10.199   7.338   9.614  1.00  0.00    -0.360 OA
HETATM   19  H9  UNK     1       9.523   6.909  10.167  1.00  0.00     0.217 HD
ENDBRANCH  17  18
ENDBRANCH   5  12
BRANCH  10  20
HETATM   20  O4  UNK     1      18.123   8.231  10.555  1.00  0.00    -0.361 OA
HETATM   21  H10 UNK     1      18.211   7.636  11.320  1.00  0.00     0.217 HD
ENDBRANCH  10  20
TORSDOF 3
ENDMDL
MODEL 9
REMARK VINA RESULT:      -7.7     24.251     26.398
REMARK  3 active torsions:
REMARK  status: ('A' for Active; 'I' for Inactive)
REMARK    1  A    between atoms: C9_13  and  O3_3 
REMARK    2  A    between atoms: C10_14  and  O4_4 
REMARK    3  A    between atoms: C3_7  and  C4_8 
ROOT
HETATM    1  O1  UNK     1      18.866  -0.107  33.287  1.00  0.00    -0.309 OA
HETATM    2  O2  UNK     1      18.080   3.799  34.137  1.00  0.00    -0.287 OA
HETATM    3  C1  UNK     1      18.271   1.581  34.929  1.00  0.00     0.051 A 
HETATM    4  C2  UNK     1      18.551   0.263  34.570  1.00  0.00     0.090 A 
HETATM    5  C3  UNK     1      18.898   0.872  32.305  1.00  0.00     0.093 A 
HETATM    6  C5  UNK     1      18.313   2.624  33.892  1.00  0.00     0.187 A 
HETATM    7  C6  UNK     1      18.653   2.172  32.528  1.00  0.00     0.094 A 
HETATM    8  C7  UNK     1      17.956   1.901  36.252  1.00  0.00     0.054 A 
HETATM    9  C8  UNK     1      18.519  -0.743  35.535  1.00  0.00     0.041 A 
HETATM   10  C10 UNK     1      17.924   0.891  37.215  1.00  0.00     0.066 A 
HETATM   11  C12 UNK     1      18.205  -0.429  36.856  1.00  0.00     0.039 A 
ENDROOT
BRANCH   5  12
HETATM   12  C4  UNK     1      19.252   0.365  30.964  1.00  0.00     0.031 A 
HETATM   13  C11 UNK     1      18.646   0.932  29.839  1.00  0.00     0.017 A 
HETATM   14  C14 UNK     1      18.965   0.470  28.562  1.00  0.00     0.001 A 
HETATM   15  C15 UNK     1      19.890  -0.562  28.405  1.00  0.00     0.003 A 
HETATM   16  C13 UNK     1      20.498  -1.131  29.524  1.00  0.00     0.037 A 
HETATM   17  C9  UNK     1      20.179  -0.669  30.801  1.00  0.00     0.078 A 
BRANCH  17  18
HETATM   18  O3  UNK     1      20.787  -1.243  31.879  1.00  0.00    -0.360 OA
HETATM   19  H9  UNK     1      21.098  -2.132  31.633  1.00  0.00     0.217 HD
ENDBRANCH  17  18
ENDBRANCH   5  12
BRANCH  10  20
HETATM   20  O4  UNK     1      17.618   1.194  38.506  1.00  0.00    -0.361 OA
HETATM   21  H10 UNK     1      18.102   1.996  38.766  1.00  0.00     0.217 HD
ENDBRANCH  10  20
TORSDOF 3
ENDMDL
MODEL 10
REMARK VINA RESULT:      -7.6     22.826     24.369
REMARK  3 active torsions:
REMARK  status: ('A' for Active; 'I' for Inactive)
REMARK    1  A    between atoms: C9_13  and  O3_3 
REMARK    2  A    between atoms: C10_14  and  O4_4 
REMARK    3  A    between atoms: C3_7  and  C4_8 
ROOT
HETATM    1  O1  UNK     1      19.099   2.328  30.599  1.00  0.00    -0.309 OA
HETATM    2  O2  UNK     1      18.599  -0.054  33.867  1.00  0.00    -0.287 OA
HETATM    3  C1  UNK     1      19.276   0.126  31.610  1.00  0.00     0.051 A 
HETATM    4  C2  UNK     1      19.423   0.997  30.531  1.00  0.00     0.090 A 
HETATM    5  C3  UNK     1      18.596   2.825  31.792  1.00  0.00     0.093 A 
HETATM    6  C5  UNK     1      18.752   0.652  32.879  1.00  0.00     0.187 A 
HETATM    7  C6  UNK     1      18.415   2.090  32.900  1.00  0.00     0.094 A 
HETATM    8  C7  UNK     1      19.623  -1.221  31.483  1.00  0.00     0.054 A 
HETATM    9  C8  UNK     1      19.920   0.523  29.316  1.00  0.00     0.041 A 
HETATM   10  C10 UNK     1      20.119  -1.692  30.266  1.00  0.00     0.066 A 
HETATM   11  C12 UNK     1      20.267  -0.821  29.185  1.00  0.00     0.039 A 
ENDROOT
BRANCH   5  12
HETATM   12  C4  UNK     1      18.286   4.268  31.757  1.00  0.00     0.031 A 
HETATM   13  C11 UNK     1      17.470   4.815  32.752  1.00  0.00     0.017 A 
HETATM   14  C14 UNK     1      17.164   6.176  32.739  1.00  0.00     0.001 A 
HETATM   15  C15 UNK     1      17.671   6.996  31.732  1.00  0.00     0.003 A 
HETATM   16  C13 UNK     1      18.485   6.455  30.736  1.00  0.00     0.037 A 
HETATM   17  C9  UNK     1      18.792   5.095  30.748  1.00  0.00     0.078 A 
BRANCH  17  18
HETATM   18  O3  UNK     1      19.590   4.592  29.763  1.00  0.00    -0.360 OA
HETATM   19  H9  UNK     1      19.036   4.129  29.110  1.00  0.00     0.217 HD
ENDBRANCH  17  18
ENDBRANCH   5  12
BRANCH  10  20
HETATM   20  O4  UNK     1      20.458  -3.003  30.134  1.00  0.00    -0.361 OA
HETATM   21  H10 UNK     1      20.449  -3.423  31.011  1.00  0.00     0.217 HD
ENDBRANCH  10  20
TORSDOF 3
ENDMDL
