MODEL 1
REMARK VINA RESULT:      -9.9      0.000      0.000
REMARK  2 active torsions:
REMARK  status: ('A' for Active; 'I' for Inactive)
REMARK    1  A    between atoms: C14_21  and  N1_6 
REMARK    2  A    between atoms: C11_18  and  C4_11 
ROOT
HETATM    1  O1  UNK     1      17.515   1.465  35.331  1.00  0.00    -0.332 OA
HETATM    2  O2  UNK     1      19.685  -1.983  32.670  1.00  0.00    -0.274 OA
HETATM    3  O3  UNK     1      17.102  -1.638  37.130  1.00  0.00    -0.289 OA
HETATM    4  O4  UNK     1      20.647  -3.580  31.340  1.00  0.00    -0.260 OA
HETATM    5  C1  UNK     1      16.743   0.497  36.045  1.00  0.00     0.125 C 
HETATM    6  C2  UNK     1      18.669  -0.293  34.099  1.00  0.00     0.048 A 
HETATM    7  C3  UNK     1      17.437  -0.854  36.245  1.00  0.00     0.196 C 
HETATM    8  C4  UNK     1      18.522  -1.173  35.268  1.00  0.00     0.044 C 
HETATM    9  C5  UNK     1      18.163   1.010  34.213  1.00  0.00     0.084 A 
HETATM   10  C6  UNK     1      15.404   0.277  35.331  1.00  0.00     0.055 C 
HETATM   11  C7  UNK     1      16.484   1.120  37.423  1.00  0.00     0.055 C 
HETATM   12  C8  UNK     1      19.255  -0.649  32.871  1.00  0.00     0.103 A 
HETATM   13  C9  UNK     1      19.403   0.268  31.824  1.00  0.00    -0.001 A 
HETATM   14  C10 UNK     1      18.325   1.943  33.184  1.00  0.00     0.039 A 
HETATM   15  C12 UNK     1      18.946   1.574  31.993  1.00  0.00     0.017 A 
HETATM   16  C13 UNK     1      20.025  -0.160  30.581  1.00  0.00     0.020 A 
HETATM   17  C15 UNK     1      20.437  -1.420  30.425  1.00  0.00     0.083 A 
HETATM   18  C16 UNK     1      20.276  -2.422  31.491  1.00  0.00     0.288 A 
ENDROOT
BRANCH   8  19
HETATM   19  C11 UNK     1      19.357  -2.171  35.598  1.00  0.00     0.104 C 
HETATM   20  N1  UNK     1      19.036  -3.381  36.112  1.00  0.00    -0.365 N 
HETATM   21  H10 UNK     1      18.052  -3.566  36.267  1.00  0.00     0.165 HD
BRANCH  20  22
HETATM   22  C14 UNK     1      19.891  -4.441  36.466  1.00  0.00     0.033 A 
HETATM   23  C17 UNK     1      19.849  -5.637  35.740  1.00  0.00     0.050 A 
HETATM   24  C18 UNK     1      20.711  -6.680  36.117  1.00  0.00     0.037 A 
HETATM   25  S1  UNK     1      20.886  -8.249  35.423  1.00  0.00    -0.073 SA
HETATM   26  C20 UNK     1      21.601  -6.551  37.188  1.00  0.00     0.075 A 
HETATM   27  C22 UNK     1      22.097  -8.612  36.576  1.00  0.00     0.072 A 
HETATM   28  N2  UNK     1      22.388  -7.667  37.438  1.00  0.00    -0.245 NA
HETATM   29  C23 UNK     1      22.743  -9.943  36.547  1.00  0.00     0.079 C 
HETATM   30  C21 UNK     1      21.627  -5.337  37.906  1.00  0.00     0.035 A 
HETATM   31  C19 UNK     1      20.771  -4.295  37.537  1.00  0.00     0.032 A 
ENDBRANCH  20  22
ENDBRANCH   8  19
TORSDOF 2
ENDMDL
MODEL 2
REMARK VINA RESULT:      -9.2     16.468     20.886
REMARK  2 active torsions:
REMARK  status: ('A' for Active; 'I' for Inactive)
REMARK    1  A    between atoms: C14_21  and  N1_6 
REMARK    2  A    between atoms: C11_18  and  C4_11 
ROOT
HETATM    1  O1  UNK     1      20.283  -4.321  11.820  1.00  0.00    -0.332 OA
HETATM    2  O2  UNK     1      17.322  -4.139  15.677  1.00  0.00    -0.274 OA
HETATM    3  O3  UNK     1      19.441  -0.844  12.311  1.00  0.00    -0.289 OA
HETATM    4  O4  UNK     1      15.867  -4.118  17.446  1.00  0.00    -0.260 OA
HETATM    5  C1  UNK     1      19.850  -3.036  11.366  1.00  0.00     0.125 C 
HETATM    6  C2  UNK     1      18.877  -4.147  13.804  1.00  0.00     0.048 A 
HETATM    7  C3  UNK     1      19.461  -2.061  12.482  1.00  0.00     0.196 C 
HETATM    8  C4  UNK     1      19.070  -2.688  13.780  1.00  0.00     0.044 C 
HETATM    9  C5  UNK     1      19.529  -4.892  12.811  1.00  0.00     0.084 A 
HETATM   10  C6  UNK     1      18.668  -3.201  10.403  1.00  0.00     0.055 C 
HETATM   11  C7  UNK     1      21.046  -2.452  10.603  1.00  0.00     0.055 C 
HETATM   12  C8  UNK     1      18.084  -4.856  14.722  1.00  0.00     0.103 A 
HETATM   13  C9  UNK     1      17.996  -6.252  14.707  1.00  0.00    -0.001 A 
HETATM   14  C10 UNK     1      19.470  -6.290  12.798  1.00  0.00     0.039 A 
HETATM   15  C12 UNK     1      18.707  -6.969  13.745  1.00  0.00     0.017 A 
HETATM   16  C13 UNK     1      17.163  -6.928  15.690  1.00  0.00     0.020 A 
HETATM   17  C15 UNK     1      16.470  -6.228  16.590  1.00  0.00     0.083 A 
HETATM   18  C16 UNK     1      16.512  -4.757  16.623  1.00  0.00     0.288 A 
ENDROOT
BRANCH   8  19
HETATM   19  C11 UNK     1      19.041  -1.884  14.855  1.00  0.00     0.104 C 
HETATM   20  N1  UNK     1      19.291  -0.556  14.900  1.00  0.00    -0.365 N 
HETATM   21  H10 UNK     1      19.526  -0.105  14.023  1.00  0.00     0.165 HD
BRANCH  20  22
HETATM   22  C14 UNK     1      19.269   0.307  16.011  1.00  0.00     0.033 A 
HETATM   23  C17 UNK     1      19.200  -0.228  17.303  1.00  0.00     0.050 A 
HETATM   24  C18 UNK     1      19.177   0.655  18.394  1.00  0.00     0.037 A 
HETATM   25  S1  UNK     1      19.096   0.298  20.079  1.00  0.00    -0.073 SA
HETATM   26  C20 UNK     1      19.223   2.042  18.222  1.00  0.00     0.075 A 
HETATM   27  C22 UNK     1      19.127   1.973  20.425  1.00  0.00     0.072 A 
HETATM   28  N2  UNK     1      19.193   2.783  19.395  1.00  0.00    -0.245 NA
HETATM   29  C23 UNK     1      19.079   2.418  21.835  1.00  0.00     0.079 C 
HETATM   30  C21 UNK     1      19.292   2.561  16.911  1.00  0.00     0.035 A 
HETATM   31  C19 UNK     1      19.315   1.687  15.820  1.00  0.00     0.032 A 
ENDBRANCH  20  22
ENDBRANCH   8  19
TORSDOF 2
ENDMDL
MODEL 3
REMARK VINA RESULT:      -8.8     10.158     12.503
REMARK  2 active torsions:
REMARK  status: ('A' for Active; 'I' for Inactive)
REMARK    1  A    between atoms: C14_21  and  N1_6 
REMARK    2  A    between atoms: C11_18  and  C4_11 
ROOT
HETATM    1  O1  UNK     1      30.861  -3.829  37.460  1.00  0.00    -0.332 OA
HETATM    2  O2  UNK     1      28.275  -7.856  36.576  1.00  0.00    -0.274 OA
HETATM    3  O3  UNK     1      32.736  -5.749  35.045  1.00  0.00    -0.289 OA
HETATM    4  O4  UNK     1      27.060  -9.771  36.258  1.00  0.00    -0.260 OA
HETATM    5  C1  UNK     1      32.058  -4.429  36.957  1.00  0.00     0.125 C 
HETATM    6  C2  UNK     1      29.570  -5.818  36.896  1.00  0.00     0.048 A 
HETATM    7  C3  UNK     1      31.841  -5.441  35.828  1.00  0.00     0.196 C 
HETATM    8  C4  UNK     1      30.481  -6.057  35.765  1.00  0.00     0.044 C 
HETATM    9  C5  UNK     1      29.810  -4.680  37.678  1.00  0.00     0.084 A 
HETATM   10  C6  UNK     1      32.816  -5.106  38.106  1.00  0.00     0.055 C 
HETATM   11  C7  UNK     1      32.897  -3.265  36.415  1.00  0.00     0.055 C 
HETATM   12  C8  UNK     1      28.492  -6.640  37.270  1.00  0.00     0.103 A 
HETATM   13  C9  UNK     1      27.640  -6.312  38.330  1.00  0.00    -0.001 A 
HETATM   14  C10 UNK     1      28.952  -4.327  38.725  1.00  0.00     0.039 A 
HETATM   15  C12 UNK     1      27.868  -5.139  39.049  1.00  0.00     0.017 A 
HETATM   16  C13 UNK     1      26.537  -7.200  38.662  1.00  0.00     0.020 A 
HETATM   17  C15 UNK     1      26.345  -8.331  37.980  1.00  0.00     0.083 A 
HETATM   18  C16 UNK     1      27.235  -8.727  36.876  1.00  0.00     0.288 A 
ENDROOT
BRANCH   8  19
HETATM   19  C11 UNK     1      30.155  -6.683  34.624  1.00  0.00     0.104 C 
HETATM   20  N1  UNK     1      29.163  -6.364  33.760  1.00  0.00    -0.365 N 
HETATM   21  H10 UNK     1      28.597  -5.557  33.993  1.00  0.00     0.165 HD
BRANCH  20  22
HETATM   22  C14 UNK     1      28.801  -7.004  32.561  1.00  0.00     0.033 A 
HETATM   23  C17 UNK     1      29.723  -7.834  31.912  1.00  0.00     0.050 A 
HETATM   24  C18 UNK     1      29.336  -8.459  30.715  1.00  0.00     0.037 A 
HETATM   25  S1  UNK     1      30.240  -9.522  29.704  1.00  0.00    -0.073 SA
HETATM   26  C20 UNK     1      28.064  -8.273  30.164  1.00  0.00     0.075 A 
HETATM   27  C22 UNK     1      28.900  -9.640  28.648  1.00  0.00     0.072 A 
HETATM   28  N2  UNK     1      27.831  -8.957  28.979  1.00  0.00    -0.245 NA
HETATM   29  C23 UNK     1      29.008 -10.487  27.439  1.00  0.00     0.079 C 
HETATM   30  C21 UNK     1      27.150  -7.432  30.834  1.00  0.00     0.035 A 
HETATM   31  C19 UNK     1      27.529  -6.807  32.025  1.00  0.00     0.032 A 
ENDBRANCH  20  22
ENDBRANCH   8  19
TORSDOF 2
ENDMDL
MODEL 4
REMARK VINA RESULT:      -8.7      5.023     10.076
REMARK  2 active torsions:
REMARK  status: ('A' for Active; 'I' for Inactive)
REMARK    1  A    between atoms: C14_21  and  N1_6 
REMARK    2  A    between atoms: C11_18  and  C4_11 
ROOT
HETATM    1  O1  UNK     1      21.112  -1.367  31.000  1.00  0.00    -0.332 OA
HETATM    2  O2  UNK     1      17.452   0.320  33.730  1.00  0.00    -0.274 OA
HETATM    3  O3  UNK     1      19.276   0.962  28.939  1.00  0.00    -0.289 OA
HETATM    4  O4  UNK     1      15.700   1.019  35.029  1.00  0.00    -0.260 OA
HETATM    5  C1  UNK     1      20.456  -0.973  29.792  1.00  0.00     0.125 C 
HETATM    6  C2  UNK     1      19.318  -0.406  32.343  1.00  0.00     0.048 A 
HETATM    7  C3  UNK     1      19.587   0.282  29.915  1.00  0.00     0.196 C 
HETATM    8  C4  UNK     1      19.110   0.605  31.294  1.00  0.00     0.044 C 
HETATM    9  C5  UNK     1      20.344  -1.338  32.135  1.00  0.00     0.084 A 
HETATM   10  C6  UNK     1      19.599  -2.133  29.269  1.00  0.00     0.055 C 
HETATM   11  C7  UNK     1      21.585  -0.689  28.793  1.00  0.00     0.055 C 
HETATM   12  C8  UNK     1      18.567  -0.530  33.525  1.00  0.00     0.103 A 
HETATM   13  C9  UNK     1      18.865  -1.490  34.498  1.00  0.00    -0.001 A 
HETATM   14  C10 UNK     1      20.670  -2.287  33.110  1.00  0.00     0.039 A 
HETATM   15  C12 UNK     1      19.933  -2.362  34.290  1.00  0.00     0.017 A 
HETATM   16  C13 UNK     1      18.055  -1.562  35.704  1.00  0.00     0.020 A 
HETATM   17  C15 UNK     1      17.021  -0.736  35.879  1.00  0.00     0.083 A 
HETATM   18  C16 UNK     1      16.656   0.269  34.868  1.00  0.00     0.288 A 
ENDROOT
BRANCH   8  19
HETATM   19  C11 UNK     1      18.634   1.844  31.494  1.00  0.00     0.104 C 
HETATM   20  N1  UNK     1      19.135   3.008  31.019  1.00  0.00    -0.365 N 
HETATM   21  H10 UNK     1      19.965   2.946  30.441  1.00  0.00     0.165 HD
BRANCH  20  22
HETATM   22  C14 UNK     1      18.656   4.317  31.215  1.00  0.00     0.033 A 
HETATM   23  C17 UNK     1      18.028   4.651  32.420  1.00  0.00     0.050 A 
HETATM   24  C18 UNK     1      17.558   5.964  32.589  1.00  0.00     0.037 A 
HETATM   25  S1  UNK     1      16.754   6.664  33.943  1.00  0.00    -0.073 SA
HETATM   26  C20 UNK     1      17.703   6.934  31.591  1.00  0.00     0.075 A 
HETATM   27  C22 UNK     1      16.669   8.155  33.110  1.00  0.00     0.072 A 
HETATM   28  N2  UNK     1      17.189   8.184  31.905  1.00  0.00    -0.245 NA
HETATM   29  C23 UNK     1      16.030   9.314  33.770  1.00  0.00     0.079 C 
HETATM   30  C21 UNK     1      18.340   6.575  30.384  1.00  0.00     0.035 A 
HETATM   31  C19 UNK     1      18.810   5.269  30.209  1.00  0.00     0.032 A 
ENDBRANCH  20  22
ENDBRANCH   8  19
TORSDOF 2
ENDMDL
MODEL 5
REMARK VINA RESULT:      -8.6     11.862     14.233
REMARK  2 active torsions:
REMARK  status: ('A' for Active; 'I' for Inactive)
REMARK    1  A    between atoms: C14_21  and  N1_6 
REMARK    2  A    between atoms: C11_18  and  C4_11 
ROOT
HETATM    1  O1  UNK     1      32.110  -4.699  36.644  1.00  0.00    -0.332 OA
HETATM    2  O2  UNK     1      29.575  -8.591  38.097  1.00  0.00    -0.274 OA
HETATM    3  O3  UNK     1      33.984  -7.602  35.594  1.00  0.00    -0.289 OA
HETATM    4  O4  UNK     1      28.385 -10.387  38.874  1.00  0.00    -0.260 OA
HETATM    5  C1  UNK     1      33.310  -5.468  36.518  1.00  0.00     0.125 C 
HETATM    6  C2  UNK     1      30.843  -6.690  37.254  1.00  0.00     0.048 A 
HETATM    7  C3  UNK     1      33.094  -6.928  36.108  1.00  0.00     0.196 C 
HETATM    8  C4  UNK     1      31.743  -7.491  36.409  1.00  0.00     0.044 C 
HETATM    9  C5  UNK     1      31.075  -5.309  37.304  1.00  0.00     0.084 A 
HETATM   10  C6  UNK     1      34.092  -5.422  37.836  1.00  0.00     0.055 C 
HETATM   11  C7  UNK     1      34.125  -4.769  35.422  1.00  0.00     0.055 C 
HETATM   12  C8  UNK     1      29.783  -7.192  38.030  1.00  0.00     0.103 A 
HETATM   13  C9  UNK     1      28.938  -6.353  38.766  1.00  0.00    -0.001 A 
HETATM   14  C10 UNK     1      30.225  -4.456  38.016  1.00  0.00     0.039 A 
HETATM   15  C12 UNK     1      29.158  -4.976  38.744  1.00  0.00     0.017 A 
HETATM   16  C13 UNK     1      27.854  -6.933  39.543  1.00  0.00     0.020 A 
HETATM   17  C15 UNK     1      27.671  -8.255  39.574  1.00  0.00     0.083 A 
HETATM   18  C16 UNK     1      28.552  -9.174  38.836  1.00  0.00     0.288 A 
ENDROOT
BRANCH   8  19
HETATM   19  C11 UNK     1      31.412  -8.632  35.785  1.00  0.00     0.104 C 
HETATM   20  N1  UNK     1      31.708  -8.996  34.517  1.00  0.00    -0.365 N 
HETATM   21  H10 UNK     1      32.246  -8.337  33.965  1.00  0.00     0.165 HD
BRANCH  20  22
HETATM   22  C14 UNK     1      31.372 -10.184  33.841  1.00  0.00     0.033 A 
HETATM   23  C17 UNK     1      32.102 -11.352  34.087  1.00  0.00     0.050 A 
HETATM   24  C18 UNK     1      31.747 -12.522  33.397  1.00  0.00     0.037 A 
HETATM   25  S1  UNK     1      32.451 -14.093  33.489  1.00  0.00    -0.073 SA
HETATM   26  C20 UNK     1      30.691 -12.547  32.480  1.00  0.00     0.075 A 
HETATM   27  C22 UNK     1      31.323 -14.655  32.333  1.00  0.00     0.072 A 
HETATM   28  N2  UNK     1      30.461 -13.777  31.879  1.00  0.00    -0.245 NA
HETATM   29  C23 UNK     1      31.371 -16.072  31.909  1.00  0.00     0.079 C 
HETATM   30  C21 UNK     1      29.968 -11.358  32.247  1.00  0.00     0.035 A 
HETATM   31  C19 UNK     1      30.316 -10.189  32.930  1.00  0.00     0.032 A 
ENDBRANCH  20  22
ENDBRANCH   8  19
TORSDOF 2
ENDMDL
MODEL 6
REMARK VINA RESULT:      -8.5     10.937     14.239
REMARK  2 active torsions:
REMARK  status: ('A' for Active; 'I' for Inactive)
REMARK    1  A    between atoms: C14_21  and  N1_6 
REMARK    2  A    between atoms: C11_18  and  C4_11 
ROOT
HETATM    1  O1  UNK     1      33.462  -9.715  29.935  1.00  0.00    -0.332 OA
HETATM    2  O2  UNK     1      29.341  -7.454  31.194  1.00  0.00    -0.274 OA
HETATM    3  O3  UNK     1      34.417  -6.888  31.969  1.00  0.00    -0.289 OA
HETATM    4  O4  UNK     1      27.379  -6.381  31.689  1.00  0.00    -0.260 OA
HETATM    5  C1  UNK     1      34.244  -8.552  30.217  1.00  0.00     0.125 C 
HETATM    6  C2  UNK     1      31.433  -8.592  30.685  1.00  0.00     0.048 A 
HETATM    7  C3  UNK     1      33.703  -7.678  31.353  1.00  0.00     0.196 C 
HETATM    8  C4  UNK     1      32.244  -7.821  31.640  1.00  0.00     0.044 C 
HETATM    9  C5  UNK     1      32.105  -9.529  29.887  1.00  0.00     0.084 A 
HETATM   10  C6  UNK     1      34.381  -7.703  28.948  1.00  0.00     0.055 C 
HETATM   11  C7  UNK     1      35.625  -9.081  30.623  1.00  0.00     0.055 C 
HETATM   12  C8  UNK     1      30.047  -8.460  30.489  1.00  0.00     0.103 A 
HETATM   13  C9  UNK     1      29.341  -9.272  29.595  1.00  0.00    -0.001 A 
HETATM   14  C10 UNK     1      31.409 -10.364  29.007  1.00  0.00     0.039 A 
HETATM   15  C12 UNK     1      30.030 -10.238  28.862  1.00  0.00     0.017 A 
HETATM   16  C13 UNK     1      27.905  -9.091  29.443  1.00  0.00     0.020 A 
HETATM   17  C15 UNK     1      27.263  -8.146  30.134  1.00  0.00     0.083 A 
HETATM   18  C16 UNK     1      27.972  -7.253  31.064  1.00  0.00     0.288 A 
ENDROOT
BRANCH   8  19
HETATM   19  C11 UNK     1      31.808  -7.333  32.812  1.00  0.00     0.104 C 
HETATM   20  N1  UNK     1      31.101  -7.982  33.765  1.00  0.00    -0.365 N 
HETATM   21  H10 UNK     1      30.870  -8.952  33.583  1.00  0.00     0.165 HD
BRANCH  20  22
HETATM   22  C14 UNK     1      30.632  -7.493  34.999  1.00  0.00     0.033 A 
HETATM   23  C17 UNK     1      30.903  -6.171  35.369  1.00  0.00     0.050 A 
HETATM   24  C18 UNK     1      30.426  -5.709  36.606  1.00  0.00     0.037 A 
HETATM   25  S1  UNK     1      30.599  -4.152  37.325  1.00  0.00    -0.073 SA
HETATM   26  C20 UNK     1      29.693  -6.532  37.467  1.00  0.00     0.075 A 
HETATM   27  C22 UNK     1      29.709  -4.691  38.683  1.00  0.00     0.072 A 
HETATM   28  N2  UNK     1      29.289  -5.934  38.653  1.00  0.00    -0.245 NA
HETATM   29  C23 UNK     1      29.461  -3.753  39.800  1.00  0.00     0.079 C 
HETATM   30  C21 UNK     1      29.430  -7.862  37.075  1.00  0.00     0.035 A 
HETATM   31  C19 UNK     1      29.903  -8.328  35.844  1.00  0.00     0.032 A 
ENDBRANCH  20  22
ENDBRANCH   8  19
TORSDOF 2
ENDMDL
MODEL 7
REMARK VINA RESULT:      -8.5     11.587     14.521
REMARK  2 active torsions:
REMARK  status: ('A' for Active; 'I' for Inactive)
REMARK    1  A    between atoms: C14_21  and  N1_6 
REMARK    2  A    between atoms: C11_18  and  C4_11 
ROOT
HETATM    1  O1  UNK     1      28.812  -7.595  38.820  1.00  0.00    -0.332 OA
HETATM    2  O2  UNK     1      31.973  -5.252  35.956  1.00  0.00    -0.274 OA
HETATM    3  O3  UNK     1      29.881  -9.962  36.312  1.00  0.00    -0.289 OA
HETATM    4  O4  UNK     1      33.390  -4.080  34.591  1.00  0.00    -0.260 OA
HETATM    5  C1  UNK     1      28.576  -8.594  37.825  1.00  0.00     0.125 C 
HETATM    6  C2  UNK     1      30.477  -6.512  37.408  1.00  0.00     0.048 A 
HETATM    7  C3  UNK     1      29.782  -8.906  36.933  1.00  0.00     0.196 C 
HETATM    8  C4  UNK     1      30.812  -7.828  36.839  1.00  0.00     0.044 C 
HETATM    9  C5  UNK     1      29.490  -6.480  38.402  1.00  0.00     0.084 A 
HETATM   10  C6  UNK     1      27.391  -8.176  36.946  1.00  0.00     0.055 C 
HETATM   11  C7  UNK     1      28.204  -9.862  38.604  1.00  0.00     0.055 C 
HETATM   12  C8  UNK     1      31.049  -5.285  37.029  1.00  0.00     0.103 A 
HETATM   13  C9  UNK     1      30.711  -4.082  37.659  1.00  0.00    -0.001 A 
HETATM   14  C10 UNK     1      29.160  -5.289  39.057  1.00  0.00     0.039 A 
HETATM   15  C12 UNK     1      29.770  -4.093  38.689  1.00  0.00     0.017 A 
HETATM   16  C13 UNK     1      31.343  -2.845  37.227  1.00  0.00     0.020 A 
HETATM   17  C15 UNK     1      32.225  -2.847  36.224  1.00  0.00     0.083 A 
HETATM   18  C16 UNK     1      32.587  -4.085  35.517  1.00  0.00     0.288 A 
ENDROOT
BRANCH   8  19
HETATM   19  C11 UNK     1      32.010  -8.179  36.347  1.00  0.00     0.104 C 
HETATM   20  N1  UNK     1      32.521  -7.888  35.129  1.00  0.00    -0.365 N 
HETATM   21  H10 UNK     1      31.939  -7.337  34.508  1.00  0.00     0.165 HD
BRANCH  20  22
HETATM   22  C14 UNK     1      33.771  -8.244  34.590  1.00  0.00     0.033 A 
HETATM   23  C17 UNK     1      33.904  -9.445  33.884  1.00  0.00     0.050 A 
HETATM   24  C18 UNK     1      35.163  -9.779  33.359  1.00  0.00     0.037 A 
HETATM   25  S1  UNK     1      35.630 -11.171  32.455  1.00  0.00    -0.073 SA
HETATM   26  C20 UNK     1      36.275  -8.946  33.524  1.00  0.00     0.075 A 
HETATM   27  C22 UNK     1      37.226 -10.564  32.364  1.00  0.00     0.072 A 
HETATM   28  N2  UNK     1      37.449  -9.411  32.947  1.00  0.00    -0.245 NA
HETATM   29  C23 UNK     1      38.255 -11.350  31.648  1.00  0.00     0.079 C 
HETATM   30  C21 UNK     1      36.119  -7.740  34.239  1.00  0.00     0.035 A 
HETATM   31  C19 UNK     1      34.868  -7.403  34.765  1.00  0.00     0.032 A 
ENDBRANCH  20  22
ENDBRANCH   8  19
TORSDOF 2
ENDMDL
MODEL 8
REMARK VINA RESULT:      -8.5     11.612     14.353
REMARK  2 active torsions:
REMARK  status: ('A' for Active; 'I' for Inactive)
REMARK    1  A    between atoms: C14_21  and  N1_6 
REMARK    2  A    between atoms: C11_18  and  C4_11 
ROOT
HETATM    1  O1  UNK     1      30.375 -13.004  31.035  1.00  0.00    -0.332 OA
HETATM    2  O2  UNK     1      30.440  -8.218  31.917  1.00  0.00    -0.274 OA
HETATM    3  O3  UNK     1      31.528 -12.597  34.433  1.00  0.00    -0.289 OA
HETATM    4  O4  UNK     1      30.532  -5.954  32.253  1.00  0.00    -0.260 OA
HETATM    5  C1  UNK     1      31.269 -13.265  32.120  1.00  0.00     0.125 C 
HETATM    6  C2  UNK     1      30.336 -10.627  31.577  1.00  0.00     0.048 A 
HETATM    7  C3  UNK     1      31.135 -12.304  33.305  1.00  0.00     0.196 C 
HETATM    8  C4  UNK     1      30.531 -10.974  32.994  1.00  0.00     0.044 C 
HETATM    9  C5  UNK     1      30.247 -11.690  30.667  1.00  0.00     0.084 A 
HETATM   10  C6  UNK     1      32.716 -13.242  31.611  1.00  0.00     0.055 C 
HETATM   11  C7  UNK     1      30.924 -14.681  32.597  1.00  0.00     0.055 C 
HETATM   12  C8  UNK     1      30.249  -9.325  31.054  1.00  0.00     0.103 A 
HETATM   13  C9  UNK     1      30.010  -9.082  29.697  1.00  0.00    -0.001 A 
HETATM   14  C10 UNK     1      29.983 -11.463  29.312  1.00  0.00     0.039 A 
HETATM   15  C12 UNK     1      29.863 -10.163  28.828  1.00  0.00     0.017 A 
HETATM   16  C13 UNK     1      29.923  -7.711  29.219  1.00  0.00     0.020 A 
HETATM   17  C15 UNK     1      30.090  -6.687  30.059  1.00  0.00     0.083 A 
HETATM   18  C16 UNK     1      30.371  -6.898  31.488  1.00  0.00     0.288 A 
ENDROOT
BRANCH   8  19
HETATM   19  C11 UNK     1      30.103 -10.246  34.037  1.00  0.00     0.104 C 
HETATM   20  N1  UNK     1      30.784  -9.297  34.718  1.00  0.00    -0.365 N 
HETATM   21  H10 UNK     1      31.730  -9.103  34.410  1.00  0.00     0.165 HD
BRANCH  20  22
HETATM   22  C14 UNK     1      30.358  -8.523  35.814  1.00  0.00     0.033 A 
HETATM   23  C17 UNK     1      30.701  -7.167  35.879  1.00  0.00     0.050 A 
HETATM   24  C18 UNK     1      30.266  -6.418  36.984  1.00  0.00     0.037 A 
HETATM   25  S1  UNK     1      30.527  -4.751  37.338  1.00  0.00    -0.073 SA
HETATM   26  C20 UNK     1      29.504  -6.990  38.009  1.00  0.00     0.075 A 
HETATM   27  C22 UNK     1      29.631  -4.929  38.784  1.00  0.00     0.072 A 
HETATM   28  N2  UNK     1      29.149  -6.123  39.033  1.00  0.00    -0.245 NA
HETATM   29  C23 UNK     1      29.446  -3.754  39.665  1.00  0.00     0.079 C 
HETATM   30  C21 UNK     1      29.169  -8.358  37.923  1.00  0.00     0.035 A 
HETATM   31  C19 UNK     1      29.601  -9.110  36.826  1.00  0.00     0.032 A 
ENDBRANCH  20  22
ENDBRANCH   8  19
TORSDOF 2
ENDMDL
MODEL 9
REMARK VINA RESULT:      -8.5     27.506     30.927
REMARK  2 active torsions:
REMARK  status: ('A' for Active; 'I' for Inactive)
REMARK    1  A    between atoms: C14_21  and  N1_6 
REMARK    2  A    between atoms: C11_18  and  C4_11 
ROOT
HETATM    1  O1  UNK     1      17.486  14.455   5.580  1.00  0.00    -0.332 OA
HETATM    2  O2  UNK     1      14.146  13.354   8.945  1.00  0.00    -0.274 OA
HETATM    3  O3  UNK     1      18.597  11.415   7.180  1.00  0.00    -0.289 OA
HETATM    4  O4  UNK     1      12.589  12.927  10.569  1.00  0.00    -0.260 OA
HETATM    5  C1  UNK     1      18.467  13.632   6.215  1.00  0.00     0.125 C 
HETATM    6  C2  UNK     1      15.803  13.791   7.214  1.00  0.00     0.048 A 
HETATM    7  C3  UNK     1      17.904  12.399   6.928  1.00  0.00     0.196 C 
HETATM    8  C4  UNK     1      16.467  12.483   7.328  1.00  0.00     0.044 C 
HETATM    9  C5  UNK     1      16.354  14.710   6.310  1.00  0.00     0.084 A 
HETATM   10  C6  UNK     1      19.273  14.470   7.216  1.00  0.00     0.055 C 
HETATM   11  C7  UNK     1      19.394  13.164   5.087  1.00  0.00     0.055 C 
HETATM   12  C8  UNK     1      14.675  14.206   7.944  1.00  0.00     0.103 A 
HETATM   13  C9  UNK     1      14.071  15.451   7.737  1.00  0.00    -0.001 A 
HETATM   14  C10 UNK     1      15.747  15.948   6.074  1.00  0.00     0.039 A 
HETATM   15  C12 UNK     1      14.607  16.317   6.784  1.00  0.00     0.017 A 
HETATM   16  C13 UNK     1      12.901  15.818   8.519  1.00  0.00     0.020 A 
HETATM   17  C15 UNK     1      12.414  14.988   9.444  1.00  0.00     0.083 A 
HETATM   18  C16 UNK     1      13.035  13.682   9.713  1.00  0.00     0.288 A 
ENDROOT
BRANCH   8  19
HETATM   19  C11 UNK     1      15.861  11.330   7.649  1.00  0.00     0.104 C 
HETATM   20  N1  UNK     1      15.931  10.657   8.820  1.00  0.00    -0.365 N 
HETATM   21  H10 UNK     1      16.504  11.066   9.549  1.00  0.00     0.165 HD
BRANCH  20  22
HETATM   22  C14 UNK     1      15.307   9.448   9.180  1.00  0.00     0.033 A 
HETATM   23  C17 UNK     1      14.101   9.082   8.570  1.00  0.00     0.050 A 
HETATM   24  C18 UNK     1      13.499   7.872   8.950  1.00  0.00     0.037 A 
HETATM   25  S1  UNK     1      12.032   7.164   8.383  1.00  0.00    -0.073 SA
HETATM   26  C20 UNK     1      14.071   7.032   9.911  1.00  0.00     0.075 A 
HETATM   27  C22 UNK     1      12.277   5.839   9.436  1.00  0.00     0.072 A 
HETATM   28  N2  UNK     1      13.358   5.871  10.178  1.00  0.00    -0.245 NA
HETATM   29  C23 UNK     1      11.281   4.745   9.460  1.00  0.00     0.079 C 
HETATM   30  C21 UNK     1      15.287   7.420  10.513  1.00  0.00     0.035 A 
HETATM   31  C19 UNK     1      15.892   8.624  10.140  1.00  0.00     0.032 A 
ENDBRANCH  20  22
ENDBRANCH   8  19
TORSDOF 2
ENDMDL
MODEL 10
REMARK VINA RESULT:      -8.4     11.142     14.422
REMARK  2 active torsions:
REMARK  status: ('A' for Active; 'I' for Inactive)
REMARK    1  A    between atoms: C14_21  and  N1_6 
REMARK    2  A    between atoms: C11_18  and  C4_11 
ROOT
HETATM    1  O1  UNK     1      34.089  -9.154  29.704  1.00  0.00    -0.332 OA
HETATM    2  O2  UNK     1      29.904  -7.982  31.894  1.00  0.00    -0.274 OA
HETATM    3  O3  UNK     1      34.875  -8.556  33.177  1.00  0.00    -0.289 OA
HETATM    4  O4  UNK     1      27.923  -7.355  32.858  1.00  0.00    -0.260 OA
HETATM    5  C1  UNK     1      34.860  -8.568  30.756  1.00  0.00     0.125 C 
HETATM    6  C2  UNK     1      32.014  -8.658  30.883  1.00  0.00     0.048 A 
HETATM    7  C3  UNK     1      34.216  -8.650  32.144  1.00  0.00     0.196 C 
HETATM    8  C4  UNK     1      32.731  -8.816  32.158  1.00  0.00     0.044 C 
HETATM    9  C5  UNK     1      32.750  -8.863  29.708  1.00  0.00     0.084 A 
HETATM   10  C6  UNK     1      35.155  -7.100  30.422  1.00  0.00     0.055 C 
HETATM   11  C7  UNK     1      36.176  -9.355  30.781  1.00  0.00     0.055 C 
HETATM   12  C8  UNK     1      30.661  -8.303  30.741  1.00  0.00     0.103 A 
HETATM   13  C9  UNK     1      30.041  -8.225  29.489  1.00  0.00    -0.001 A 
HETATM   14  C10 UNK     1      32.137  -8.813  28.451  1.00  0.00     0.039 A 
HETATM   15  C12 UNK     1      30.786  -8.497  28.341  1.00  0.00     0.017 A 
HETATM   16  C13 UNK     1      28.635  -7.860  29.408  1.00  0.00     0.020 A 
HETATM   17  C15 UNK     1      27.941  -7.579  30.513  1.00  0.00     0.083 A 
HETATM   18  C16 UNK     1      28.562  -7.622  31.847  1.00  0.00     0.288 A 
ENDROOT
BRANCH   8  19
HETATM   19  C11 UNK     1      32.180  -9.214  33.315  1.00  0.00     0.104 C 
HETATM   20  N1  UNK     1      31.751  -8.438  34.337  1.00  0.00    -0.365 N 
HETATM   21  H10 UNK     1      31.852  -7.436  34.224  1.00  0.00     0.165 HD
BRANCH  20  22
HETATM   22  C14 UNK     1      31.172  -8.831  35.558  1.00  0.00     0.033 A 
HETATM   23  C17 UNK     1      29.783  -8.767  35.718  1.00  0.00     0.050 A 
HETATM   24  C18 UNK     1      29.231  -9.162  36.948  1.00  0.00     0.037 A 
HETATM   25  S1  UNK     1      27.578  -9.193  37.437  1.00  0.00    -0.073 SA
HETATM   26  C20 UNK     1      30.030  -9.616  38.003  1.00  0.00     0.075 A 
HETATM   27  C22 UNK     1      28.053  -9.790  38.968  1.00  0.00     0.072 A 
HETATM   28  N2  UNK     1      29.339  -9.972  39.153  1.00  0.00    -0.245 NA
HETATM   29  C23 UNK     1      27.016 -10.066  39.986  1.00  0.00     0.079 C 
HETATM   30  C21 UNK     1      31.428  -9.674  37.819  1.00  0.00     0.035 A 
HETATM   31  C19 UNK     1      31.984  -9.280  36.598  1.00  0.00     0.032 A 
ENDBRANCH  20  22
ENDBRANCH   8  19
TORSDOF 2
ENDMDL
