MODEL 1
REMARK VINA RESULT:      -9.2      0.000      0.000
REMARK  3 active torsions:
REMARK  status: ('A' for Active; 'I' for Inactive)
REMARK    1  A    between atoms: C1_8  and  N1_6 
REMARK       I    between atoms: C7_14  and  N1_6 
REMARK    2  A    between atoms: C15_22  and  N2_7 
REMARK    3  A    between atoms: C7_14  and  C8_15 
ROOT
HETATM    1  O2  UNK     1      19.275   0.273  28.613  1.00  0.00    -0.274 OA
HETATM    2  O3  UNK     1      18.283   2.245  28.022  1.00  0.00    -0.259 OA
HETATM    3  C8  UNK     1      18.557   1.847  30.342  1.00  0.00     0.108 A 
HETATM    4  C9  UNK     1      18.991   1.027  31.306  1.00  0.00     0.037 A 
HETATM    5  C10 UNK     1      19.607  -0.246  30.965  1.00  0.00     0.001 A 
HETATM    6  C11 UNK     1      18.682   1.497  28.908  1.00  0.00     0.304 A 
HETATM    7  C12 UNK     1      19.734  -0.594  29.624  1.00  0.00     0.089 A 
HETATM    8  C13 UNK     1      20.074  -1.131  31.939  1.00  0.00     0.050 A 
HETATM    9  C14 UNK     1      20.314  -1.798  29.229  1.00  0.00     0.041 A 
HETATM   10  C15 UNK     1      20.659  -2.344  31.558  1.00  0.00     0.103 A 
HETATM   11  C16 UNK     1      20.778  -2.676  30.207  1.00  0.00     0.039 A 
ENDROOT
BRANCH   3  12
HETATM   12  C7  UNK     1      17.946   3.113  30.788  1.00  0.00     0.258 C 
HETATM   13  O1  UNK     1      16.761   3.160  31.098  1.00  0.00    -0.267 OA
HETATM   14  N1  UNK     1      18.845   4.162  30.801  1.00  0.00    -0.352 N 
HETATM   15  H12 UNK     1      19.786   4.019  30.449  1.00  0.00     0.163 HD
BRANCH  14  16
HETATM   16  C1  UNK     1      18.479   5.503  31.200  1.00  0.00     0.084 C 
HETATM   17  C2  UNK     1      19.701   6.427  31.212  1.00  0.00     0.025 C 
HETATM   18  C4  UNK     1      20.653   6.124  32.369  1.00  0.00     0.002 C 
HETATM   19  C6  UNK     1      19.928   6.137  33.712  1.00  0.00     0.000 C 
HETATM   20  C5  UNK     1      18.726   5.197  33.714  1.00  0.00     0.002 C 
HETATM   21  C3  UNK     1      17.772   5.499  32.559  1.00  0.00     0.025 C 
ENDBRANCH  14  16
ENDBRANCH   3  12
BRANCH  10  22
HETATM   22  N2  UNK     1      21.132  -3.242  32.551  1.00  0.00    -0.116 N 
HETATM   23  O4  UNK     1      21.581  -4.359  32.195  1.00  0.00    -0.532 OA
HETATM   24  O5  UNK     1      21.090  -2.894  33.756  1.00  0.00    -0.532 OA
ENDBRANCH  10  22
TORSDOF 3
ENDMDL
MODEL 2
REMARK VINA RESULT:      -8.9      3.767      4.924
REMARK  3 active torsions:
REMARK  status: ('A' for Active; 'I' for Inactive)
REMARK    1  A    between atoms: C1_8  and  N1_6 
REMARK       I    between atoms: C7_14  and  N1_6 
REMARK    2  A    between atoms: C15_22  and  N2_7 
REMARK    3  A    between atoms: C7_14  and  C8_15 
ROOT
HETATM    1  O2  UNK     1      18.271   1.551  32.276  1.00  0.00    -0.274 OA
HETATM    2  O3  UNK     1      18.338   3.112  30.609  1.00  0.00    -0.259 OA
HETATM    3  C8  UNK     1      18.236   3.932  32.829  1.00  0.00     0.108 A 
HETATM    4  C9  UNK     1      18.178   3.656  34.137  1.00  0.00     0.037 A 
HETATM    5  C10 UNK     1      18.163   2.274  34.595  1.00  0.00     0.001 A 
HETATM    6  C11 UNK     1      18.287   2.862  31.808  1.00  0.00     0.304 A 
HETATM    7  C12 UNK     1      18.210   1.253  33.651  1.00  0.00     0.089 A 
HETATM    8  C13 UNK     1      18.103   1.939  35.949  1.00  0.00     0.050 A 
HETATM    9  C14 UNK     1      18.199  -0.091  34.022  1.00  0.00     0.041 A 
HETATM   10  C15 UNK     1      18.091   0.596  36.337  1.00  0.00     0.103 A 
HETATM   11  C16 UNK     1      18.139  -0.417  35.376  1.00  0.00     0.039 A 
ENDROOT
BRANCH   3  12
HETATM   12  C7  UNK     1      18.245   5.362  32.466  1.00  0.00     0.258 C 
HETATM   13  O1  UNK     1      19.294   5.925  32.174  1.00  0.00    -0.267 OA
HETATM   14  N1  UNK     1      16.986   5.928  32.502  1.00  0.00    -0.352 N 
HETATM   15  H12 UNK     1      16.200   5.379  32.834  1.00  0.00     0.163 HD
BRANCH  14  16
HETATM   16  C1  UNK     1      16.742   7.318  32.187  1.00  0.00     0.084 C 
HETATM   17  C2  UNK     1      17.090   8.221  33.375  1.00  0.00     0.025 C 
HETATM   18  C4  UNK     1      16.085   8.095  34.520  1.00  0.00     0.002 C 
HETATM   19  C6  UNK     1      14.654   8.325  34.041  1.00  0.00     0.000 C 
HETATM   20  C5  UNK     1      14.295   7.408  32.876  1.00  0.00     0.002 C 
HETATM   21  C3  UNK     1      15.297   7.534  31.728  1.00  0.00     0.025 C 
ENDBRANCH  14  16
ENDBRANCH   3  12
BRANCH  10  22
HETATM   22  N2  UNK     1      18.029   0.258  37.715  1.00  0.00    -0.116 N 
HETATM   23  O4  UNK     1      17.892   1.177  38.560  1.00  0.00    -0.532 OA
HETATM   24  O5  UNK     1      18.110  -0.948  38.050  1.00  0.00    -0.532 OA
ENDBRANCH  10  22
TORSDOF 3
ENDMDL
MODEL 3
REMARK VINA RESULT:      -8.8      1.499      2.043
REMARK  3 active torsions:
REMARK  status: ('A' for Active; 'I' for Inactive)
REMARK    1  A    between atoms: C1_8  and  N1_6 
REMARK       I    between atoms: C7_14  and  N1_6 
REMARK    2  A    between atoms: C15_22  and  N2_7 
REMARK    3  A    between atoms: C7_14  and  C8_15 
ROOT
HETATM    1  O2  UNK     1      20.295  -1.160  29.889  1.00  0.00    -0.274 OA
HETATM    2  O3  UNK     1      19.790   0.381  28.279  1.00  0.00    -0.259 OA
HETATM    3  C8  UNK     1      19.046   0.858  30.477  1.00  0.00     0.108 A 
HETATM    4  C9  UNK     1      18.978   0.475  31.758  1.00  0.00     0.037 A 
HETATM    5  C10 UNK     1      19.581  -0.779  32.181  1.00  0.00     0.001 A 
HETATM    6  C11 UNK     1      19.727   0.034  29.453  1.00  0.00     0.304 A 
HETATM    7  C12 UNK     1      20.226  -1.569  31.235  1.00  0.00     0.089 A 
HETATM    8  C13 UNK     1      19.534  -1.218  33.506  1.00  0.00     0.050 A 
HETATM    9  C14 UNK     1      20.824  -2.781  31.574  1.00  0.00     0.041 A 
HETATM   10  C15 UNK     1      20.130  -2.432  33.863  1.00  0.00     0.103 A 
HETATM   11  C16 UNK     1      20.774  -3.211  32.899  1.00  0.00     0.039 A 
ENDROOT
BRANCH   3  12
HETATM   12  C7  UNK     1      18.403   2.144  30.146  1.00  0.00     0.258 C 
HETATM   13  O1  UNK     1      17.430   2.182  29.402  1.00  0.00    -0.267 OA
HETATM   14  N1  UNK     1      19.019   3.219  30.755  1.00  0.00    -0.352 N 
HETATM   15  H12 UNK     1      19.868   3.072  31.292  1.00  0.00     0.163 HD
BRANCH  14  16
HETATM   16  C1  UNK     1      18.570   4.583  30.580  1.00  0.00     0.084 C 
HETATM   17  C2  UNK     1      19.707   5.476  30.073  1.00  0.00     0.025 C 
HETATM   18  C4  UNK     1      20.761   5.747  31.147  1.00  0.00     0.002 C 
HETATM   19  C6  UNK     1      20.135   6.306  32.421  1.00  0.00     0.000 C 
HETATM   20  C5  UNK     1      19.021   5.405  32.945  1.00  0.00     0.002 C 
HETATM   21  C3  UNK     1      17.964   5.134  31.874  1.00  0.00     0.025 C 
ENDBRANCH  14  16
ENDBRANCH   3  12
BRANCH  10  22
HETATM   22  N2  UNK     1      20.080  -2.875  35.211  1.00  0.00    -0.116 N 
HETATM   23  O4  UNK     1      19.637  -2.097  36.090  1.00  0.00    -0.532 OA
HETATM   24  O5  UNK     1      20.477  -4.034  35.485  1.00  0.00    -0.532 OA
ENDBRANCH  10  22
TORSDOF 3
ENDMDL
MODEL 4
REMARK VINA RESULT:      -8.7      3.574      7.158
REMARK  3 active torsions:
REMARK  status: ('A' for Active; 'I' for Inactive)
REMARK    1  A    between atoms: C1_8  and  N1_6 
REMARK       I    between atoms: C7_14  and  N1_6 
REMARK    2  A    between atoms: C15_22  and  N2_7 
REMARK    3  A    between atoms: C7_14  and  C8_15 
ROOT
HETATM    1  O2  UNK     1      19.056   2.981  29.824  1.00  0.00    -0.274 OA
HETATM    2  O3  UNK     1      19.327   0.712  29.830  1.00  0.00    -0.259 OA
HETATM    3  C8  UNK     1      18.689   1.710  31.882  1.00  0.00     0.108 A 
HETATM    4  C9  UNK     1      18.387   2.829  32.551  1.00  0.00     0.037 A 
HETATM    5  C10 UNK     1      18.405   4.117  31.873  1.00  0.00     0.001 A 
HETATM    6  C11 UNK     1      19.048   1.735  30.445  1.00  0.00     0.304 A 
HETATM    7  C12 UNK     1      18.739   4.162  30.523  1.00  0.00     0.089 A 
HETATM    8  C13 UNK     1      18.096   5.309  32.532  1.00  0.00     0.050 A 
HETATM    9  C14 UNK     1      18.774   5.362  29.815  1.00  0.00     0.041 A 
HETATM   10  C15 UNK     1      18.127   6.521  31.835  1.00  0.00     0.103 A 
HETATM   11  C16 UNK     1      18.465   6.547  30.480  1.00  0.00     0.039 A 
ENDROOT
BRANCH   3  12
HETATM   12  C7  UNK     1      18.645   0.456  32.656  1.00  0.00     0.258 C 
HETATM   13  O1  UNK     1      19.368  -0.488  32.356  1.00  0.00    -0.267 OA
HETATM   14  N1  UNK     1      17.733   0.501  33.692  1.00  0.00    -0.352 N 
HETATM   15  H12 UNK     1      17.135   1.313  33.796  1.00  0.00     0.163 HD
BRANCH  14  16
HETATM   16  C1  UNK     1      17.511  -0.611  34.589  1.00  0.00     0.084 C 
HETATM   17  C2  UNK     1      16.048  -0.669  35.042  1.00  0.00     0.025 C 
HETATM   18  C4  UNK     1      15.691   0.453  36.017  1.00  0.00     0.002 C 
HETATM   19  C6  UNK     1      16.645   0.486  37.208  1.00  0.00     0.000 C 
HETATM   20  C5  UNK     1      18.101   0.572  36.763  1.00  0.00     0.002 C 
HETATM   21  C3  UNK     1      18.461  -0.549  35.789  1.00  0.00     0.025 C 
ENDBRANCH  14  16
ENDBRANCH   3  12
BRANCH  10  22
HETATM   22  N2  UNK     1      17.815   7.731  32.508  1.00  0.00    -0.116 N 
HETATM   23  O4  UNK     1      16.894   8.456  32.059  1.00  0.00    -0.532 OA
HETATM   24  O5  UNK     1      18.466   8.042  33.535  1.00  0.00    -0.532 OA
ENDBRANCH  10  22
TORSDOF 3
ENDMDL
MODEL 5
REMARK VINA RESULT:      -8.5     21.782     24.387
REMARK  3 active torsions:
REMARK  status: ('A' for Active; 'I' for Inactive)
REMARK    1  A    between atoms: C1_8  and  N1_6 
REMARK       I    between atoms: C7_14  and  N1_6 
REMARK    2  A    between atoms: C15_22  and  N2_7 
REMARK    3  A    between atoms: C7_14  and  C8_15 
ROOT
HETATM    1  O2  UNK     1      11.638   6.613   6.571  1.00  0.00    -0.274 OA
HETATM    2  O3  UNK     1      13.891   6.966   6.432  1.00  0.00    -0.259 OA
HETATM    3  C8  UNK     1      13.070   6.145   8.497  1.00  0.00     0.108 A 
HETATM    4  C9  UNK     1      12.014   5.755   9.221  1.00  0.00     0.037 A 
HETATM    5  C10 UNK     1      10.680   5.774   8.642  1.00  0.00     0.001 A 
HETATM    6  C11 UNK     1      12.927   6.606   7.097  1.00  0.00     0.304 A 
HETATM    7  C12 UNK     1      10.523   6.204   7.328  1.00  0.00     0.089 A 
HETATM    8  C13 UNK     1       9.550   5.376   9.360  1.00  0.00     0.050 A 
HETATM    9  C14 UNK     1       9.273   6.246   6.713  1.00  0.00     0.041 A 
HETATM   10  C15 UNK     1       8.289   5.413   8.757  1.00  0.00     0.103 A 
HETATM   11  C16 UNK     1       8.151   5.847   7.437  1.00  0.00     0.039 A 
ENDROOT
BRANCH   3  12
HETATM   12  C7  UNK     1      14.380   6.091   9.173  1.00  0.00     0.258 C 
HETATM   13  O1  UNK     1      15.127   5.133   9.010  1.00  0.00    -0.267 OA
HETATM   14  N1  UNK     1      14.618   7.201   9.960  1.00  0.00    -0.352 N 
HETATM   15  H12 UNK     1      13.890   7.897  10.078  1.00  0.00     0.163 HD
BRANCH  14  16
HETATM   16  C1  UNK     1      15.835   7.373  10.723  1.00  0.00     0.084 C 
HETATM   17  C2  UNK     1      15.600   8.278  11.937  1.00  0.00     0.025 C 
HETATM   18  C4  UNK     1      15.397   9.742  11.546  1.00  0.00     0.002 C 
HETATM   19  C6  UNK     1      16.542  10.256  10.677  1.00  0.00     0.000 C 
HETATM   20  C5  UNK     1      16.761   9.374   9.452  1.00  0.00     0.002 C 
HETATM   21  C3  UNK     1      16.966   7.910   9.840  1.00  0.00     0.025 C 
ENDBRANCH  14  16
ENDBRANCH   3  12
BRANCH  10  22
HETATM   22  N2  UNK     1       7.143   5.008   9.491  1.00  0.00    -0.116 N 
HETATM   23  O4  UNK     1       6.310   5.878   9.846  1.00  0.00    -0.532 OA
HETATM   24  O5  UNK     1       6.992   3.792   9.762  1.00  0.00    -0.532 OA
ENDBRANCH  10  22
TORSDOF 3
ENDMDL
MODEL 6
REMARK VINA RESULT:      -8.5      3.203      3.947
REMARK  3 active torsions:
REMARK  status: ('A' for Active; 'I' for Inactive)
REMARK    1  A    between atoms: C1_8  and  N1_6 
REMARK       I    between atoms: C7_14  and  N1_6 
REMARK    2  A    between atoms: C15_22  and  N2_7 
REMARK    3  A    between atoms: C7_14  and  C8_15 
ROOT
HETATM    1  O2  UNK     1      19.285  -0.605  32.447  1.00  0.00    -0.274 OA
HETATM    2  O3  UNK     1      19.228   0.429  30.410  1.00  0.00    -0.259 OA
HETATM    3  C8  UNK     1      18.413   1.672  32.254  1.00  0.00     0.108 A 
HETATM    4  C9  UNK     1      18.164   1.717  33.568  1.00  0.00     0.037 A 
HETATM    5  C10 UNK     1      18.472   0.572  34.413  1.00  0.00     0.001 A 
HETATM    6  C11 UNK     1      19.001   0.474  31.613  1.00  0.00     0.304 A 
HETATM    7  C12 UNK     1      19.026  -0.563  33.831  1.00  0.00     0.089 A 
HETATM    8  C13 UNK     1      18.230   0.576  35.788  1.00  0.00     0.050 A 
HETATM    9  C14 UNK     1      19.345  -1.693  34.583  1.00  0.00     0.041 A 
HETATM   10  C15 UNK     1      18.544  -0.550  36.556  1.00  0.00     0.103 A 
HETATM   11  C16 UNK     1      19.100  -1.682  35.954  1.00  0.00     0.039 A 
ENDROOT
BRANCH   3  12
HETATM   12  C7  UNK     1      18.065   2.880  31.483  1.00  0.00     0.258 C 
HETATM   13  O1  UNK     1      17.289   2.814  30.536  1.00  0.00    -0.267 OA
HETATM   14  N1  UNK     1      18.699   4.013  31.954  1.00  0.00    -0.352 N 
HETATM   15  H12 UNK     1      19.381   3.931  32.701  1.00  0.00     0.163 HD
BRANCH  14  16
HETATM   16  C1  UNK     1      18.516   5.318  31.358  1.00  0.00     0.084 C 
HETATM   17  C2  UNK     1      19.840   6.088  31.303  1.00  0.00     0.025 C 
HETATM   18  C4  UNK     1      20.303   6.557  32.682  1.00  0.00     0.002 C 
HETATM   19  C6  UNK     1      19.218   7.360  33.396  1.00  0.00     0.000 C 
HETATM   20  C5  UNK     1      17.906   6.586  33.478  1.00  0.00     0.002 C 
HETATM   21  C3  UNK     1      17.440   6.116  32.100  1.00  0.00     0.025 C 
ENDBRANCH  14  16
ENDBRANCH   3  12
BRANCH  10  22
HETATM   22  N2  UNK     1      18.296  -0.544  37.954  1.00  0.00    -0.116 N 
HETATM   23  O4  UNK     1      17.828   0.493  38.484  1.00  0.00    -0.532 OA
HETATM   24  O5  UNK     1      18.549  -1.577  38.621  1.00  0.00    -0.532 OA
ENDBRANCH  10  22
TORSDOF 3
ENDMDL
MODEL 7
REMARK VINA RESULT:      -8.4     22.583     24.425
REMARK  3 active torsions:
REMARK  status: ('A' for Active; 'I' for Inactive)
REMARK    1  A    between atoms: C1_8  and  N1_6 
REMARK       I    between atoms: C7_14  and  N1_6 
REMARK    2  A    between atoms: C15_22  and  N2_7 
REMARK    3  A    between atoms: C7_14  and  C8_15 
ROOT
HETATM    1  O2  UNK     1      14.036   4.996   9.006  1.00  0.00    -0.274 OA
HETATM    2  O3  UNK     1      12.130   3.969   8.275  1.00  0.00    -0.259 OA
HETATM    3  C8  UNK     1      12.148   6.337   8.222  1.00  0.00     0.108 A 
HETATM    4  C9  UNK     1      12.818   7.470   8.461  1.00  0.00     0.037 A 
HETATM    5  C10 UNK     1      14.169   7.423   8.999  1.00  0.00     0.001 A 
HETATM    6  C11 UNK     1      12.742   5.008   8.491  1.00  0.00     0.304 A 
HETATM    7  C12 UNK     1      14.747   6.184   9.260  1.00  0.00     0.089 A 
HETATM    8  C13 UNK     1      14.906   8.580   9.264  1.00  0.00     0.050 A 
HETATM    9  C14 UNK     1      16.037   6.069   9.775  1.00  0.00     0.041 A 
HETATM   10  C15 UNK     1      16.202   8.481   9.781  1.00  0.00     0.103 A 
HETATM   11  C16 UNK     1      16.765   7.228  10.036  1.00  0.00     0.039 A 
ENDROOT
BRANCH   3  12
HETATM   12  C7  UNK     1      10.785   6.489   7.678  1.00  0.00     0.258 C 
HETATM   13  O1  UNK     1      10.608   6.962   6.561  1.00  0.00    -0.267 OA
HETATM   14  N1  UNK     1       9.811   6.051   8.553  1.00  0.00    -0.352 N 
HETATM   15  H12 UNK     1      10.075   5.748   9.485  1.00  0.00     0.163 HD
BRANCH  14  16
HETATM   16  C1  UNK     1       8.399   6.101   8.243  1.00  0.00     0.084 C 
HETATM   17  C2  UNK     1       7.818   7.486   8.545  1.00  0.00     0.025 C 
HETATM   18  C4  UNK     1       7.706   7.760  10.045  1.00  0.00     0.002 C 
HETATM   19  C6  UNK     1       6.929   6.659  10.761  1.00  0.00     0.000 C 
HETATM   20  C5  UNK     1       7.522   5.281  10.486  1.00  0.00     0.002 C 
HETATM   21  C3  UNK     1       7.633   5.003   8.987  1.00  0.00     0.025 C 
ENDBRANCH  14  16
ENDBRANCH   3  12
BRANCH  10  22
HETATM   22  N2  UNK     1      16.947   9.658  10.050  1.00  0.00    -0.116 N 
HETATM   23  O4  UNK     1      16.495  10.489  10.875  1.00  0.00    -0.532 OA
HETATM   24  O5  UNK     1      18.039   9.835   9.457  1.00  0.00    -0.532 OA
ENDBRANCH  10  22
TORSDOF 3
ENDMDL
MODEL 8
REMARK VINA RESULT:      -8.2     22.536     24.283
REMARK  3 active torsions:
REMARK  status: ('A' for Active; 'I' for Inactive)
REMARK    1  A    between atoms: C1_8  and  N1_6 
REMARK       I    between atoms: C7_14  and  N1_6 
REMARK    2  A    between atoms: C15_22  and  N2_7 
REMARK    3  A    between atoms: C7_14  and  C8_15 
ROOT
HETATM    1  O2  UNK     1      14.113  10.124  11.362  1.00  0.00    -0.274 OA
HETATM    2  O3  UNK     1      12.330   8.713  11.591  1.00  0.00    -0.259 OA
HETATM    3  C8  UNK     1      14.138   7.934  10.273  1.00  0.00     0.108 A 
HETATM    4  C9  UNK     1      15.351   8.172   9.761  1.00  0.00     0.037 A 
HETATM    5  C10 UNK     1      16.026   9.433  10.030  1.00  0.00     0.001 A 
HETATM    6  C11 UNK     1      13.442   8.928  11.122  1.00  0.00     0.304 A 
HETATM    7  C12 UNK     1      15.390  10.380  10.826  1.00  0.00     0.089 A 
HETATM    8  C13 UNK     1      17.292   9.723   9.517  1.00  0.00     0.050 A 
HETATM    9  C14 UNK     1      15.981  11.607  11.122  1.00  0.00     0.041 A 
HETATM   10  C15 UNK     1      17.899  10.950   9.806  1.00  0.00     0.103 A 
HETATM   11  C16 UNK     1      17.245  11.889  10.607  1.00  0.00     0.039 A 
ENDROOT
BRANCH   3  12
HETATM   12  C7  UNK     1      13.535   6.629   9.941  1.00  0.00     0.258 C 
HETATM   13  O1  UNK     1      14.078   5.585  10.286  1.00  0.00    -0.267 OA
HETATM   14  N1  UNK     1      12.355   6.752   9.235  1.00  0.00    -0.352 N 
HETATM   15  H12 UNK     1      12.042   7.671   8.939  1.00  0.00     0.163 HD
BRANCH  14  16
HETATM   16  C1  UNK     1      11.582   5.611   8.796  1.00  0.00     0.084 C 
HETATM   17  C2  UNK     1      12.016   5.157   7.398  1.00  0.00     0.025 C 
HETATM   18  C4  UNK     1      11.578   6.131   6.304  1.00  0.00     0.002 C 
HETATM   19  C6  UNK     1      10.078   6.406   6.363  1.00  0.00     0.000 C 
HETATM   20  C5  UNK     1       9.647   6.886   7.745  1.00  0.00     0.002 C 
HETATM   21  C3  UNK     1      10.081   5.913   8.841  1.00  0.00     0.025 C 
ENDBRANCH  14  16
ENDBRANCH   3  12
BRANCH  10  22
HETATM   22  N2  UNK     1      19.185  11.243   9.281  1.00  0.00    -0.116 N 
HETATM   23  O4  UNK     1      19.348  11.247   8.037  1.00  0.00    -0.532 OA
HETATM   24  O5  UNK     1      20.123  11.493  10.076  1.00  0.00    -0.532 OA
ENDBRANCH  10  22
TORSDOF 3
ENDMDL
MODEL 9
REMARK VINA RESULT:      -8.1      4.908      9.194
REMARK  3 active torsions:
REMARK  status: ('A' for Active; 'I' for Inactive)
REMARK    1  A    between atoms: C1_8  and  N1_6 
REMARK       I    between atoms: C7_14  and  N1_6 
REMARK    2  A    between atoms: C15_22  and  N2_7 
REMARK    3  A    between atoms: C7_14  and  C8_15 
ROOT
HETATM    1  O2  UNK     1      18.354  -0.892  35.384  1.00  0.00    -0.274 OA
HETATM    2  O3  UNK     1      18.202  -1.628  37.542  1.00  0.00    -0.259 OA
HETATM    3  C8  UNK     1      19.662  -2.826  36.112  1.00  0.00     0.108 A 
HETATM    4  C9  UNK     1      20.191  -2.962  34.890  1.00  0.00     0.037 A 
HETATM    5  C10 UNK     1      19.819  -2.045  33.823  1.00  0.00     0.001 A 
HETATM    6  C11 UNK     1      18.690  -1.754  36.424  1.00  0.00     0.304 A 
HETATM    7  C12 UNK     1      18.908  -1.030  34.096  1.00  0.00     0.089 A 
HETATM    8  C13 UNK     1      20.347  -2.149  32.535  1.00  0.00     0.050 A 
HETATM    9  C14 UNK     1      18.509  -0.119  33.120  1.00  0.00     0.041 A 
HETATM   10  C15 UNK     1      19.957  -1.242  31.544  1.00  0.00     0.103 A 
HETATM   11  C16 UNK     1      19.041  -0.229  31.836  1.00  0.00     0.039 A 
ENDROOT
BRANCH   3  12
HETATM   12  C7  UNK     1      20.100  -3.805  37.124  1.00  0.00     0.258 C 
HETATM   13  O1  UNK     1      20.880  -3.478  38.012  1.00  0.00    -0.267 OA
HETATM   14  N1  UNK     1      19.541  -5.054  36.935  1.00  0.00    -0.352 N 
HETATM   15  H12 UNK     1      18.966  -5.225  36.117  1.00  0.00     0.163 HD
BRANCH  14  16
HETATM   16  C1  UNK     1      19.822  -6.178  37.800  1.00  0.00     0.084 C 
HETATM   17  C2  UNK     1      21.159  -6.833  37.434  1.00  0.00     0.025 C 
HETATM   18  C4  UNK     1      21.092  -7.604  36.116  1.00  0.00     0.002 C 
HETATM   19  C6  UNK     1      19.952  -8.618  36.115  1.00  0.00     0.000 C 
HETATM   20  C5  UNK     1      18.615  -7.965  36.451  1.00  0.00     0.002 C 
HETATM   21  C3  UNK     1      18.678  -7.195  37.770  1.00  0.00     0.025 C 
ENDBRANCH  14  16
ENDBRANCH   3  12
BRANCH  10  22
HETATM   22  N2  UNK     1      20.495  -1.351  30.234  1.00  0.00    -0.116 N 
HETATM   23  O4  UNK     1      20.632  -0.311  29.545  1.00  0.00    -0.532 OA
HETATM   24  O5  UNK     1      20.819  -2.484  29.803  1.00  0.00    -0.532 OA
ENDBRANCH  10  22
TORSDOF 3
ENDMDL
MODEL 10
REMARK VINA RESULT:      -8.0     13.610     16.946
REMARK  3 active torsions:
REMARK  status: ('A' for Active; 'I' for Inactive)
REMARK    1  A    between atoms: C1_8  and  N1_6 
REMARK       I    between atoms: C7_14  and  N1_6 
REMARK    2  A    between atoms: C15_22  and  N2_7 
REMARK    3  A    between atoms: C7_14  and  C8_15 
ROOT
HETATM    1  O2  UNK     1      19.185   0.268  14.880  1.00  0.00    -0.274 OA
HETATM    2  O3  UNK     1      18.859  -1.419  13.373  1.00  0.00    -0.259 OA
HETATM    3  C8  UNK     1      18.376  -1.911  15.640  1.00  0.00     0.108 A 
HETATM    4  C9  UNK     1      18.333  -1.484  16.907  1.00  0.00     0.037 A 
HETATM    5  C10 UNK     1      18.725  -0.121  17.235  1.00  0.00     0.001 A 
HETATM    6  C11 UNK     1      18.817  -1.030  14.535  1.00  0.00     0.304 A 
HETATM    7  C12 UNK     1      19.142   0.724  16.212  1.00  0.00     0.089 A 
HETATM    8  C13 UNK     1      18.695   0.367  18.543  1.00  0.00     0.050 A 
HETATM    9  C14 UNK     1      19.530   2.039  16.458  1.00  0.00     0.041 A 
HETATM   10  C15 UNK     1      19.081   1.685  18.806  1.00  0.00     0.103 A 
HETATM   11  C16 UNK     1      19.497   2.519  17.766  1.00  0.00     0.039 A 
ENDROOT
BRANCH   3  12
HETATM   12  C7  UNK     1      17.962  -3.308  15.409  1.00  0.00     0.258 C 
HETATM   13  O1  UNK     1      17.116  -3.835  16.123  1.00  0.00    -0.267 OA
HETATM   14  N1  UNK     1      18.623  -3.890  14.345  1.00  0.00    -0.352 N 
HETATM   15  H12 UNK     1      19.361  -3.378  13.874  1.00  0.00     0.163 HD
BRANCH  14  16
HETATM   16  C1  UNK     1      18.386  -5.255  13.928  1.00  0.00     0.084 C 
HETATM   17  C2  UNK     1      19.001  -6.248  14.920  1.00  0.00     0.025 C 
HETATM   18  C4  UNK     1      20.528  -6.276  14.850  1.00  0.00     0.002 C 
HETATM   19  C6  UNK     1      21.021  -6.528  13.428  1.00  0.00     0.000 C 
HETATM   20  C5  UNK     1      20.434  -5.523  12.442  1.00  0.00     0.002 C 
HETATM   21  C3  UNK     1      18.907  -5.494  12.507  1.00  0.00     0.025 C 
ENDBRANCH  14  16
ENDBRANCH   3  12
BRANCH  10  22
HETATM   22  N2  UNK     1      19.051   2.178  20.137  1.00  0.00    -0.116 N 
HETATM   23  O4  UNK     1      18.010   2.022  20.820  1.00  0.00    -0.532 OA
HETATM   24  O5  UNK     1      20.068   2.755  20.595  1.00  0.00    -0.532 OA
ENDBRANCH  10  22
TORSDOF 3
ENDMDL
