MODEL 1
REMARK VINA RESULT:      -9.4      0.000      0.000
REMARK  4 active torsions:
REMARK  status: ('A' for Active; 'I' for Inactive)
REMARK    1  A    between atoms: C18_26  and  O3_4 
REMARK    2  A    between atoms: C21_29  and  O5_6 
REMARK    3  A    between atoms: C1_9  and  C8_16 
REMARK    4  A    between atoms: C6_14  and  C9_17 
ROOT
HETATM    1  O1  UNK     1      33.161 -10.358  34.142  1.00  0.00    -0.293 OA
HETATM    2  N1  UNK     1      28.966  -9.911  31.808  1.00  0.00    -0.357 N 
HETATM    3  N2  UNK     1      30.935  -7.667  32.157  1.00  0.00    -0.375 N 
HETATM    4  C1  UNK     1      31.433 -12.697  32.024  1.00  0.00     0.031 C 
HETATM    5  C2  UNK     1      30.044 -12.054  32.045  1.00  0.00     0.067 C 
HETATM    6  C3  UNK     1      31.115  -9.983  32.966  1.00  0.00     0.037 C 
HETATM    7  C4  UNK     1      32.165 -12.346  33.312  1.00  0.00     0.093 C 
HETATM    8  C5  UNK     1      30.086 -10.554  32.301  1.00  0.00     0.022 C 
HETATM    9  C6  UNK     1      31.202  -8.517  33.305  1.00  0.00     0.160 C 
HETATM   10  C7  UNK     1      32.230 -10.849  33.500  1.00  0.00     0.160 C 
HETATM   11  C10 UNK     1      28.755  -8.571  31.425  1.00  0.00     0.059 A 
HETATM   12  C11 UNK     1      29.705  -7.542  31.529  1.00  0.00     0.055 A 
HETATM   13  C16 UNK     1      27.500  -8.276  30.840  1.00  0.00     0.032 A 
HETATM   14  C17 UNK     1      29.382  -6.271  31.000  1.00  0.00     0.031 A 
HETATM   15  C22 UNK     1      27.197  -7.011  30.343  1.00  0.00     0.002 A 
HETATM   16  C23 UNK     1      28.147  -6.006  30.414  1.00  0.00     0.002 A 
HETATM   17  H7  UNK     1      28.197 -10.534  31.580  1.00  0.00     0.166 HD
HETATM   18  H8  UNK     1      31.595  -6.908  32.006  1.00  0.00     0.160 HD
ENDROOT
BRANCH   9  19
HETATM   19  C9  UNK     1      30.337  -8.132  34.470  1.00  0.00     0.042 A 
HETATM   20  C14 UNK     1      30.684  -6.909  35.237  1.00  0.00     0.195 A 
HETATM   21  O4  UNK     1      31.646  -6.211  34.947  1.00  0.00    -0.287 OA
HETATM   22  C20 UNK     1      29.803  -6.577  36.371  1.00  0.00     0.050 A 
HETATM   23  C24 UNK     1      28.719  -7.409  36.654  1.00  0.00     0.089 A 
HETATM   24  C25 UNK     1      30.044  -5.445  37.154  1.00  0.00     0.042 A 
HETATM   25  O2  UNK     1      28.434  -8.532  35.918  1.00  0.00    -0.321 OA
HETATM   26  C26 UNK     1      27.871  -7.113  37.722  1.00  0.00     0.040 A 
HETATM   27  C15 UNK     1      29.264  -8.828  34.866  1.00  0.00     0.156 A 
HETATM   28  C28 UNK     1      28.111  -5.984  38.505  1.00  0.00     0.026 A 
HETATM   29  C27 UNK     1      29.195  -5.153  38.221  1.00  0.00     0.035 A 
HETATM   30 Cl1  UNK     1      29.484  -3.760  39.192  1.00  0.00    -0.084 Cl
ENDBRANCH   9  19
BRANCH   4  31
HETATM   31  C8  UNK     1      31.367 -14.195  31.791  1.00  0.00    -0.050 A 
HETATM   32  C12 UNK     1      31.220 -15.060  32.873  1.00  0.00     0.047 A 
HETATM   33  C18 UNK     1      31.161 -16.438  32.660  1.00  0.00     0.102 A 
HETATM   34  C21 UNK     1      31.249 -16.946  31.364  1.00  0.00     0.101 A 
HETATM   35  C19 UNK     1      31.395 -16.078  30.282  1.00  0.00     0.040 A 
HETATM   36  C13 UNK     1      31.455 -14.700  30.496  1.00  0.00     0.010 A 
BRANCH  33  37
HETATM   37  O3  UNK     1      31.016 -17.275  33.724  1.00  0.00    -0.353 OA
HETATM   38  C29 UNK     1      29.711 -17.390  34.286  1.00  0.00     0.210 C 
ENDBRANCH  33  37
BRANCH  34  39
HETATM   39  O5  UNK     1      31.192 -18.289  31.141  1.00  0.00    -0.353 OA
HETATM   40  C30 UNK     1      29.982 -18.802  30.588  1.00  0.00     0.210 C 
ENDBRANCH  34  39
ENDBRANCH   4  31
TORSDOF 4
ENDMDL
MODEL 2
REMARK VINA RESULT:      -9.4     33.423     35.158
REMARK  4 active torsions:
REMARK  status: ('A' for Active; 'I' for Inactive)
REMARK    1  A    between atoms: C18_26  and  O3_4 
REMARK    2  A    between atoms: C21_29  and  O5_6 
REMARK    3  A    between atoms: C1_9  and  C8_16 
REMARK    4  A    between atoms: C6_14  and  C9_17 
ROOT
HETATM    1  O1  UNK     1      17.687   8.053  10.152  1.00  0.00    -0.293 OA
HETATM    2  N1  UNK     1      15.115  11.577   8.099  1.00  0.00    -0.357 N 
HETATM    3  N2  UNK     1      18.098  11.316   7.846  1.00  0.00    -0.375 N 
HETATM    4  C1  UNK     1      14.406   7.964   8.679  1.00  0.00     0.031 C 
HETATM    5  C2  UNK     1      14.106   9.465   8.676  1.00  0.00     0.067 C 
HETATM    6  C3  UNK     1      16.548   9.861   9.083  1.00  0.00     0.037 C 
HETATM    7  C4  UNK     1      15.373   7.649   9.812  1.00  0.00     0.093 C 
HETATM    8  C5  UNK     1      15.363  10.322   8.625  1.00  0.00     0.022 C 
HETATM    9  C6  UNK     1      17.821  10.668   9.116  1.00  0.00     0.160 C 
HETATM   10  C7  UNK     1      16.627   8.483   9.693  1.00  0.00     0.160 C 
HETATM   11  C10 UNK     1      15.966  12.510   7.475  1.00  0.00     0.059 A 
HETATM   12  C11 UNK     1      17.351  12.349   7.300  1.00  0.00     0.055 A 
HETATM   13  C16 UNK     1      15.347  13.664   6.940  1.00  0.00     0.032 A 
HETATM   14  C17 UNK     1      18.053  13.324   6.554  1.00  0.00     0.031 A 
HETATM   15  C22 UNK     1      16.063  14.622   6.224  1.00  0.00     0.002 A 
HETATM   16  C23 UNK     1      17.422  14.445   6.023  1.00  0.00     0.002 A 
HETATM   17  H7  UNK     1      14.130  11.822   8.059  1.00  0.00     0.166 HD
HETATM   18  H8  UNK     1      19.048  11.218   7.497  1.00  0.00     0.160 HD
ENDROOT
BRANCH   9  19
HETATM   19  C9  UNK     1      17.859  11.658  10.243  1.00  0.00     0.042 A 
HETATM   20  C14 UNK     1      19.163  12.267  10.609  1.00  0.00     0.195 A 
HETATM   21  O4  UNK     1      20.199  11.987  10.021  1.00  0.00    -0.287 OA
HETATM   22  C20 UNK     1      19.144  13.233  11.722  1.00  0.00     0.050 A 
HETATM   23  C24 UNK     1      17.933  13.515  12.355  1.00  0.00     0.089 A 
HETATM   24  C25 UNK     1      20.320  13.860  12.141  1.00  0.00     0.042 A 
HETATM   25  O2  UNK     1      16.749  12.929  11.984  1.00  0.00    -0.321 OA
HETATM   26  C26 UNK     1      17.892  14.426  13.410  1.00  0.00     0.040 A 
HETATM   27  C15 UNK     1      16.782  12.031  10.946  1.00  0.00     0.156 A 
HETATM   28  C28 UNK     1      19.065  15.054  13.831  1.00  0.00     0.026 A 
HETATM   29  C27 UNK     1      20.275  14.771  13.197  1.00  0.00     0.035 A 
HETATM   30 Cl1  UNK     1      21.719  15.550  13.721  1.00  0.00    -0.084 Cl
ENDBRANCH   9  19
BRANCH   4  31
HETATM   31  C8  UNK     1      13.142   7.127   8.754  1.00  0.00    -0.050 A 
HETATM   32  C12 UNK     1      12.092   7.376   7.873  1.00  0.00     0.047 A 
HETATM   33  C18 UNK     1      10.930   6.607   7.942  1.00  0.00     0.102 A 
HETATM   34  C21 UNK     1      10.820   5.592   8.893  1.00  0.00     0.101 A 
HETATM   35  C19 UNK     1      11.874   5.346   9.774  1.00  0.00     0.040 A 
HETATM   36  C13 UNK     1      13.036   6.114   9.704  1.00  0.00     0.010 A 
BRANCH  33  37
HETATM   37  O3  UNK     1       9.909   6.857   7.076  1.00  0.00    -0.353 OA
HETATM   38  C29 UNK     1       9.968   6.218   5.802  1.00  0.00     0.210 C 
ENDBRANCH  33  37
BRANCH  34  39
HETATM   39  O5  UNK     1       9.692   4.835   8.971  1.00  0.00    -0.353 OA
HETATM   40  C30 UNK     1       9.420   4.205  10.221  1.00  0.00     0.210 C 
ENDBRANCH  34  39
ENDBRANCH   4  31
TORSDOF 4
ENDMDL
MODEL 3
REMARK VINA RESULT:      -9.3      0.609      1.540
REMARK  4 active torsions:
REMARK  status: ('A' for Active; 'I' for Inactive)
REMARK    1  A    between atoms: C18_26  and  O3_4 
REMARK    2  A    between atoms: C21_29  and  O5_6 
REMARK    3  A    between atoms: C1_9  and  C8_16 
REMARK    4  A    between atoms: C6_14  and  C9_17 
ROOT
HETATM    1  O1  UNK     1      33.129 -10.353  34.195  1.00  0.00    -0.293 OA
HETATM    2  N1  UNK     1      28.955  -9.887  31.827  1.00  0.00    -0.357 N 
HETATM    3  N2  UNK     1      30.935  -7.655  32.185  1.00  0.00    -0.375 N 
HETATM    4  C1  UNK     1      31.402 -12.688  32.072  1.00  0.00     0.031 C 
HETATM    5  C2  UNK     1      30.017 -12.036  32.080  1.00  0.00     0.067 C 
HETATM    6  C3  UNK     1      31.094  -9.969  33.002  1.00  0.00     0.037 C 
HETATM    7  C4  UNK     1      32.126 -12.337  33.364  1.00  0.00     0.093 C 
HETATM    8  C5  UNK     1      30.067 -10.536  32.332  1.00  0.00     0.022 C 
HETATM    9  C6  UNK     1      31.187  -8.502  33.337  1.00  0.00     0.160 C 
HETATM   10  C7  UNK     1      32.200 -10.840  33.548  1.00  0.00     0.160 C 
HETATM   11  C10 UNK     1      28.754  -8.547  31.439  1.00  0.00     0.059 A 
HETATM   12  C11 UNK     1      29.710  -7.523  31.547  1.00  0.00     0.055 A 
HETATM   13  C16 UNK     1      27.506  -8.247  30.843  1.00  0.00     0.032 A 
HETATM   14  C17 UNK     1      29.399  -6.252  31.011  1.00  0.00     0.031 A 
HETATM   15  C22 UNK     1      27.214  -6.981  30.339  1.00  0.00     0.002 A 
HETATM   16  C23 UNK     1      28.170  -5.981  30.415  1.00  0.00     0.002 A 
HETATM   17  H7  UNK     1      28.184 -10.506  31.595  1.00  0.00     0.166 HD
HETATM   18  H8  UNK     1      31.600  -6.900  32.036  1.00  0.00     0.160 HD
ENDROOT
BRANCH   9  19
HETATM   19  C9  UNK     1      30.316  -8.108  34.494  1.00  0.00     0.042 A 
HETATM   20  C14 UNK     1      30.670  -6.890  35.266  1.00  0.00     0.195 A 
HETATM   21  O4  UNK     1      31.642  -6.202  34.986  1.00  0.00    -0.287 OA
HETATM   22  C20 UNK     1      29.781  -6.548  36.392  1.00  0.00     0.050 A 
HETATM   23  C24 UNK     1      28.685  -7.368  36.663  1.00  0.00     0.089 A 
HETATM   24  C25 UNK     1      30.028  -5.420  37.177  1.00  0.00     0.042 A 
HETATM   25  O2  UNK     1      28.394  -8.487  35.924  1.00  0.00    -0.321 OA
HETATM   26  C26 UNK     1      27.831  -7.064  37.724  1.00  0.00     0.040 A 
HETATM   27  C15 UNK     1      29.231  -8.793  34.879  1.00  0.00     0.156 A 
HETATM   28  C28 UNK     1      28.076  -5.938  38.510  1.00  0.00     0.026 A 
HETATM   29  C27 UNK     1      29.172  -5.119  38.237  1.00  0.00     0.035 A 
HETATM   30 Cl1  UNK     1      29.468  -3.730  39.212  1.00  0.00    -0.084 Cl
ENDBRANCH   9  19
BRANCH   4  31
HETATM   31  C8  UNK     1      31.329 -14.186  31.843  1.00  0.00    -0.050 A 
HETATM   32  C12 UNK     1      31.454 -14.698  30.553  1.00  0.00     0.047 A 
HETATM   33  C18 UNK     1      31.386 -16.075  30.341  1.00  0.00     0.102 A 
HETATM   34  C21 UNK     1      31.194 -16.937  31.421  1.00  0.00     0.101 A 
HETATM   35  C19 UNK     1      31.070 -16.422  32.711  1.00  0.00     0.040 A 
HETATM   36  C13 UNK     1      31.138 -15.045  32.922  1.00  0.00     0.010 A 
BRANCH  33  37
HETATM   37  O3  UNK     1      31.509 -16.565  29.077  1.00  0.00    -0.353 OA
HETATM   38  C29 UNK     1      32.830 -16.675  28.550  1.00  0.00     0.210 C 
ENDBRANCH  33  37
BRANCH  34  39
HETATM   39  O5  UNK     1      31.126 -18.284  31.229  1.00  0.00    -0.353 OA
HETATM   40  C30 UNK     1      29.946 -18.944  31.682  1.00  0.00     0.210 C 
ENDBRANCH  34  39
ENDBRANCH   4  31
TORSDOF 4
ENDMDL
MODEL 4
REMARK VINA RESULT:      -9.2     33.372     35.357
REMARK  4 active torsions:
REMARK  status: ('A' for Active; 'I' for Inactive)
REMARK    1  A    between atoms: C18_26  and  O3_4 
REMARK    2  A    between atoms: C21_29  and  O5_6 
REMARK    3  A    between atoms: C1_9  and  C8_16 
REMARK    4  A    between atoms: C6_14  and  C9_17 
ROOT
HETATM    1  O1  UNK     1      17.519   8.096  10.192  1.00  0.00    -0.293 OA
HETATM    2  N1  UNK     1      15.988  12.063   7.920  1.00  0.00    -0.357 N 
HETATM    3  N2  UNK     1      18.818  11.058   7.811  1.00  0.00    -0.375 N 
HETATM    4  C1  UNK     1      14.376   8.766   8.575  1.00  0.00     0.031 C 
HETATM    5  C2  UNK     1      14.462  10.294   8.513  1.00  0.00     0.067 C 
HETATM    6  C3  UNK     1      16.908  10.086   9.019  1.00  0.00     0.037 C 
HETATM    7  C4  UNK     1      15.191   8.267   9.759  1.00  0.00     0.093 C 
HETATM    8  C5  UNK     1      15.894  10.808   8.494  1.00  0.00     0.022 C 
HETATM    9  C6  UNK     1      18.341  10.551   9.086  1.00  0.00     0.160 C 
HETATM   10  C7  UNK     1      16.618   8.757   9.673  1.00  0.00     0.160 C 
HETATM   11  C10 UNK     1      17.068  12.729   7.307  1.00  0.00     0.059 A 
HETATM   12  C11 UNK     1      18.374  12.222   7.200  1.00  0.00     0.055 A 
HETATM   13  C16 UNK     1      16.777  13.979   6.710  1.00  0.00     0.032 A 
HETATM   14  C17 UNK     1      19.324  12.960   6.459  1.00  0.00     0.031 A 
HETATM   15  C22 UNK     1      17.736  14.698   6.000  1.00  0.00     0.002 A 
HETATM   16  C23 UNK     1      19.014  14.181   5.866  1.00  0.00     0.002 A 
HETATM   17  H7  UNK     1      15.098  12.543   7.827  1.00  0.00     0.166 HD
HETATM   18  H8  UNK     1      19.725  10.712   7.508  1.00  0.00     0.160 HD
ENDROOT
BRANCH   9  19
HETATM   19  C9  UNK     1      18.584  11.546  10.183  1.00  0.00     0.042 A 
HETATM   20  C14 UNK     1      19.981  11.964  10.464  1.00  0.00     0.195 A 
HETATM   21  O4  UNK     1      20.931  11.526   9.830  1.00  0.00    -0.287 OA
HETATM   22  C20 UNK     1      20.164  12.943  11.552  1.00  0.00     0.050 A 
HETATM   23  C24 UNK     1      19.043  13.409  12.239  1.00  0.00     0.089 A 
HETATM   24  C25 UNK     1      21.439  13.400  11.892  1.00  0.00     0.042 A 
HETATM   25  O2  UNK     1      17.768  12.996  11.947  1.00  0.00    -0.321 OA
HETATM   26  C26 UNK     1      19.192  14.336  13.272  1.00  0.00     0.040 A 
HETATM   27  C15 UNK     1      17.613  12.084  10.932  1.00  0.00     0.156 A 
HETATM   28  C28 UNK     1      20.465  14.794  13.613  1.00  0.00     0.026 A 
HETATM   29  C27 UNK     1      21.585  14.326  12.925  1.00  0.00     0.035 A 
HETATM   30 Cl1  UNK     1      23.153  14.896  13.352  1.00  0.00    -0.084 Cl
ENDBRANCH   9  19
BRANCH   4  31
HETATM   31  C8  UNK     1      12.941   8.274   8.617  1.00  0.00    -0.050 A 
HETATM   32  C12 UNK     1      12.554   7.195   7.826  1.00  0.00     0.047 A 
HETATM   33  C18 UNK     1      11.235   6.743   7.864  1.00  0.00     0.102 A 
HETATM   34  C21 UNK     1      10.306   7.371   8.693  1.00  0.00     0.101 A 
HETATM   35  C19 UNK     1      10.697   8.451   9.485  1.00  0.00     0.040 A 
HETATM   36  C13 UNK     1      12.016   8.903   9.446  1.00  0.00     0.010 A 
BRANCH  33  37
HETATM   37  O3  UNK     1      10.867   5.686   7.087  1.00  0.00    -0.353 OA
HETATM   38  C29 UNK     1      10.306   5.985   5.810  1.00  0.00     0.210 C 
ENDBRANCH  33  37
BRANCH  34  39
HETATM   39  O5  UNK     1       9.015   6.939   8.740  1.00  0.00    -0.353 OA
HETATM   40  C30 UNK     1       8.037   7.873   9.194  1.00  0.00     0.210 C 
ENDBRANCH  34  39
ENDBRANCH   4  31
TORSDOF 4
ENDMDL
MODEL 5
REMARK VINA RESULT:      -8.8      1.600      2.270
REMARK  4 active torsions:
REMARK  status: ('A' for Active; 'I' for Inactive)
REMARK    1  A    between atoms: C18_26  and  O3_4 
REMARK    2  A    between atoms: C21_29  and  O5_6 
REMARK    3  A    between atoms: C1_9  and  C8_16 
REMARK    4  A    between atoms: C6_14  and  C9_17 
ROOT
HETATM    1  O1  UNK     1      34.154 -11.313  33.012  1.00  0.00    -0.293 OA
HETATM    2  N1  UNK     1      29.554 -10.527  31.801  1.00  0.00    -0.357 N 
HETATM    3  N2  UNK     1      31.808  -8.660  31.117  1.00  0.00    -0.375 N 
HETATM    4  C1  UNK     1      31.602 -13.635  31.995  1.00  0.00     0.031 C 
HETATM    5  C2  UNK     1      30.372 -12.754  32.228  1.00  0.00     0.067 C 
HETATM    6  C3  UNK     1      31.919 -10.785  32.351  1.00  0.00     0.037 C 
HETATM    7  C4  UNK     1      32.715 -13.199  32.937  1.00  0.00     0.093 C 
HETATM    8  C5  UNK     1      30.678 -11.267  32.121  1.00  0.00     0.022 C 
HETATM    9  C6  UNK     1      32.287  -9.323  32.318  1.00  0.00     0.160 C 
HETATM   10  C7  UNK     1      33.023 -11.731  32.760  1.00  0.00     0.160 C 
HETATM   11  C10 UNK     1      29.412  -9.263  31.195  1.00  0.00     0.059 A 
HETATM   12  C11 UNK     1      30.474  -8.425  30.816  1.00  0.00     0.055 A 
HETATM   13  C16 UNK     1      28.090  -8.852  30.903  1.00  0.00     0.032 A 
HETATM   14  C17 UNK     1      30.175  -7.233  30.117  1.00  0.00     0.031 A 
HETATM   15  C22 UNK     1      27.818  -7.663  30.229  1.00  0.00     0.002 A 
HETATM   16  C23 UNK     1      28.867  -6.855  29.826  1.00  0.00     0.002 A 
HETATM   17  H7  UNK     1      28.679 -11.028  31.926  1.00  0.00     0.166 HD
HETATM   18  H8  UNK     1      32.485  -8.076  30.634  1.00  0.00     0.160 HD
ENDROOT
BRANCH   9  19
HETATM   19  C9  UNK     1      31.854  -8.582  33.549  1.00  0.00     0.042 A 
HETATM   20  C14 UNK     1      32.230  -7.151  33.684  1.00  0.00     0.195 A 
HETATM   21  O4  UNK     1      32.876  -6.565  32.826  1.00  0.00    -0.287 OA
HETATM   22  C20 UNK     1      31.781  -6.470  34.912  1.00  0.00     0.050 A 
HETATM   23  C24 UNK     1      31.046  -7.189  35.855  1.00  0.00     0.089 A 
HETATM   24  C25 UNK     1      32.083  -5.125  35.132  1.00  0.00     0.042 A 
HETATM   25  O2  UNK     1      30.719  -8.512  35.691  1.00  0.00    -0.321 OA
HETATM   26  C26 UNK     1      30.609  -6.565  37.024  1.00  0.00     0.040 A 
HETATM   27  C15 UNK     1      31.145  -9.133  34.543  1.00  0.00     0.156 A 
HETATM   28  C28 UNK     1      30.911  -5.220  37.246  1.00  0.00     0.026 A 
HETATM   29  C27 UNK     1      31.646  -4.503  36.302  1.00  0.00     0.035 A 
HETATM   30 Cl1  UNK     1      32.013  -2.844  36.582  1.00  0.00    -0.084 Cl
ENDBRANCH   9  19
BRANCH   4  31
HETATM   31  C8  UNK     1      31.282 -15.113  32.129  1.00  0.00    -0.050 A 
HETATM   32  C12 UNK     1      31.485 -15.968  31.048  1.00  0.00     0.047 A 
HETATM   33  C18 UNK     1      31.190 -17.326  31.171  1.00  0.00     0.102 A 
HETATM   34  C21 UNK     1      30.693 -17.825  32.375  1.00  0.00     0.101 A 
HETATM   35  C19 UNK     1      30.491 -16.966  33.456  1.00  0.00     0.040 A 
HETATM   36  C13 UNK     1      30.786 -15.608  33.333  1.00  0.00     0.010 A 
BRANCH  33  37
HETATM   37  O3  UNK     1      31.393 -18.154  30.109  1.00  0.00    -0.353 OA
HETATM   38  C29 UNK     1      30.881 -17.728  28.848  1.00  0.00     0.210 C 
ENDBRANCH  33  37
BRANCH  34  39
HETATM   39  O5  UNK     1      30.402 -19.149  32.509  1.00  0.00    -0.353 OA
HETATM   40  C30 UNK     1      29.025 -19.517  32.454  1.00  0.00     0.210 C 
ENDBRANCH  34  39
ENDBRANCH   4  31
TORSDOF 4
ENDMDL
MODEL 6
REMARK VINA RESULT:      -8.7      4.969      7.578
REMARK  4 active torsions:
REMARK  status: ('A' for Active; 'I' for Inactive)
REMARK    1  A    between atoms: C18_26  and  O3_4 
REMARK    2  A    between atoms: C21_29  and  O5_6 
REMARK    3  A    between atoms: C1_9  and  C8_16 
REMARK    4  A    between atoms: C6_14  and  C9_17 
ROOT
HETATM    1  O1  UNK     1      33.265 -12.303  31.025  1.00  0.00    -0.293 OA
HETATM    2  N1  UNK     1      34.009  -9.095  34.547  1.00  0.00    -0.357 N 
HETATM    3  N2  UNK     1      31.554 -10.816  34.341  1.00  0.00    -0.375 N 
HETATM    4  C1  UNK     1      36.307 -11.389  32.714  1.00  0.00     0.031 C 
HETATM    5  C2  UNK     1      35.849 -10.061  33.325  1.00  0.00     0.067 C 
HETATM    6  C3  UNK     1      33.491 -10.749  32.826  1.00  0.00     0.037 C 
HETATM    7  C4  UNK     1      35.509 -11.656  31.446  1.00  0.00     0.093 C 
HETATM    8  C5  UNK     1      34.346 -10.000  33.557  1.00  0.00     0.022 C 
HETATM    9  C6  UNK     1      31.989 -10.703  32.960  1.00  0.00     0.160 C 
HETATM   10  C7  UNK     1      34.026 -11.639  31.731  1.00  0.00     0.160 C 
HETATM   11  C10 UNK     1      32.876  -9.005  35.379  1.00  0.00     0.059 A 
HETATM   12  C11 UNK     1      31.761  -9.856  35.321  1.00  0.00     0.055 A 
HETATM   13  C16 UNK     1      32.913  -8.006  36.382  1.00  0.00     0.032 A 
HETATM   14  C17 UNK     1      30.749  -9.709  36.298  1.00  0.00     0.031 A 
HETATM   15  C22 UNK     1      31.894  -7.867  37.323  1.00  0.00     0.002 A 
HETATM   16  C23 UNK     1      30.812  -8.730  37.286  1.00  0.00     0.002 A 
HETATM   17  H7  UNK     1      34.755  -8.450  34.790  1.00  0.00     0.166 HD
HETATM   18  H8  UNK     1      30.804 -11.479  34.515  1.00  0.00     0.160 HD
ENDROOT
BRANCH   9  19
HETATM   19  C9  UNK     1      31.379  -9.501  32.301  1.00  0.00     0.042 A 
HETATM   20  C14 UNK     1      29.901  -9.441  32.166  1.00  0.00     0.195 A 
HETATM   21  O4  UNK     1      29.173 -10.335  32.575  1.00  0.00    -0.287 OA
HETATM   22  C20 UNK     1      29.353  -8.238  31.511  1.00  0.00     0.050 A 
HETATM   23  C24 UNK     1      30.231  -7.249  31.066  1.00  0.00     0.089 A 
HETATM   24  C25 UNK     1      27.976  -8.087  31.338  1.00  0.00     0.042 A 
HETATM   25  O2  UNK     1      31.592  -7.345  31.211  1.00  0.00    -0.321 OA
HETATM   26  C26 UNK     1      29.734  -6.103  30.444  1.00  0.00     0.040 A 
HETATM   27  C15 UNK     1      32.087  -8.471  31.822  1.00  0.00     0.156 A 
HETATM   28  C28 UNK     1      28.359  -5.950  30.269  1.00  0.00     0.026 A 
HETATM   29  C27 UNK     1      27.482  -6.940  30.715  1.00  0.00     0.035 A 
HETATM   30 Cl1  UNK     1      25.785  -6.744  30.497  1.00  0.00    -0.084 Cl
ENDBRANCH   9  19
BRANCH   4  31
HETATM   31  C8  UNK     1      37.804 -11.421  32.469  1.00  0.00    -0.050 A 
HETATM   32  C12 UNK     1      38.310 -11.067  31.220  1.00  0.00     0.047 A 
HETATM   33  C18 UNK     1      39.686 -11.097  30.994  1.00  0.00     0.102 A 
HETATM   34  C21 UNK     1      40.553 -11.481  32.017  1.00  0.00     0.101 A 
HETATM   35  C19 UNK     1      40.043 -11.834  33.267  1.00  0.00     0.040 A 
HETATM   36  C13 UNK     1      38.667 -11.804  33.493  1.00  0.00     0.010 A 
BRANCH  33  37
HETATM   37  O3  UNK     1      40.171 -10.749  29.770  1.00  0.00    -0.353 OA
HETATM   38  C29 UNK     1      40.140 -11.748  28.752  1.00  0.00     0.210 C 
ENDBRANCH  33  37
BRANCH  34  39
HETATM   39  O5  UNK     1      41.899 -11.514  31.810  1.00  0.00    -0.353 OA
HETATM   40  C30 UNK     1      42.724 -10.943  32.823  1.00  0.00     0.210 C 
ENDBRANCH  34  39
ENDBRANCH   4  31
TORSDOF 4
ENDMDL
MODEL 7
REMARK VINA RESULT:      -8.6      1.634      2.223
REMARK  4 active torsions:
REMARK  status: ('A' for Active; 'I' for Inactive)
REMARK    1  A    between atoms: C18_26  and  O3_4 
REMARK    2  A    between atoms: C21_29  and  O5_6 
REMARK    3  A    between atoms: C1_9  and  C8_16 
REMARK    4  A    between atoms: C6_14  and  C9_17 
ROOT
HETATM    1  O1  UNK     1      33.905 -10.086  32.831  1.00  0.00    -0.293 OA
HETATM    2  N1  UNK     1      29.363 -10.079  31.214  1.00  0.00    -0.357 N 
HETATM    3  N2  UNK     1      31.046  -7.604  31.490  1.00  0.00    -0.375 N 
HETATM    4  C1  UNK     1      32.180 -12.479  30.771  1.00  0.00     0.031 C 
HETATM    5  C2  UNK     1      30.740 -12.052  31.067  1.00  0.00     0.067 C 
HETATM    6  C3  UNK     1      31.662  -9.925  32.021  1.00  0.00     0.037 C 
HETATM    7  C4  UNK     1      33.060 -12.127  31.963  1.00  0.00     0.093 C 
HETATM    8  C5  UNK     1      30.624 -10.587  31.465  1.00  0.00     0.022 C 
HETATM    9  C6  UNK     1      31.608  -8.494  32.491  1.00  0.00     0.160 C 
HETATM   10  C7  UNK     1      32.956 -10.656  32.291  1.00  0.00     0.160 C 
HETATM   11  C10 UNK     1      28.915  -8.759  31.006  1.00  0.00     0.059 A 
HETATM   12  C11 UNK     1      29.724  -7.612  31.070  1.00  0.00     0.055 A 
HETATM   13  C16 UNK     1      27.554  -8.607  30.651  1.00  0.00     0.032 A 
HETATM   14  C17 UNK     1      29.153  -6.365  30.728  1.00  0.00     0.031 A 
HETATM   15  C22 UNK     1      27.007  -7.364  30.336  1.00  0.00     0.002 A 
HETATM   16  C23 UNK     1      27.814  -6.239  30.366  1.00  0.00     0.002 A 
HETATM   17  H7  UNK     1      28.657 -10.788  31.042  1.00  0.00     0.166 HD
HETATM   18  H8  UNK     1      31.565  -6.747  31.319  1.00  0.00     0.160 HD
ENDROOT
BRANCH   9  19
HETATM   19  C9  UNK     1      30.902  -8.335  33.806  1.00  0.00     0.042 A 
HETATM   20  C14 UNK     1      30.904  -6.999  34.455  1.00  0.00     0.195 A 
HETATM   21  O4  UNK     1      31.459  -6.032  33.951  1.00  0.00    -0.287 OA
HETATM   22  C20 UNK     1      30.197  -6.897  35.745  1.00  0.00     0.050 A 
HETATM   23  C24 UNK     1      29.581  -8.033  36.271  1.00  0.00     0.089 A 
HETATM   24  C25 UNK     1      30.140  -5.684  36.433  1.00  0.00     0.042 A 
HETATM   25  O2  UNK     1      29.603  -9.251  35.638  1.00  0.00    -0.321 OA
HETATM   26  C26 UNK     1      28.905  -7.960  37.490  1.00  0.00     0.040 A 
HETATM   27  C15 UNK     1      30.266  -9.330  34.438  1.00  0.00     0.156 A 
HETATM   28  C28 UNK     1      28.848  -6.749  38.179  1.00  0.00     0.026 A 
HETATM   29  C27 UNK     1      29.465  -5.614  37.652  1.00  0.00     0.035 A 
HETATM   30 Cl1  UNK     1      29.390  -4.121  38.508  1.00  0.00    -0.084 Cl
ENDBRANCH   9  19
BRANCH   4  31
HETATM   31  C8  UNK     1      32.277 -13.947  30.399  1.00  0.00    -0.050 A 
HETATM   32  C12 UNK     1      33.505 -14.487  30.024  1.00  0.00     0.047 A 
HETATM   33  C18 UNK     1      33.595 -15.837  29.681  1.00  0.00     0.102 A 
HETATM   34  C21 UNK     1      32.457 -16.642  29.714  1.00  0.00     0.101 A 
HETATM   35  C19 UNK     1      31.229 -16.098  30.091  1.00  0.00     0.040 A 
HETATM   36  C13 UNK     1      31.139 -14.749  30.434  1.00  0.00     0.010 A 
BRANCH  33  37
HETATM   37  O3  UNK     1      34.800 -16.356  29.315  1.00  0.00    -0.353 OA
HETATM   38  C29 UNK     1      35.279 -16.029  28.012  1.00  0.00     0.210 C 
ENDBRANCH  33  37
BRANCH  34  39
HETATM   39  O5  UNK     1      32.530 -17.961  29.382  1.00  0.00    -0.353 OA
HETATM   40  C30 UNK     1      32.146 -18.317  28.056  1.00  0.00     0.210 C 
ENDBRANCH  34  39
ENDBRANCH   4  31
TORSDOF 4
ENDMDL
MODEL 8
REMARK VINA RESULT:      -8.4      4.177      8.420
REMARK  4 active torsions:
REMARK  status: ('A' for Active; 'I' for Inactive)
REMARK    1  A    between atoms: C18_26  and  O3_4 
REMARK    2  A    between atoms: C21_29  and  O5_6 
REMARK    3  A    between atoms: C1_9  and  C8_16 
REMARK    4  A    between atoms: C6_14  and  C9_17 
ROOT
HETATM    1  O1  UNK     1      29.242 -10.005  38.792  1.00  0.00    -0.293 OA
HETATM    2  N1  UNK     1      28.176  -8.470  34.348  1.00  0.00    -0.357 N 
HETATM    3  N2  UNK     1      30.268 -10.543  34.946  1.00  0.00    -0.375 N 
HETATM    4  C1  UNK     1      26.071  -9.088  37.361  1.00  0.00     0.031 C 
HETATM    5  C2  UNK     1      26.577  -8.309  36.144  1.00  0.00     0.067 C 
HETATM    6  C3  UNK     1      28.830  -9.336  36.535  1.00  0.00     0.037 C 
HETATM    7  C4  UNK     1      27.111  -9.011  38.470  1.00  0.00     0.093 C 
HETATM    8  C5  UNK     1      27.956  -8.757  35.683  1.00  0.00     0.022 C 
HETATM    9  C6  UNK     1      30.230  -9.757  36.167  1.00  0.00     0.160 C 
HETATM   10  C7  UNK     1      28.451  -9.513  37.986  1.00  0.00     0.160 C 
HETATM   11  C10 UNK     1      29.054  -9.040  33.405  1.00  0.00     0.059 A 
HETATM   12  C11 UNK     1      29.983 -10.058  33.678  1.00  0.00     0.055 A 
HETATM   13  C16 UNK     1      28.932  -8.577  32.073  1.00  0.00     0.032 A 
HETATM   14  C17 UNK     1      30.719 -10.606  32.602  1.00  0.00     0.031 A 
HETATM   15  C22 UNK     1      29.682  -9.119  31.031  1.00  0.00     0.002 A 
HETATM   16  C23 UNK     1      30.572 -10.146  31.296  1.00  0.00     0.002 A 
HETATM   17  H7  UNK     1      27.516  -7.808  33.952  1.00  0.00     0.166 HD
HETATM   18  H8  UNK     1      30.822 -11.394  34.986  1.00  0.00     0.160 HD
ENDROOT
BRANCH   9  19
HETATM   19  C9  UNK     1      31.187  -8.603  36.093  1.00  0.00     0.042 A 
HETATM   20  C14 UNK     1      32.568  -8.858  35.607  1.00  0.00     0.195 A 
HETATM   21  O4  UNK     1      32.943  -9.972  35.267  1.00  0.00    -0.287 OA
HETATM   22  C20 UNK     1      33.467  -7.691  35.554  1.00  0.00     0.050 A 
HETATM   23  C24 UNK     1      32.985  -6.444  35.953  1.00  0.00     0.089 A 
HETATM   24  C25 UNK     1      34.785  -7.826  35.110  1.00  0.00     0.042 A 
HETATM   25  O2  UNK     1      31.700  -6.252  36.396  1.00  0.00    -0.321 OA
HETATM   26  C26 UNK     1      33.818  -5.326  35.910  1.00  0.00     0.040 A 
HETATM   27  C15 UNK     1      30.874  -7.348  36.440  1.00  0.00     0.156 A 
HETATM   28  C28 UNK     1      35.135  -5.459  35.467  1.00  0.00     0.026 A 
HETATM   29  C27 UNK     1      35.616  -6.707  35.069  1.00  0.00     0.035 A 
HETATM   30 Cl1  UNK     1      37.242  -6.863  34.523  1.00  0.00    -0.084 Cl
ENDBRANCH   9  19
BRANCH   4  31
HETATM   31  C8  UNK     1      24.706  -8.611  37.820  1.00  0.00    -0.050 A 
HETATM   32  C12 UNK     1      23.569  -8.961  37.095  1.00  0.00     0.047 A 
HETATM   33  C18 UNK     1      22.313  -8.522  37.516  1.00  0.00     0.102 A 
HETATM   34  C21 UNK     1      22.198  -7.734  38.661  1.00  0.00     0.101 A 
HETATM   35  C19 UNK     1      23.338  -7.386  39.385  1.00  0.00     0.040 A 
HETATM   36  C13 UNK     1      24.594  -7.825  38.964  1.00  0.00     0.010 A 
BRANCH  33  37
HETATM   37  O3  UNK     1      21.208  -8.870  36.801  1.00  0.00    -0.353 OA
HETATM   38  C29 UNK     1      21.238  -8.620  35.397  1.00  0.00     0.210 C 
ENDBRANCH  33  37
BRANCH  34  39
HETATM   39  O5  UNK     1      20.978  -7.299  39.083  1.00  0.00    -0.353 OA
HETATM   40  C30 UNK     1      20.535  -6.037  38.590  1.00  0.00     0.210 C 
ENDBRANCH  34  39
ENDBRANCH   4  31
TORSDOF 4
ENDMDL
MODEL 9
REMARK VINA RESULT:      -8.4     32.845     35.356
REMARK  4 active torsions:
REMARK  status: ('A' for Active; 'I' for Inactive)
REMARK    1  A    between atoms: C18_26  and  O3_4 
REMARK    2  A    between atoms: C21_29  and  O5_6 
REMARK    3  A    between atoms: C1_9  and  C8_16 
REMARK    4  A    between atoms: C6_14  and  C9_17 
ROOT
HETATM    1  O1  UNK     1      17.704   8.603   9.497  1.00  0.00    -0.293 OA
HETATM    2  N1  UNK     1      16.319  13.176   8.848  1.00  0.00    -0.357 N 
HETATM    3  N2  UNK     1      18.840  12.010   7.698  1.00  0.00    -0.375 N 
HETATM    4  C1  UNK     1      14.411   9.981   9.051  1.00  0.00     0.031 C 
HETATM    5  C2  UNK     1      14.722  11.446   9.365  1.00  0.00     0.067 C 
HETATM    6  C3  UNK     1      17.152  10.894   9.097  1.00  0.00     0.037 C 
HETATM    7  C4  UNK     1      15.400   9.090   9.790  1.00  0.00     0.093 C 
HETATM    8  C5  UNK     1      16.170  11.821   9.081  1.00  0.00     0.022 C 
HETATM    9  C6  UNK     1      18.613  11.196   8.879  1.00  0.00     0.160 C 
HETATM   10  C7  UNK     1      16.821   9.461   9.439  1.00  0.00     0.160 C 
HETATM   11  C10 UNK     1      17.310  13.897   8.153  1.00  0.00     0.059 A 
HETATM   12  C11 UNK     1      18.452  13.335   7.559  1.00  0.00     0.055 A 
HETATM   13  C16 UNK     1      17.086  15.287   8.004  1.00  0.00     0.032 A 
HETATM   14  C17 UNK     1      19.299  14.174   6.799  1.00  0.00     0.031 A 
HETATM   15  C22 UNK     1      17.945  16.099   7.266  1.00  0.00     0.002 A 
HETATM   16  C23 UNK     1      19.052  15.537   6.652  1.00  0.00     0.002 A 
HETATM   17  H7  UNK     1      15.522  13.736   9.135  1.00  0.00     0.166 HD
HETATM   18  H8  UNK     1      19.579  11.693   7.076  1.00  0.00     0.160 HD
ENDROOT
BRANCH   9  19
HETATM   19  C9  UNK     1      19.272  11.803  10.084  1.00  0.00     0.042 A 
HETATM   20  C14 UNK     1      20.748  11.968  10.077  1.00  0.00     0.195 A 
HETATM   21  O4  UNK     1      21.436  11.627   9.124  1.00  0.00    -0.287 OA
HETATM   22  C20 UNK     1      21.344  12.569  11.284  1.00  0.00     0.050 A 
HETATM   23  C24 UNK     1      20.510  12.939  12.339  1.00  0.00     0.089 A 
HETATM   24  C25 UNK     1      22.723  12.767  11.375  1.00  0.00     0.042 A 
HETATM   25  O2  UNK     1      19.148  12.769  12.305  1.00  0.00    -0.321 OA
HETATM   26  C26 UNK     1      21.052  13.510  13.491  1.00  0.00     0.040 A 
HETATM   27  C15 UNK     1      18.608  12.207  11.174  1.00  0.00     0.156 A 
HETATM   28  C28 UNK     1      22.430  13.709  13.584  1.00  0.00     0.026 A 
HETATM   29  C27 UNK     1      23.263  13.337  12.528  1.00  0.00     0.035 A 
HETATM   30 Cl1  UNK     1      24.963  13.586  12.649  1.00  0.00    -0.084 Cl
ENDBRANCH   9  19
BRANCH   4  31
HETATM   31  C8  UNK     1      12.970   9.621   9.363  1.00  0.00    -0.050 A 
HETATM   32  C12 UNK     1      12.365   8.549   8.709  1.00  0.00     0.047 A 
HETATM   33  C18 UNK     1      11.040   8.219   8.995  1.00  0.00     0.102 A 
HETATM   34  C21 UNK     1      10.324   8.961   9.934  1.00  0.00     0.101 A 
HETATM   35  C19 UNK     1      10.932  10.033  10.587  1.00  0.00     0.040 A 
HETATM   36  C13 UNK     1      12.257  10.363  10.301  1.00  0.00     0.010 A 
BRANCH  33  37
HETATM   37  O3  UNK     1      10.458   7.170   8.351  1.00  0.00    -0.353 OA
HETATM   38  C29 UNK     1      11.121   5.909   8.434  1.00  0.00     0.210 C 
ENDBRANCH  33  37
BRANCH  34  39
HETATM   39  O5  UNK     1       9.030   8.649  10.223  1.00  0.00    -0.353 OA
HETATM   40  C30 UNK     1       8.259   9.642  10.895  1.00  0.00     0.210 C 
ENDBRANCH  34  39
ENDBRANCH   4  31
TORSDOF 4
ENDMDL
MODEL 10
REMARK VINA RESULT:      -8.4      5.811      8.162
REMARK  4 active torsions:
REMARK  status: ('A' for Active; 'I' for Inactive)
REMARK    1  A    between atoms: C18_26  and  O3_4 
REMARK    2  A    between atoms: C21_29  and  O5_6 
REMARK    3  A    between atoms: C1_9  and  C8_16 
REMARK    4  A    between atoms: C6_14  and  C9_17 
ROOT
HETATM    1  O1  UNK     1      34.452 -12.435  32.968  1.00  0.00    -0.293 OA
HETATM    2  N1  UNK     1      35.901  -7.886  33.643  1.00  0.00    -0.357 N 
HETATM    3  N2  UNK     1      33.404  -9.045  34.850  1.00  0.00    -0.375 N 
HETATM    4  C1  UNK     1      37.771 -11.096  33.338  1.00  0.00     0.031 C 
HETATM    5  C2  UNK     1      37.466  -9.623  33.054  1.00  0.00     0.067 C 
HETATM    6  C3  UNK     1      35.039 -10.156  33.386  1.00  0.00     0.037 C 
HETATM    7  C4  UNK     1      36.752 -11.965  32.615  1.00  0.00     0.093 C 
HETATM    8  C5  UNK     1      36.031  -9.239  33.387  1.00  0.00     0.022 C 
HETATM    9  C6  UNK     1      33.588  -9.844  33.651  1.00  0.00     0.160 C 
HETATM   10  C7  UNK     1      35.345 -11.587  33.013  1.00  0.00     0.160 C 
HETATM   11  C10 UNK     1      34.939  -7.166  34.378  1.00  0.00     0.059 A 
HETATM   12  C11 UNK     1      33.809  -7.726  34.997  1.00  0.00     0.055 A 
HETATM   13  C16 UNK     1      35.181  -5.781  34.540  1.00  0.00     0.032 A 
HETATM   14  C17 UNK     1      32.993  -6.891  35.794  1.00  0.00     0.031 A 
HETATM   15  C22 UNK     1      34.352  -4.972  35.315  1.00  0.00     0.002 A 
HETATM   16  C23 UNK     1      33.258  -5.533  35.953  1.00  0.00     0.002 A 
HETATM   17  H7  UNK     1      36.695  -7.329  33.342  1.00  0.00     0.166 HD
HETATM   18  H8  UNK     1      32.681  -9.365  35.488  1.00  0.00     0.160 HD
ENDROOT
BRANCH   9  19
HETATM   19  C9  UNK     1      32.900  -9.213  32.475  1.00  0.00     0.042 A 
HETATM   20  C14 UNK     1      31.446  -8.926  32.574  1.00  0.00     0.195 A 
HETATM   21  O4  UNK     1      30.799  -9.187  33.580  1.00  0.00    -0.287 OA
HETATM   22  C20 UNK     1      30.820  -8.306  31.392  1.00  0.00     0.050 A 
HETATM   23  C24 UNK     1      31.608  -8.030  30.274  1.00  0.00     0.089 A 
HETATM   24  C25 UNK     1      29.458  -7.997  31.387  1.00  0.00     0.042 A 
HETATM   25  O2  UNK     1      32.950  -8.312  30.224  1.00  0.00    -0.321 OA
HETATM   26  C26 UNK     1      31.037  -7.443  29.144  1.00  0.00     0.040 A 
HETATM   27  C15 UNK     1      33.519  -8.889  31.333  1.00  0.00     0.156 A 
HETATM   28  C28 UNK     1      29.676  -7.134  29.137  1.00  0.00     0.026 A 
HETATM   29  C27 UNK     1      28.890  -7.411  30.256  1.00  0.00     0.035 A 
HETATM   30 Cl1  UNK     1      27.211  -7.025  30.240  1.00  0.00    -0.084 Cl
ENDBRANCH   9  19
BRANCH   4  31
HETATM   31  C8  UNK     1      39.199 -11.465  32.978  1.00  0.00    -0.050 A 
HETATM   32  C12 UNK     1      39.854 -12.472  33.683  1.00  0.00     0.047 A 
HETATM   33  C18 UNK     1      41.167 -12.810  33.354  1.00  0.00     0.102 A 
HETATM   34  C21 UNK     1      41.820 -12.141  32.319  1.00  0.00     0.101 A 
HETATM   35  C19 UNK     1      41.161 -11.134  31.614  1.00  0.00     0.040 A 
HETATM   36  C13 UNK     1      39.849 -10.795  31.944  1.00  0.00     0.010 A 
BRANCH  33  37
HETATM   37  O3  UNK     1      41.798 -13.796  34.049  1.00  0.00    -0.353 OA
HETATM   38  C29 UNK     1      42.314 -13.456  35.334  1.00  0.00     0.210 C 
ENDBRANCH  33  37
BRANCH  34  39
HETATM   39  O5  UNK     1      43.101 -12.462  31.986  1.00  0.00    -0.353 OA
HETATM   40  C30 UNK     1      44.138 -11.678  32.574  1.00  0.00     0.210 C 
ENDBRANCH  34  39
ENDBRANCH   4  31
TORSDOF 4
ENDMDL
