MODEL 1
REMARK VINA RESULT:      -8.6      0.000      0.000
REMARK  2 active torsions:
REMARK  status: ('A' for Active; 'I' for Inactive)
REMARK       I    between atoms: C10_16  and  N2_6 
REMARK    1  A    between atoms: C3_9  and  N2_6 
REMARK    2  A    between atoms: C10_16  and  C11_17 
ROOT
HETATM    1  O1  UNK     1      25.835  -9.096  39.382  1.00  0.00    -0.267 OA
HETATM    2  N2  UNK     1      24.573  -7.478  38.276  1.00  0.00    -0.352 N 
HETATM    3  C10 UNK     1      25.718  -8.001  38.843  1.00  0.00     0.258 C 
HETATM    4  H19 UNK     1      24.572  -6.526  37.922  1.00  0.00     0.163 HD
ENDROOT
BRANCH   3   5
HETATM    5  C11 UNK     1      26.870  -7.086  38.742  1.00  0.00     0.108 A 
HETATM    6  C12 UNK     1      28.065  -7.659  38.547  1.00  0.00     0.037 A 
HETATM    7  C14 UNK     1      29.262  -6.839  38.436  1.00  0.00     0.000 A 
HETATM    8  C15 UNK     1      29.142  -5.456  38.533  1.00  0.00     0.089 A 
HETATM    9  C16 UNK     1      30.527  -7.394  38.233  1.00  0.00     0.033 A 
HETATM   10  O2  UNK     1      27.882  -4.860  38.737  1.00  0.00    -0.274 OA
HETATM   11  C17 UNK     1      30.249  -4.615  38.435  1.00  0.00     0.039 A 
HETATM   12  C13 UNK     1      26.719  -5.618  38.849  1.00  0.00     0.304 A 
HETATM   13  O3  UNK     1      25.627  -5.090  39.027  1.00  0.00    -0.259 OA
HETATM   14  C19 UNK     1      31.508  -5.177  38.233  1.00  0.00     0.022 A 
HETATM   15  C18 UNK     1      31.647  -6.561  38.132  1.00  0.00     0.011 A 
HETATM   16 Br1  UNK     1      33.359  -7.317  37.857  1.00  0.00    -0.051 Br
ENDBRANCH   3   5
BRANCH   2  17
HETATM   17  C3  UNK     1      23.317  -8.190  38.251  1.00  0.00     0.089 C 
HETATM   18  C4  UNK     1      22.234  -7.393  38.977  1.00  0.00     0.066 C 
HETATM   19  C1  UNK     1      20.852  -8.075  38.924  1.00  0.00     0.153 C 
HETATM   20  N1  UNK     1      20.480  -8.475  37.553  1.00  0.00     0.101 N 
HETATM   21  C6  UNK     1      20.775  -9.258  39.906  1.00  0.00     0.048 C 
HETATM   22  C7  UNK     1      19.790  -7.048  39.385  1.00  0.00     0.048 C 
HETATM   23  C2  UNK     1      21.500  -9.151  36.728  1.00  0.00     0.153 C 
HETATM   24  H6  UNK     1      19.614  -9.012  37.561  1.00  0.00     0.317 HD
HETATM   25  C5  UNK     1      22.872  -8.452  36.812  1.00  0.00     0.066 C 
HETATM   26  C8  UNK     1      21.005  -9.066  35.264  1.00  0.00     0.048 C 
HETATM   27  C9  UNK     1      21.611 -10.648  37.068  1.00  0.00     0.048 C 
ENDBRANCH   2  17
TORSDOF 2
ENDMDL
MODEL 2
REMARK VINA RESULT:      -8.6      6.991      9.452
REMARK  2 active torsions:
REMARK  status: ('A' for Active; 'I' for Inactive)
REMARK       I    between atoms: C10_16  and  N2_6 
REMARK    1  A    between atoms: C3_9  and  N2_6 
REMARK    2  A    between atoms: C10_16  and  C11_17 
ROOT
HETATM    1  O1  UNK     1      20.129  -3.054  37.452  1.00  0.00    -0.267 OA
HETATM    2  N2  UNK     1      19.771  -4.621  35.763  1.00  0.00    -0.352 N 
HETATM    3  C10 UNK     1      19.838  -3.350  36.298  1.00  0.00     0.258 C 
HETATM    4  H19 UNK     1      19.446  -4.753  34.810  1.00  0.00     0.163 HD
ENDROOT
BRANCH   3   5
HETATM    5  C11 UNK     1      19.518  -2.301  35.312  1.00  0.00     0.108 A 
HETATM    6  C12 UNK     1      20.021  -2.471  34.083  1.00  0.00     0.037 A 
HETATM    7  C14 UNK     1      19.760  -1.488  33.042  1.00  0.00     0.000 A 
HETATM    8  C15 UNK     1      18.982  -0.376  33.345  1.00  0.00     0.089 A 
HETATM    9  C16 UNK     1      20.265  -1.625  31.746  1.00  0.00     0.033 A 
HETATM   10  O2  UNK     1      18.454  -0.204  34.641  1.00  0.00    -0.274 OA
HETATM   11  C17 UNK     1      18.695   0.601  32.394  1.00  0.00     0.039 A 
HETATM   12  C13 UNK     1      18.688  -1.126  35.658  1.00  0.00     0.304 A 
HETATM   13  O3  UNK     1      18.225  -0.967  36.782  1.00  0.00    -0.259 OA
HETATM   14  C19 UNK     1      19.203   0.457  31.105  1.00  0.00     0.022 A 
HETATM   15  C18 UNK     1      19.985  -0.652  30.781  1.00  0.00     0.011 A 
HETATM   16 Br1  UNK     1      20.670  -0.842  29.028  1.00  0.00    -0.051 Br
ENDBRANCH   3   5
BRANCH   2  17
HETATM   17  C3  UNK     1      20.045  -5.810  36.535  1.00  0.00     0.089 C 
HETATM   18  C4  UNK     1      20.429  -6.969  35.616  1.00  0.00     0.066 C 
HETATM   19  C1  UNK     1      20.800  -8.250  36.390  1.00  0.00     0.153 C 
HETATM   20  N1  UNK     1      21.779  -7.989  37.463  1.00  0.00     0.101 N 
HETATM   21  C6  UNK     1      19.543  -8.963  36.923  1.00  0.00     0.048 C 
HETATM   22  C7  UNK     1      21.479  -9.229  35.404  1.00  0.00     0.048 C 
HETATM   23  C2  UNK     1      21.556  -6.820  38.335  1.00  0.00     0.153 C 
HETATM   24  H6  UNK     1      21.928  -8.828  38.022  1.00  0.00     0.317 HD
HETATM   25  C5  UNK     1      21.176  -5.559  37.532  1.00  0.00     0.066 C 
HETATM   26  C8  UNK     1      22.899  -6.547  39.053  1.00  0.00     0.048 C 
HETATM   27  C9  UNK     1      20.522  -7.116  39.436  1.00  0.00     0.048 C 
ENDBRANCH   2  17
TORSDOF 2
ENDMDL
MODEL 3
REMARK VINA RESULT:      -8.6      7.895     10.370
REMARK  2 active torsions:
REMARK  status: ('A' for Active; 'I' for Inactive)
REMARK       I    between atoms: C10_16  and  N2_6 
REMARK    1  A    between atoms: C3_9  and  N2_6 
REMARK    2  A    between atoms: C10_16  and  C11_17 
ROOT
HETATM    1  O1  UNK     1      18.089  -2.452  37.495  1.00  0.00    -0.267 OA
HETATM    2  N2  UNK     1      19.404  -3.390  35.815  1.00  0.00    -0.352 N 
HETATM    3  C10 UNK     1      18.641  -2.401  36.402  1.00  0.00     0.258 C 
HETATM    4  H19 UNK     1      19.754  -3.267  34.869  1.00  0.00     0.163 HD
ENDROOT
BRANCH   3   5
HETATM    5  C11 UNK     1      18.535  -1.193  35.563  1.00  0.00     0.108 A 
HETATM    6  C12 UNK     1      18.853  -1.339  34.272  1.00  0.00     0.037 A 
HETATM    7  C14 UNK     1      18.780  -0.204  33.365  1.00  0.00     0.000 A 
HETATM    8  C15 UNK     1      18.373   1.030  33.862  1.00  0.00     0.089 A 
HETATM    9  C16 UNK     1      19.103  -0.311  32.010  1.00  0.00     0.033 A 
HETATM   10  O2  UNK     1      18.038   1.177  35.223  1.00  0.00    -0.274 OA
HETATM   11  C17 UNK     1      18.282   2.156  33.047  1.00  0.00     0.039 A 
HETATM   12  C13 UNK     1      18.100   0.110  36.115  1.00  0.00     0.304 A 
HETATM   13  O3  UNK     1      17.806   0.248  37.297  1.00  0.00    -0.259 OA
HETATM   14  C19 UNK     1      18.607   2.041  31.697  1.00  0.00     0.022 A 
HETATM   15  C18 UNK     1      19.016   0.811  31.180  1.00  0.00     0.011 A 
HETATM   16 Br1  UNK     1      19.455   0.661  29.346  1.00  0.00    -0.051 Br
ENDBRANCH   3   5
BRANCH   2  17
HETATM   17  C3  UNK     1      19.654  -4.665  36.447  1.00  0.00     0.089 C 
HETATM   18  C4  UNK     1      19.927  -5.740  35.396  1.00  0.00     0.066 C 
HETATM   19  C1  UNK     1      20.267  -7.111  36.016  1.00  0.00     0.153 C 
HETATM   20  N1  UNK     1      21.314  -7.009  37.052  1.00  0.00     0.101 N 
HETATM   21  C6  UNK     1      19.004  -7.813  36.545  1.00  0.00     0.048 C 
HETATM   22  C7  UNK     1      20.842  -8.015  34.900  1.00  0.00     0.048 C 
HETATM   23  C2  UNK     1      21.199  -5.927  38.048  1.00  0.00     0.153 C 
HETATM   24  H6  UNK     1      21.445  -7.907  37.515  1.00  0.00     0.317 HD
HETATM   25  C5  UNK     1      20.847  -4.573  37.398  1.00  0.00     0.066 C 
HETATM   26  C8  UNK     1      22.591  -5.794  38.712  1.00  0.00     0.048 C 
HETATM   27  C9  UNK     1      20.209  -6.284  39.171  1.00  0.00     0.048 C 
ENDBRANCH   2  17
TORSDOF 2
ENDMDL
MODEL 4
REMARK VINA RESULT:      -8.5     13.678     15.610
REMARK  2 active torsions:
REMARK  status: ('A' for Active; 'I' for Inactive)
REMARK       I    between atoms: C10_16  and  N2_6 
REMARK    1  A    between atoms: C3_9  and  N2_6 
REMARK    2  A    between atoms: C10_16  and  C11_17 
ROOT
HETATM    1  O1  UNK     1      17.548   2.799  33.344  1.00  0.00    -0.267 OA
HETATM    2  N2  UNK     1      18.517   4.441  32.003  1.00  0.00    -0.352 N 
HETATM    3  C10 UNK     1      18.193   3.148  32.361  1.00  0.00     0.258 C 
HETATM    4  H19 UNK     1      19.121   4.609  31.205  1.00  0.00     0.163 HD
ENDROOT
BRANCH   3   5
HETATM    5  C11 UNK     1      18.710   2.148  31.409  1.00  0.00     0.108 A 
HETATM    6  C12 UNK     1      19.136   0.994  31.936  1.00  0.00     0.037 A 
HETATM    7  C14 UNK     1      19.664  -0.055  31.076  1.00  0.00     0.000 A 
HETATM    8  C15 UNK     1      19.718   0.164  29.703  1.00  0.00     0.089 A 
HETATM    9  C16 UNK     1      20.119  -1.274  31.583  1.00  0.00     0.033 A 
HETATM   10  O2  UNK     1      19.268   1.381  29.154  1.00  0.00    -0.274 OA
HETATM   11  C17 UNK     1      20.213  -0.798  28.826  1.00  0.00     0.039 A 
HETATM   12  C13 UNK     1      18.758   2.403  29.952  1.00  0.00     0.304 A 
HETATM   13  O3  UNK     1      18.369   3.459  29.465  1.00  0.00    -0.259 OA
HETATM   14  C19 UNK     1      20.665  -2.012  29.339  1.00  0.00     0.022 A 
HETATM   15  C18 UNK     1      20.619  -2.250  30.714  1.00  0.00     0.011 A 
HETATM   16 Br1  UNK     1      21.233  -3.900  31.404  1.00  0.00    -0.051 Br
ENDBRANCH   3   5
BRANCH   2  17
HETATM   17  C3  UNK     1      18.118   5.591  32.780  1.00  0.00     0.089 C 
HETATM   18  C4  UNK     1      19.319   6.493  33.058  1.00  0.00     0.066 C 
HETATM   19  C1  UNK     1      18.941   7.775  33.829  1.00  0.00     0.153 C 
HETATM   20  N1  UNK     1      17.797   8.477  33.214  1.00  0.00     0.101 N 
HETATM   21  C6  UNK     1      18.696   7.478  35.320  1.00  0.00     0.048 C 
HETATM   22  C7  UNK     1      20.141   8.749  33.763  1.00  0.00     0.048 C 
HETATM   23  C2  UNK     1      16.630   7.673  32.803  1.00  0.00     0.153 C 
HETATM   24  H6  UNK     1      17.504   9.259  33.798  1.00  0.00     0.317 HD
HETATM   25  C5  UNK     1      17.043   6.394  32.047  1.00  0.00     0.066 C 
HETATM   26  C8  UNK     1      15.806   8.558  31.839  1.00  0.00     0.048 C 
HETATM   27  C9  UNK     1      15.711   7.348  33.994  1.00  0.00     0.048 C 
ENDBRANCH   2  17
TORSDOF 2
ENDMDL
MODEL 5
REMARK VINA RESULT:      -8.5     14.015     15.996
REMARK  2 active torsions:
REMARK  status: ('A' for Active; 'I' for Inactive)
REMARK       I    between atoms: C10_16  and  N2_6 
REMARK    1  A    between atoms: C3_9  and  N2_6 
REMARK    2  A    between atoms: C10_16  and  C11_17 
ROOT
HETATM    1  O1  UNK     1      17.658   3.585  33.012  1.00  0.00    -0.267 OA
HETATM    2  N2  UNK     1      18.326   5.072  31.345  1.00  0.00    -0.352 N 
HETATM    3  C10 UNK     1      18.143   3.826  31.912  1.00  0.00     0.258 C 
HETATM    4  H19 UNK     1      18.808   5.157  30.455  1.00  0.00     0.163 HD
ENDROOT
BRANCH   3   5
HETATM    5  C11 UNK     1      18.599   2.731  31.037  1.00  0.00     0.108 A 
HETATM    6  C12 UNK     1      19.022   1.619  31.651  1.00  0.00     0.037 A 
HETATM    7  C14 UNK     1      19.492   0.484  30.872  1.00  0.00     0.000 A 
HETATM    8  C15 UNK     1      19.493   0.575  29.484  1.00  0.00     0.089 A 
HETATM    9  C16 UNK     1      19.942  -0.695  31.471  1.00  0.00     0.033 A 
HETATM   10  O2  UNK     1      19.046   1.747  28.843  1.00  0.00    -0.274 OA
HETATM   11  C17 UNK     1      19.931  -0.476  28.680  1.00  0.00     0.039 A 
HETATM   12  C13 UNK     1      18.592   2.850  29.562  1.00  0.00     0.304 A 
HETATM   13  O3  UNK     1      18.205   3.866  28.995  1.00  0.00    -0.259 OA
HETATM   14  C19 UNK     1      20.378  -1.649  29.286  1.00  0.00     0.022 A 
HETATM   15  C18 UNK     1      20.384  -1.758  30.677  1.00  0.00     0.011 A 
HETATM   16 Br1  UNK     1      20.991  -3.353  31.493  1.00  0.00    -0.051 Br
ENDBRANCH   3   5
BRANCH   2  17
HETATM   17  C3  UNK     1      17.954   6.297  32.012  1.00  0.00     0.089 C 
HETATM   18  C4  UNK     1      16.471   6.277  32.381  1.00  0.00     0.066 C 
HETATM   19  C1  UNK     1      16.029   7.535  33.157  1.00  0.00     0.153 C 
HETATM   20  N1  UNK     1      16.924   7.830  34.294  1.00  0.00     0.101 N 
HETATM   21  C6  UNK     1      15.878   8.745  32.218  1.00  0.00     0.048 C 
HETATM   22  C7  UNK     1      14.631   7.263  33.759  1.00  0.00     0.048 C 
HETATM   23  C2  UNK     1      18.380   7.763  34.065  1.00  0.00     0.153 C 
HETATM   24  H6  UNK     1      16.671   8.719  34.724  1.00  0.00     0.317 HD
HETATM   25  C5  UNK     1      18.787   6.500  33.277  1.00  0.00     0.066 C 
HETATM   26  C8  UNK     1      19.039   7.691  35.463  1.00  0.00     0.048 C 
HETATM   27  C9  UNK     1      18.914   9.040  33.393  1.00  0.00     0.048 C 
ENDBRANCH   2  17
TORSDOF 2
ENDMDL
MODEL 6
REMARK VINA RESULT:      -8.4      6.399      8.771
REMARK  2 active torsions:
REMARK  status: ('A' for Active; 'I' for Inactive)
REMARK       I    between atoms: C10_16  and  N2_6 
REMARK    1  A    between atoms: C3_9  and  N2_6 
REMARK    2  A    between atoms: C10_16  and  C11_17 
ROOT
HETATM    1  O1  UNK     1      21.063  -4.052  37.659  1.00  0.00    -0.267 OA
HETATM    2  N2  UNK     1      20.292  -5.538  36.037  1.00  0.00    -0.352 N 
HETATM    3  C10 UNK     1      20.500  -4.294  36.597  1.00  0.00     0.258 C 
HETATM    4  H19 UNK     1      19.745  -5.626  35.185  1.00  0.00     0.163 HD
ENDROOT
BRANCH   3   5
HETATM    5  C11 UNK     1      19.963  -3.200  35.766  1.00  0.00     0.108 A 
HETATM    6  C12 UNK     1      20.390  -3.155  34.498  1.00  0.00     0.037 A 
HETATM    7  C14 UNK     1      19.916  -2.112  33.601  1.00  0.00     0.000 A 
HETATM    8  C15 UNK     1      19.016  -1.168  34.083  1.00  0.00     0.089 A 
HETATM    9  C16 UNK     1      20.336  -2.027  32.271  1.00  0.00     0.033 A 
HETATM   10  O2  UNK     1      18.569  -1.221  35.418  1.00  0.00    -0.274 OA
HETATM   11  C17 UNK     1      18.524  -0.143  33.276  1.00  0.00     0.039 A 
HETATM   12  C13 UNK     1      19.005  -2.206  36.300  1.00  0.00     0.304 A 
HETATM   13  O3  UNK     1      18.611  -2.244  37.461  1.00  0.00    -0.259 OA
HETATM   14  C19 UNK     1      18.948  -0.066  31.951  1.00  0.00     0.022 A 
HETATM   15  C18 UNK     1      19.851  -1.004  31.450  1.00  0.00     0.011 A 
HETATM   16 Br1  UNK     1      20.421  -0.893  29.650  1.00  0.00    -0.051 Br
ENDBRANCH   3   5
BRANCH   2  17
HETATM   17  C3  UNK     1      20.732  -6.762  36.665  1.00  0.00     0.089 C 
HETATM   18  C4  UNK     1      19.605  -7.372  37.499  1.00  0.00     0.066 C 
HETATM   19  C1  UNK     1      19.996  -8.718  38.141  1.00  0.00     0.153 C 
HETATM   20  N1  UNK     1      20.585  -9.652  37.161  1.00  0.00     0.101 N 
HETATM   21  C6  UNK     1      20.915  -8.510  39.358  1.00  0.00     0.048 C 
HETATM   22  C7  UNK     1      18.708  -9.392  38.668  1.00  0.00     0.048 C 
HETATM   23  C2  UNK     1      21.604  -9.128  36.230  1.00  0.00     0.153 C 
HETATM   24  H6  UNK     1      20.928 -10.490  37.628  1.00  0.00     0.317 HD
HETATM   25  C5  UNK     1      21.188  -7.775  35.615  1.00  0.00     0.066 C 
HETATM   26  C8  UNK     1      21.723 -10.161  35.085  1.00  0.00     0.048 C 
HETATM   27  C9  UNK     1      22.992  -9.041  36.889  1.00  0.00     0.048 C 
ENDBRANCH   2  17
TORSDOF 2
ENDMDL
MODEL 7
REMARK VINA RESULT:      -8.4      6.624      9.402
REMARK  2 active torsions:
REMARK  status: ('A' for Active; 'I' for Inactive)
REMARK       I    between atoms: C10_16  and  N2_6 
REMARK    1  A    between atoms: C3_9  and  N2_6 
REMARK    2  A    between atoms: C10_16  and  C11_17 
ROOT
HETATM    1  O1  UNK     1      21.283  -4.073  37.691  1.00  0.00    -0.267 OA
HETATM    2  N2  UNK     1      20.112  -5.486  36.254  1.00  0.00    -0.352 N 
HETATM    3  C10 UNK     1      20.500  -4.264  36.767  1.00  0.00     0.258 C 
HETATM    4  H19 UNK     1      19.398  -5.528  35.533  1.00  0.00     0.163 HD
ENDROOT
BRANCH   3   5
HETATM    5  C11 UNK     1      19.866  -3.129  36.072  1.00  0.00     0.108 A 
HETATM    6  C12 UNK     1      19.033  -2.379  36.803  1.00  0.00     0.037 A 
HETATM    7  C14 UNK     1      18.359  -1.236  36.206  1.00  0.00     0.000 A 
HETATM    8  C15 UNK     1      18.596  -0.939  34.868  1.00  0.00     0.089 A 
HETATM    9  C16 UNK     1      17.482  -0.426  36.931  1.00  0.00     0.033 A 
HETATM   10  O2  UNK     1      19.475  -1.732  34.103  1.00  0.00    -0.274 OA
HETATM   11  C17 UNK     1      17.982   0.141  34.236  1.00  0.00     0.039 A 
HETATM   12  C13 UNK     1      20.133  -2.832  34.647  1.00  0.00     0.304 A 
HETATM   13  O3  UNK     1      20.896  -3.516  33.974  1.00  0.00    -0.259 OA
HETATM   14  C19 UNK     1      17.109   0.943  34.966  1.00  0.00     0.022 A 
HETATM   15  C18 UNK     1      16.859   0.661  36.310  1.00  0.00     0.011 A 
HETATM   16 Br1  UNK     1      15.672   1.755  37.296  1.00  0.00    -0.051 Br
ENDBRANCH   3   5
BRANCH   2  17
HETATM   17  C3  UNK     1      20.602  -6.743  36.769  1.00  0.00     0.089 C 
HETATM   18  C4  UNK     1      19.509  -7.460  37.560  1.00  0.00     0.066 C 
HETATM   19  C1  UNK     1      19.955  -8.842  38.080  1.00  0.00     0.153 C 
HETATM   20  N1  UNK     1      20.561  -9.667  37.017  1.00  0.00     0.101 N 
HETATM   21  C6  UNK     1      20.883  -8.707  39.301  1.00  0.00     0.048 C 
HETATM   22  C7  UNK     1      18.698  -9.604  38.562  1.00  0.00     0.048 C 
HETATM   23  C2  UNK     1      21.548  -9.030  36.124  1.00  0.00     0.153 C 
HETATM   24  H6  UNK     1      20.939 -10.530  37.407  1.00  0.00     0.317 HD
HETATM   25  C5  UNK     1      21.078  -7.646  35.632  1.00  0.00     0.066 C 
HETATM   26  C8  UNK     1      21.686  -9.957  34.893  1.00  0.00     0.048 C 
HETATM   27  C9  UNK     1      22.941  -8.951  36.773  1.00  0.00     0.048 C 
ENDBRANCH   2  17
TORSDOF 2
ENDMDL
MODEL 8
REMARK VINA RESULT:      -8.4      7.527     10.282
REMARK  2 active torsions:
REMARK  status: ('A' for Active; 'I' for Inactive)
REMARK       I    between atoms: C10_16  and  N2_6 
REMARK    1  A    between atoms: C3_9  and  N2_6 
REMARK    2  A    between atoms: C10_16  and  C11_17 
ROOT
HETATM    1  O1  UNK     1      19.796  -2.590  37.946  1.00  0.00    -0.267 OA
HETATM    2  N2  UNK     1      18.835  -2.235  35.852  1.00  0.00    -0.352 N 
HETATM    3  C10 UNK     1      19.474  -2.975  36.827  1.00  0.00     0.258 C 
HETATM    4  H19 UNK     1      18.683  -2.636  34.931  1.00  0.00     0.163 HD
ENDROOT
BRANCH   3   5
HETATM    5  C11 UNK     1      19.756  -4.357  36.399  1.00  0.00     0.108 A 
HETATM    6  C12 UNK     1      19.525  -5.316  37.304  1.00  0.00     0.037 A 
HETATM    7  C14 UNK     1      19.774  -6.711  36.975  1.00  0.00     0.000 A 
HETATM    8  C15 UNK     1      20.253  -7.028  35.708  1.00  0.00     0.089 A 
HETATM    9  C16 UNK     1      19.547  -7.743  37.888  1.00  0.00     0.033 A 
HETATM   10  O2  UNK     1      20.493  -6.015  34.759  1.00  0.00    -0.274 OA
HETATM   11  C17 UNK     1      20.512  -8.344  35.330  1.00  0.00     0.039 A 
HETATM   12  C13 UNK     1      20.266  -4.671  35.046  1.00  0.00     0.304 A 
HETATM   13  O3  UNK     1      20.478  -3.796  34.213  1.00  0.00    -0.259 OA
HETATM   14  C19 UNK     1      20.284  -9.368  36.247  1.00  0.00     0.022 A 
HETATM   15  C18 UNK     1      19.803  -9.069  37.522  1.00  0.00     0.011 A 
HETATM   16 Br1  UNK     1      19.494 -10.463  38.762  1.00  0.00    -0.051 Br
ENDBRANCH   3   5
BRANCH   2  17
HETATM   17  C3  UNK     1      18.454  -0.855  36.040  1.00  0.00     0.089 C 
HETATM   18  C4  UNK     1      18.691  -0.054  34.760  1.00  0.00     0.066 C 
HETATM   19  C1  UNK     1      18.238   1.415  34.880  1.00  0.00     0.153 C 
HETATM   20  N1  UNK     1      16.866   1.533  35.413  1.00  0.00     0.101 N 
HETATM   21  C6  UNK     1      19.244   2.244  35.700  1.00  0.00     0.048 C 
HETATM   22  C7  UNK     1      18.212   2.029  33.461  1.00  0.00     0.048 C 
HETATM   23  C2  UNK     1      16.504   0.710  36.583  1.00  0.00     0.153 C 
HETATM   24  H6  UNK     1      16.631   2.511  35.578  1.00  0.00     0.317 HD
HETATM   25  C5  UNK     1      16.981  -0.750  36.436  1.00  0.00     0.066 C 
HETATM   26  C8  UNK     1      14.959   0.706  36.653  1.00  0.00     0.048 C 
HETATM   27  C9  UNK     1      17.003   1.333  37.898  1.00  0.00     0.048 C 
ENDBRANCH   2  17
TORSDOF 2
ENDMDL
MODEL 9
REMARK VINA RESULT:      -8.3      3.618      8.453
REMARK  2 active torsions:
REMARK  status: ('A' for Active; 'I' for Inactive)
REMARK       I    between atoms: C10_16  and  N2_6 
REMARK    1  A    between atoms: C3_9  and  N2_6 
REMARK    2  A    between atoms: C10_16  and  C11_17 
ROOT
HETATM    1  O1  UNK     1      27.632  -8.456  39.247  1.00  0.00    -0.267 OA
HETATM    2  N2  UNK     1      27.828  -6.827  37.591  1.00  0.00    -0.352 N 
HETATM    3  C10 UNK     1      27.164  -7.556  38.558  1.00  0.00     0.258 C 
HETATM    4  H19 UNK     1      27.319  -6.152  37.028  1.00  0.00     0.163 HD
ENDROOT
BRANCH   3   5
HETATM    5  C11 UNK     1      25.758  -7.143  38.716  1.00  0.00     0.108 A 
HETATM    6  C12 UNK     1      24.845  -8.121  38.672  1.00  0.00     0.037 A 
HETATM    7  C14 UNK     1      23.431  -7.812  38.817  1.00  0.00     0.000 A 
HETATM    8  C15 UNK     1      23.047  -6.488  39.003  1.00  0.00     0.089 A 
HETATM    9  C16 UNK     1      22.445  -8.801  38.777  1.00  0.00     0.033 A 
HETATM   10  O2  UNK     1      24.012  -5.462  39.050  1.00  0.00    -0.274 OA
HETATM   11  C17 UNK     1      21.709  -6.125  39.149  1.00  0.00     0.039 A 
HETATM   12  C13 UNK     1      25.372  -5.727  38.912  1.00  0.00     0.304 A 
HETATM   13  O3  UNK     1      26.205  -4.829  38.954  1.00  0.00    -0.259 OA
HETATM   14  C19 UNK     1      20.732  -7.117  39.108  1.00  0.00     0.022 A 
HETATM   15  C18 UNK     1      21.098  -8.451  38.922  1.00  0.00     0.011 A 
HETATM   16 Br1  UNK     1      19.767  -9.793  38.868  1.00  0.00    -0.051 Br
ENDBRANCH   3   5
BRANCH   2  17
HETATM   17  C3  UNK     1      29.216  -7.048  37.259  1.00  0.00     0.089 C 
HETATM   18  C4  UNK     1      29.480  -6.692  35.797  1.00  0.00     0.066 C 
HETATM   19  C1  UNK     1      30.963  -6.846  35.402  1.00  0.00     0.153 C 
HETATM   20  N1  UNK     1      31.865  -6.168  36.353  1.00  0.00     0.101 N 
HETATM   21  C6  UNK     1      31.340  -8.326  35.210  1.00  0.00     0.048 C 
HETATM   22  C7  UNK     1      31.171  -6.155  34.033  1.00  0.00     0.048 C 
HETATM   23  C2  UNK     1      31.620  -6.358  37.796  1.00  0.00     0.153 C 
HETATM   24  H6  UNK     1      32.838  -6.370  36.127  1.00  0.00     0.317 HD
HETATM   25  C5  UNK     1      30.127  -6.210  38.156  1.00  0.00     0.066 C 
HETATM   26  C8  UNK     1      32.403  -5.240  38.524  1.00  0.00     0.048 C 
HETATM   27  C9  UNK     1      32.189  -7.695  38.303  1.00  0.00     0.048 C 
ENDBRANCH   2  17
TORSDOF 2
ENDMDL
MODEL 10
REMARK VINA RESULT:      -8.1      6.679      9.578
REMARK  2 active torsions:
REMARK  status: ('A' for Active; 'I' for Inactive)
REMARK       I    between atoms: C10_16  and  N2_6 
REMARK    1  A    between atoms: C3_9  and  N2_6 
REMARK    2  A    between atoms: C10_16  and  C11_17 
ROOT
HETATM    1  O1  UNK     1      21.472  -4.342  36.918  1.00  0.00    -0.267 OA
HETATM    2  N2  UNK     1      19.337  -5.248  36.678  1.00  0.00    -0.352 N 
HETATM    3  C10 UNK     1      20.297  -4.261  36.575  1.00  0.00     0.258 C 
HETATM    4  H19 UNK     1      18.374  -5.044  36.431  1.00  0.00     0.163 HD
ENDROOT
BRANCH   3   5
HETATM    5  C11 UNK     1      19.773  -3.018  35.979  1.00  0.00     0.108 A 
HETATM    6  C12 UNK     1      19.015  -2.254  36.774  1.00  0.00     0.037 A 
HETATM    7  C14 UNK     1      18.452  -1.009  36.276  1.00  0.00     0.000 A 
HETATM    8  C15 UNK     1      18.716  -0.628  34.964  1.00  0.00     0.089 A 
HETATM    9  C16 UNK     1      17.655  -0.181  37.070  1.00  0.00     0.033 A 
HETATM   10  O2  UNK     1      19.516  -1.436  34.132  1.00  0.00    -0.274 OA
HETATM   11  C17 UNK     1      18.207   0.552  34.425  1.00  0.00     0.039 A 
HETATM   12  C13 UNK     1      20.067  -2.634  34.580  1.00  0.00     0.304 A 
HETATM   13  O3  UNK     1      20.762  -3.331  33.849  1.00  0.00    -0.259 OA
HETATM   14  C19 UNK     1      17.413   1.371  35.224  1.00  0.00     0.022 A 
HETATM   15  C18 UNK     1      17.138   1.007  36.543  1.00  0.00     0.011 A 
HETATM   16 Br1  UNK     1      16.060   2.124  37.623  1.00  0.00    -0.051 Br
ENDBRANCH   3   5
BRANCH   2  17
HETATM   17  C3  UNK     1      19.614  -6.554  37.229  1.00  0.00     0.089 C 
HETATM   18  C4  UNK     1      20.128  -7.496  36.141  1.00  0.00     0.066 C 
HETATM   19  C1  UNK     1      20.505  -8.889  36.684  1.00  0.00     0.153 C 
HETATM   20  N1  UNK     1      21.384  -8.807  37.867  1.00  0.00     0.101 N 
HETATM   21  C6  UNK     1      19.250  -9.738  36.960  1.00  0.00     0.048 C 
HETATM   22  C7  UNK     1      21.309  -9.631  35.591  1.00  0.00     0.048 C 
HETATM   23  C2  UNK     1      21.033  -7.840  38.925  1.00  0.00     0.153 C 
HETATM   24  H6  UNK     1      21.532  -9.733  38.265  1.00  0.00     0.317 HD
HETATM   25  C5  UNK     1      20.650  -6.462  38.348  1.00  0.00     0.066 C 
HETATM   26  C8  UNK     1      22.300  -7.664  39.794  1.00  0.00     0.048 C 
HETATM   27  C9  UNK     1      19.934  -8.383  39.856  1.00  0.00     0.048 C 
ENDBRANCH   2  17
TORSDOF 2
ENDMDL
