MODEL 1
REMARK VINA RESULT:      -9.6      0.000      0.000
REMARK  6 active torsions:
REMARK  status: ('A' for Active; 'I' for Inactive)
REMARK    1  A    between atoms: C5_12  and  N1_5 
REMARK    2  A    between atoms: C6_13  and  N2_6 
REMARK    3  A    between atoms: C18_25  and  N3_7 
REMARK       I    between atoms: C9_16  and  N3_7 
REMARK    4  A    between atoms: C5_12  and  C7_14 
REMARK    5  A    between atoms: C6_13  and  C9_16 
REMARK    6  A    between atoms: C13_20  and  C17_24 
ROOT
HETATM    1  N1  UNK     1      19.219  -3.115  36.190  1.00  0.00     0.096 N 
HETATM    2  N2  UNK     1      18.314  -0.479  35.420  1.00  0.00     0.100 N 
HETATM    3  C1  UNK     1      19.969  -2.304  35.224  1.00  0.00     0.303 C 
HETATM    4  C2  UNK     1      18.495  -2.253  37.132  1.00  0.00     0.303 C 
HETATM    5  C3  UNK     1      19.036  -1.343  34.478  1.00  0.00     0.303 C 
HETATM    6  C4  UNK     1      17.563  -1.291  36.386  1.00  0.00     0.303 C 
ENDROOT
BRANCH   1   7
HETATM    7  C5  UNK     1      20.110  -4.029  36.903  1.00  0.00     0.312 C 
BRANCH   7   8
HETATM    8  C7  UNK     1      19.700  -5.452  36.744  1.00  0.00    -0.011 A 
HETATM    9  C10 UNK     1      18.575  -5.780  36.094  1.00  0.00     0.092 A 
HETATM   10  C14 UNK     1      18.129  -7.171  35.911  1.00  0.00     0.288 A 
HETATM   11  O1  UNK     1      18.937  -8.161  36.451  1.00  0.00    -0.275 OA
HETATM   12  O3  UNK     1      17.094  -7.434  35.308  1.00  0.00    -0.260 OA
HETATM   13  C11 UNK     1      20.126  -7.846  37.139  1.00  0.00     0.090 A 
HETATM   14  C8  UNK     1      20.536  -6.523  37.305  1.00  0.00     0.007 A 
HETATM   15  C15 UNK     1      20.861  -8.922  37.640  1.00  0.00     0.039 A 
HETATM   16  C12 UNK     1      21.730  -6.294  38.002  1.00  0.00     0.022 A 
HETATM   17  C13 UNK     1      22.477  -7.362  38.510  1.00  0.00    -0.058 A 
HETATM   18  C16 UNK     1      22.043  -8.674  38.329  1.00  0.00     0.010 A 
BRANCH  17  19
HETATM   19  C17 UNK     1      23.745  -7.095  39.250  1.00  0.00     0.034 C 
HETATM   20  C19 UNK     1      24.889  -7.991  38.782  1.00  0.00     0.010 C 
ENDBRANCH  17  19
ENDBRANCH   7   8
ENDBRANCH   1   7
BRANCH   2  21
HETATM   21  C6  UNK     1      17.423   0.436  34.709  1.00  0.00     0.375 C 
BRANCH  21  22
HETATM   22  C9  UNK     1      18.190   1.690  34.324  1.00  0.00     0.250 C 
HETATM   23  O2  UNK     1      19.086   2.155  35.021  1.00  0.00    -0.271 OA
HETATM   24  N3  UNK     1      17.727   2.184  33.108  1.00  0.00    -0.326 N 
HETATM   25  H16 UNK     1      16.977   1.679  32.642  1.00  0.00     0.169 HD
BRANCH  24  26
HETATM   26  C18 UNK     1      18.180   3.330  32.412  1.00  0.00     0.036 A 
HETATM   27  C20 UNK     1      18.256   4.560  33.067  1.00  0.00     0.048 A 
HETATM   28  C22 UNK     1      18.704   5.688  32.381  1.00  0.00     0.013 A 
HETATM   29 Br1  UNK     1      18.805   7.355  33.266  1.00  0.00    -0.051 Br
HETATM   30  C24 UNK     1      19.076   5.589  31.040  1.00  0.00     0.019 A 
HETATM   31  C23 UNK     1      19.000   4.359  30.385  1.00  0.00     0.004 A 
HETATM   32  C21 UNK     1      18.553   3.230  31.071  1.00  0.00     0.029 A 
ENDBRANCH  24  26
ENDBRANCH  21  22
ENDBRANCH   2  21
TORSDOF 6
ENDMDL
MODEL 2
REMARK VINA RESULT:      -9.4      4.861     10.847
REMARK  6 active torsions:
REMARK  status: ('A' for Active; 'I' for Inactive)
REMARK    1  A    between atoms: C5_12  and  N1_5 
REMARK    2  A    between atoms: C6_13  and  N2_6 
REMARK    3  A    between atoms: C18_25  and  N3_7 
REMARK       I    between atoms: C9_16  and  N3_7 
REMARK    4  A    between atoms: C5_12  and  C7_14 
REMARK    5  A    between atoms: C6_13  and  C9_16 
REMARK    6  A    between atoms: C13_20  and  C17_24 
ROOT
HETATM    1  N1  UNK     1      19.913  -4.682  36.893  1.00  0.00     0.096 N 
HETATM    2  N2  UNK     1      19.974  -7.572  36.812  1.00  0.00     0.100 N 
HETATM    3  C1  UNK     1      20.583  -5.460  37.941  1.00  0.00     0.303 C 
HETATM    4  C2  UNK     1      19.943  -5.408  35.617  1.00  0.00     0.303 C 
HETATM    5  C3  UNK     1      19.942  -6.845  38.087  1.00  0.00     0.303 C 
HETATM    6  C4  UNK     1      19.303  -6.794  35.762  1.00  0.00     0.303 C 
ENDROOT
BRANCH   1   7
HETATM    7  C5  UNK     1      20.527  -3.363  36.753  1.00  0.00     0.312 C 
BRANCH   7   8
HETATM    8  C7  UNK     1      19.534  -2.318  36.379  1.00  0.00    -0.011 A 
HETATM    9  C10 UNK     1      18.750  -1.746  37.303  1.00  0.00     0.092 A 
HETATM   10  C14 UNK     1      17.754  -0.710  36.982  1.00  0.00     0.288 A 
HETATM   11  O1  UNK     1      17.652  -0.334  35.651  1.00  0.00    -0.275 OA
HETATM   12  O3  UNK     1      17.054  -0.207  37.855  1.00  0.00    -0.260 OA
HETATM   13  C11 UNK     1      18.463  -0.917  34.657  1.00  0.00     0.090 A 
HETATM   14  C8  UNK     1      19.402  -1.899  34.977  1.00  0.00     0.007 A 
HETATM   15  C15 UNK     1      18.275  -0.463  33.352  1.00  0.00     0.039 A 
HETATM   16  C12 UNK     1      20.170  -2.429  33.931  1.00  0.00     0.022 A 
HETATM   17  C13 UNK     1      19.992  -1.984  32.616  1.00  0.00    -0.058 A 
HETATM   18  C16 UNK     1      19.046  -1.002  32.328  1.00  0.00     0.010 A 
BRANCH  17  19
HETATM   19  C17 UNK     1      20.820  -2.563  31.518  1.00  0.00     0.034 C 
HETATM   20  C19 UNK     1      20.422  -2.025  30.146  1.00  0.00     0.010 C 
ENDBRANCH  17  19
ENDBRANCH   7   8
ENDBRANCH   1   7
BRANCH   2  21
HETATM   21  C6  UNK     1      19.362  -8.892  36.950  1.00  0.00     0.375 C 
BRANCH  21  22
HETATM   22  C9  UNK     1      20.452  -9.943  37.072  1.00  0.00     0.250 C 
HETATM   23  O2  UNK     1      20.285 -11.000  37.672  1.00  0.00    -0.271 OA
HETATM   24  N3  UNK     1      21.605  -9.521  36.415  1.00  0.00    -0.326 N 
HETATM   25  H16 UNK     1      21.586  -8.614  35.953  1.00  0.00     0.169 HD
BRANCH  24  26
HETATM   26  C18 UNK     1      22.835 -10.211  36.298  1.00  0.00     0.036 A 
HETATM   27  C20 UNK     1      24.017  -9.609  36.728  1.00  0.00     0.048 A 
HETATM   28  C22 UNK     1      25.228 -10.290  36.614  1.00  0.00     0.013 A 
HETATM   29 Br1  UNK     1      26.832  -9.474  37.194  1.00  0.00    -0.051 Br
HETATM   30  C24 UNK     1      25.258 -11.575  36.069  1.00  0.00     0.019 A 
HETATM   31  C23 UNK     1      24.076 -12.177  35.639  1.00  0.00     0.004 A 
HETATM   32  C21 UNK     1      22.864 -11.496  35.754  1.00  0.00     0.029 A 
ENDBRANCH  24  26
ENDBRANCH  21  22
ENDBRANCH   2  21
TORSDOF 6
ENDMDL
MODEL 3
REMARK VINA RESULT:      -9.4      2.224      2.604
REMARK  6 active torsions:
REMARK  status: ('A' for Active; 'I' for Inactive)
REMARK    1  A    between atoms: C5_12  and  N1_5 
REMARK    2  A    between atoms: C6_13  and  N2_6 
REMARK    3  A    between atoms: C18_25  and  N3_7 
REMARK       I    between atoms: C9_16  and  N3_7 
REMARK    4  A    between atoms: C5_12  and  C7_14 
REMARK    5  A    between atoms: C6_13  and  C9_16 
REMARK    6  A    between atoms: C13_20  and  C17_24 
ROOT
HETATM    1  N1  UNK     1      19.482  -3.675  36.370  1.00  0.00     0.096 N 
HETATM    2  N2  UNK     1      18.977  -0.836  36.159  1.00  0.00     0.100 N 
HETATM    3  C1  UNK     1      20.220  -2.839  35.417  1.00  0.00     0.303 C 
HETATM    4  C2  UNK     1      19.074  -2.885  37.539  1.00  0.00     0.303 C 
HETATM    5  C3  UNK     1      19.383  -1.628  34.991  1.00  0.00     0.303 C 
HETATM    6  C4  UNK     1      18.237  -1.673  37.113  1.00  0.00     0.303 C 
ENDROOT
BRANCH   1   7
HETATM    7  C5  UNK     1      20.282  -4.828  36.778  1.00  0.00     0.312 C 
BRANCH   7   8
HETATM    8  C7  UNK     1      19.543  -6.111  36.619  1.00  0.00    -0.011 A 
HETATM    9  C10 UNK     1      18.526  -6.221  35.754  1.00  0.00     0.092 A 
HETATM   10  C14 UNK     1      17.765  -7.467  35.562  1.00  0.00     0.288 A 
HETATM   11  O1  UNK     1      18.148  -8.556  36.330  1.00  0.00    -0.275 OA
HETATM   12  O3  UNK     1      16.841  -7.531  34.758  1.00  0.00    -0.260 OA
HETATM   13  C11 UNK     1      19.214  -8.470  37.249  1.00  0.00     0.090 A 
HETATM   14  C8  UNK     1      19.925  -7.282  37.420  1.00  0.00     0.007 A 
HETATM   15  C15 UNK     1      19.512  -9.628  37.969  1.00  0.00     0.039 A 
HETATM   16  C12 UNK     1      20.971  -7.279  38.353  1.00  0.00     0.022 A 
HETATM   17  C13 UNK     1      21.282  -8.432  39.082  1.00  0.00    -0.058 A 
HETATM   18  C16 UNK     1      20.553  -9.605  38.890  1.00  0.00     0.010 A 
BRANCH  17  19
HETATM   19  C17 UNK     1      22.398  -8.406  40.072  1.00  0.00     0.034 C 
HETATM   20  C19 UNK     1      23.584  -7.577  39.586  1.00  0.00     0.010 C 
ENDBRANCH  17  19
ENDBRANCH   7   8
ENDBRANCH   1   7
BRANCH   2  21
HETATM   21  C6  UNK     1      18.177   0.318  35.753  1.00  0.00     0.375 C 
BRANCH  21  22
HETATM   22  C9  UNK     1      17.899   0.240  34.262  1.00  0.00     0.250 C 
HETATM   23  O2  UNK     1      17.058  -0.516  33.786  1.00  0.00    -0.271 OA
HETATM   24  N3  UNK     1      18.716   1.133  33.572  1.00  0.00    -0.326 N 
HETATM   25  H16 UNK     1      19.363   1.702  34.112  1.00  0.00     0.169 HD
BRANCH  24  26
HETATM   26  C18 UNK     1      18.761   1.360  32.176  1.00  0.00     0.036 A 
HETATM   27  C20 UNK     1      19.324   0.404  31.331  1.00  0.00     0.048 A 
HETATM   28  C22 UNK     1      19.368   0.628  29.955  1.00  0.00     0.013 A 
HETATM   29 Br1  UNK     1      20.133  -0.666  28.809  1.00  0.00    -0.051 Br
HETATM   30  C24 UNK     1      18.848   1.809  29.423  1.00  0.00     0.019 A 
HETATM   31  C23 UNK     1      18.285   2.765  30.268  1.00  0.00     0.004 A 
HETATM   32  C21 UNK     1      18.241   2.541  31.645  1.00  0.00     0.029 A 
ENDBRANCH  24  26
ENDBRANCH  21  22
ENDBRANCH   2  21
TORSDOF 6
ENDMDL
MODEL 4
REMARK VINA RESULT:      -9.3      5.779      8.499
REMARK  6 active torsions:
REMARK  status: ('A' for Active; 'I' for Inactive)
REMARK    1  A    between atoms: C5_12  and  N1_5 
REMARK    2  A    between atoms: C6_13  and  N2_6 
REMARK    3  A    between atoms: C18_25  and  N3_7 
REMARK       I    between atoms: C9_16  and  N3_7 
REMARK    4  A    between atoms: C5_12  and  C7_14 
REMARK    5  A    between atoms: C6_13  and  C9_16 
REMARK    6  A    between atoms: C13_20  and  C17_24 
ROOT
HETATM    1  N1  UNK     1      18.882   3.616  31.339  1.00  0.00     0.096 N 
HETATM    2  N2  UNK     1      19.193   6.290  32.393  1.00  0.00     0.100 N 
HETATM    3  C1  UNK     1      18.058   4.096  32.454  1.00  0.00     0.303 C 
HETATM    4  C2  UNK     1      19.278   4.735  30.474  1.00  0.00     0.303 C 
HETATM    5  C3  UNK     1      18.799   5.171  33.257  1.00  0.00     0.303 C 
HETATM    6  C4  UNK     1      20.018   5.810  31.277  1.00  0.00     0.303 C 
ENDROOT
BRANCH   1   7
HETATM    7  C5  UNK     1      18.173   2.593  30.572  1.00  0.00     0.312 C 
BRANCH   7   8
HETATM    8  C7  UNK     1      18.925   1.308  30.520  1.00  0.00    -0.011 A 
HETATM    9  C10 UNK     1      19.595   0.943  29.418  1.00  0.00     0.092 A 
HETATM   10  C14 UNK     1      20.352  -0.316  29.319  1.00  0.00     0.288 A 
HETATM   11  O1  UNK     1      20.347  -1.136  30.437  1.00  0.00    -0.275 OA
HETATM   12  O3  UNK     1      20.955  -0.617  28.294  1.00  0.00    -0.260 OA
HETATM   13  C11 UNK     1      19.652  -0.779  31.610  1.00  0.00     0.090 A 
HETATM   14  C8  UNK     1      18.938   0.418  31.689  1.00  0.00     0.007 A 
HETATM   15  C15 UNK     1      19.716  -1.679  32.673  1.00  0.00     0.039 A 
HETATM   16  C12 UNK     1      18.273   0.700  32.890  1.00  0.00     0.022 A 
HETATM   17  C13 UNK     1      18.329  -0.193  33.965  1.00  0.00    -0.058 A 
HETATM   18  C16 UNK     1      19.049  -1.382  33.856  1.00  0.00     0.010 A 
BRANCH  17  19
HETATM   19  C17 UNK     1      17.612   0.127  35.234  1.00  0.00     0.034 C 
HETATM   20  C19 UNK     1      16.100   0.212  35.041  1.00  0.00     0.010 C 
ENDBRANCH  17  19
ENDBRANCH   7   8
ENDBRANCH   1   7
BRANCH   2  21
HETATM   21  C6  UNK     1      19.901   7.315  33.158  1.00  0.00     0.375 C 
BRANCH  21  22
HETATM   22  C9  UNK     1      18.929   7.999  34.105  1.00  0.00     0.250 C 
HETATM   23  O2  UNK     1      19.056   7.956  35.324  1.00  0.00    -0.271 OA
HETATM   24  N3  UNK     1      17.931   8.650  33.384  1.00  0.00    -0.326 N 
HETATM   25  H16 UNK     1      17.967   8.600  32.369  1.00  0.00     0.169 HD
BRANCH  24  26
HETATM   26  C18 UNK     1      16.845   9.399  33.896  1.00  0.00     0.036 A 
HETATM   27  C20 UNK     1      17.032  10.727  34.280  1.00  0.00     0.048 A 
HETATM   28  C22 UNK     1      15.961  11.464  34.784  1.00  0.00     0.013 A 
HETATM   29 Br1  UNK     1      16.213  13.263  35.308  1.00  0.00    -0.051 Br
HETATM   30  C24 UNK     1      14.702  10.874  34.905  1.00  0.00     0.019 A 
HETATM   31  C23 UNK     1      14.515   9.546  34.520  1.00  0.00     0.004 A 
HETATM   32  C21 UNK     1      15.586   8.808  34.015  1.00  0.00     0.029 A 
ENDBRANCH  24  26
ENDBRANCH  21  22
ENDBRANCH   2  21
TORSDOF 6
ENDMDL
MODEL 5
REMARK VINA RESULT:      -9.1      4.764     12.546
REMARK  6 active torsions:
REMARK  status: ('A' for Active; 'I' for Inactive)
REMARK    1  A    between atoms: C5_12  and  N1_5 
REMARK    2  A    between atoms: C6_13  and  N2_6 
REMARK    3  A    between atoms: C18_25  and  N3_7 
REMARK       I    between atoms: C9_16  and  N3_7 
REMARK    4  A    between atoms: C5_12  and  C7_14 
REMARK    5  A    between atoms: C6_13  and  C9_16 
REMARK    6  A    between atoms: C13_20  and  C17_24 
ROOT
HETATM    1  N1  UNK     1      18.104   5.150  31.347  1.00  0.00     0.096 N 
HETATM    2  N2  UNK     1      19.037   2.456  30.870  1.00  0.00     0.100 N 
HETATM    3  C1  UNK     1      18.401   4.239  32.458  1.00  0.00     0.303 C 
HETATM    4  C2  UNK     1      18.936   4.827  30.182  1.00  0.00     0.303 C 
HETATM    5  C3  UNK     1      18.203   2.779  32.035  1.00  0.00     0.303 C 
HETATM    6  C4  UNK     1      18.739   3.368  29.758  1.00  0.00     0.303 C 
ENDROOT
BRANCH   1   7
HETATM    7  C5  UNK     1      18.296   6.542  31.752  1.00  0.00     0.312 C 
BRANCH   7   8
HETATM    8  C7  UNK     1      17.013   7.201  32.125  1.00  0.00    -0.011 A 
HETATM    9  C10 UNK     1      15.835   6.672  31.771  1.00  0.00     0.092 A 
HETATM   10  C14 UNK     1      14.541   7.286  32.117  1.00  0.00     0.288 A 
HETATM   11  O1  UNK     1      14.586   8.466  32.843  1.00  0.00    -0.275 OA
HETATM   12  O3  UNK     1      13.481   6.772  31.776  1.00  0.00    -0.260 OA
HETATM   13  C11 UNK     1      15.811   9.046  33.230  1.00  0.00     0.090 A 
HETATM   14  C8  UNK     1      17.029   8.453  32.895  1.00  0.00     0.007 A 
HETATM   15  C15 UNK     1      15.737  10.234  33.959  1.00  0.00     0.039 A 
HETATM   16  C12 UNK     1      18.202   9.092  33.317  1.00  0.00     0.022 A 
HETATM   17  C13 UNK     1      18.144  10.284  34.048  1.00  0.00    -0.058 A 
HETATM   18  C16 UNK     1      16.912  10.854  34.368  1.00  0.00     0.010 A 
BRANCH  17  19
HETATM   19  C17 UNK     1      19.406  10.949  34.487  1.00  0.00     0.034 C 
HETATM   20  C19 UNK     1      20.577   9.973  34.567  1.00  0.00     0.010 C 
ENDBRANCH  17  19
ENDBRANCH   7   8
ENDBRANCH   1   7
BRANCH   2  21
HETATM   21  C6  UNK     1      18.847   1.064  30.465  1.00  0.00     0.375 C 
BRANCH  21  22
HETATM   22  C9  UNK     1      19.608   0.154  31.414  1.00  0.00     0.250 C 
HETATM   23  O2  UNK     1      20.779  -0.161  31.230  1.00  0.00    -0.271 OA
HETATM   24  N3  UNK     1      18.788  -0.232  32.473  1.00  0.00    -0.326 N 
HETATM   25  H16 UNK     1      17.834   0.122  32.490  1.00  0.00     0.169 HD
BRANCH  24  26
HETATM   26  C18 UNK     1      19.122  -1.072  33.561  1.00  0.00     0.036 A 
HETATM   27  C20 UNK     1      18.563  -0.842  34.818  1.00  0.00     0.048 A 
HETATM   28  C22 UNK     1      18.891  -1.671  35.890  1.00  0.00     0.013 A 
HETATM   29 Br1  UNK     1      18.136  -1.359  37.594  1.00  0.00    -0.051 Br
HETATM   30  C24 UNK     1      19.780  -2.731  35.706  1.00  0.00     0.019 A 
HETATM   31  C23 UNK     1      20.339  -2.962  34.449  1.00  0.00     0.004 A 
HETATM   32  C21 UNK     1      20.010  -2.132  33.376  1.00  0.00     0.029 A 
ENDBRANCH  24  26
ENDBRANCH  21  22
ENDBRANCH   2  21
TORSDOF 6
ENDMDL
MODEL 6
REMARK VINA RESULT:      -9.0      3.759     11.383
REMARK  6 active torsions:
REMARK  status: ('A' for Active; 'I' for Inactive)
REMARK    1  A    between atoms: C5_12  and  N1_5 
REMARK    2  A    between atoms: C6_13  and  N2_6 
REMARK    3  A    between atoms: C18_25  and  N3_7 
REMARK       I    between atoms: C9_16  and  N3_7 
REMARK    4  A    between atoms: C5_12  and  C7_14 
REMARK    5  A    between atoms: C6_13  and  C9_16 
REMARK    6  A    between atoms: C13_20  and  C17_24 
ROOT
HETATM    1  N1  UNK     1      17.947   1.637  35.280  1.00  0.00     0.096 N 
HETATM    2  N2  UNK     1      18.276  -0.939  36.550  1.00  0.00     0.100 N 
HETATM    3  C1  UNK     1      17.701   1.458  36.715  1.00  0.00     0.303 C 
HETATM    4  C2  UNK     1      18.953   0.678  34.808  1.00  0.00     0.303 C 
HETATM    5  C3  UNK     1      17.268   0.020  37.020  1.00  0.00     0.303 C 
HETATM    6  C4  UNK     1      18.522  -0.761  35.114  1.00  0.00     0.303 C 
ENDROOT
BRANCH   1   7
HETATM    7  C5  UNK     1      18.362   3.008  34.990  1.00  0.00     0.312 C 
BRANCH   7   8
HETATM    8  C7  UNK     1      18.313   3.315  33.534  1.00  0.00    -0.011 A 
HETATM    9  C10 UNK     1      18.240   2.336  32.622  1.00  0.00     0.092 A 
HETATM   10  C14 UNK     1      18.190   2.590  31.173  1.00  0.00     0.288 A 
HETATM   11  O1  UNK     1      18.222   3.917  30.771  1.00  0.00    -0.275 OA
HETATM   12  O3  UNK     1      18.121   1.668  30.367  1.00  0.00    -0.260 OA
HETATM   13  C11 UNK     1      18.299   4.968  31.706  1.00  0.00     0.090 A 
HETATM   14  C8  UNK     1      18.346   4.712  33.077  1.00  0.00     0.007 A 
HETATM   15  C15 UNK     1      18.325   6.264  31.189  1.00  0.00     0.039 A 
HETATM   16  C12 UNK     1      18.422   5.812  33.942  1.00  0.00     0.022 A 
HETATM   17  C13 UNK     1      18.450   7.117  33.438  1.00  0.00    -0.058 A 
HETATM   18  C16 UNK     1      18.401   7.342  32.063  1.00  0.00     0.010 A 
BRANCH  17  19
HETATM   19  C17 UNK     1      18.532   8.274  34.377  1.00  0.00     0.034 C 
HETATM   20  C19 UNK     1      19.950   8.825  34.495  1.00  0.00     0.010 C 
ENDBRANCH  17  19
ENDBRANCH   7   8
ENDBRANCH   1   7
BRANCH   2  21
HETATM   21  C6  UNK     1      17.863  -2.311  36.840  1.00  0.00     0.375 C 
BRANCH  21  22
HETATM   22  C9  UNK     1      19.087  -3.210  36.874  1.00  0.00     0.250 C 
HETATM   23  O2  UNK     1      20.212  -2.785  37.116  1.00  0.00    -0.271 OA
HETATM   24  N3  UNK     1      18.725  -4.528  36.602  1.00  0.00    -0.326 N 
HETATM   25  H16 UNK     1      17.743  -4.726  36.428  1.00  0.00     0.169 HD
BRANCH  24  26
HETATM   26  C18 UNK     1      19.571  -5.661  36.541  1.00  0.00     0.036 A 
HETATM   27  C20 UNK     1      20.182  -6.139  37.700  1.00  0.00     0.048 A 
HETATM   28  C22 UNK     1      21.015  -7.255  37.640  1.00  0.00     0.013 A 
HETATM   29 Br1  UNK     1      21.845  -7.903  39.209  1.00  0.00    -0.051 Br
HETATM   30  C24 UNK     1      21.238  -7.895  36.419  1.00  0.00     0.019 A 
HETATM   31  C23 UNK     1      20.628  -7.416  35.260  1.00  0.00     0.004 A 
HETATM   32  C21 UNK     1      19.794  -6.299  35.321  1.00  0.00     0.029 A 
ENDBRANCH  24  26
ENDBRANCH  21  22
ENDBRANCH   2  21
TORSDOF 6
ENDMDL
MODEL 7
REMARK VINA RESULT:      -8.8      8.870     12.710
REMARK  6 active torsions:
REMARK  status: ('A' for Active; 'I' for Inactive)
REMARK    1  A    between atoms: C5_12  and  N1_5 
REMARK    2  A    between atoms: C6_13  and  N2_6 
REMARK    3  A    between atoms: C18_25  and  N3_7 
REMARK       I    between atoms: C9_16  and  N3_7 
REMARK    4  A    between atoms: C5_12  and  C7_14 
REMARK    5  A    between atoms: C6_13  and  C9_16 
REMARK    6  A    between atoms: C13_20  and  C17_24 
ROOT
HETATM    1  N1  UNK     1      29.579  -8.879  37.819  1.00  0.00     0.096 N 
HETATM    2  N2  UNK     1      26.812  -9.308  37.097  1.00  0.00     0.100 N 
HETATM    3  C1  UNK     1      29.019  -8.322  36.583  1.00  0.00     0.303 C 
HETATM    4  C2  UNK     1      28.535  -9.007  38.843  1.00  0.00     0.303 C 
HETATM    5  C3  UNK     1      27.857  -9.182  36.073  1.00  0.00     0.303 C 
HETATM    6  C4  UNK     1      27.372  -9.866  38.334  1.00  0.00     0.303 C 
ENDROOT
BRANCH   1   7
HETATM    7  C5  UNK     1      30.685  -8.057  38.305  1.00  0.00     0.312 C 
BRANCH   7   8
HETATM    8  C7  UNK     1      30.412  -6.601  38.154  1.00  0.00    -0.011 A 
HETATM    9  C10 UNK     1      29.327  -6.039  38.703  1.00  0.00     0.092 A 
HETATM   10  C14 UNK     1      29.015  -4.605  38.581  1.00  0.00     0.288 A 
HETATM   11  O1  UNK     1      29.909  -3.832  37.855  1.00  0.00    -0.275 OA
HETATM   12  O3  UNK     1      28.013  -4.125  39.100  1.00  0.00    -0.260 OA
HETATM   13  C11 UNK     1      31.059  -4.395  37.265  1.00  0.00     0.090 A 
HETATM   14  C8  UNK     1      31.342  -5.756  37.390  1.00  0.00     0.007 A 
HETATM   15  C15 UNK     1      31.889  -3.524  36.558  1.00  0.00     0.039 A 
HETATM   16  C12 UNK     1      32.504  -6.238  36.774  1.00  0.00     0.022 A 
HETATM   17  C13 UNK     1      33.346  -5.377  36.061  1.00  0.00    -0.058 A 
HETATM   18  C16 UNK     1      33.038  -4.022  35.953  1.00  0.00     0.010 A 
BRANCH  17  19
HETATM   19  C17 UNK     1      34.578  -5.912  35.412  1.00  0.00     0.034 C 
HETATM   20  C19 UNK     1      34.922  -5.172  34.122  1.00  0.00     0.010 C 
ENDBRANCH  17  19
ENDBRANCH   7   8
ENDBRANCH   1   7
BRANCH   2  21
HETATM   21  C6  UNK     1      25.705 -10.129  36.611  1.00  0.00     0.375 C 
BRANCH  21  22
HETATM   22  C9  UNK     1      24.389  -9.438  36.925  1.00  0.00     0.250 C 
HETATM   23  O2  UNK     1      24.331  -8.362  37.512  1.00  0.00    -0.271 OA
HETATM   24  N3  UNK     1      23.321 -10.195  36.449  1.00  0.00    -0.326 N 
HETATM   25  H16 UNK     1      23.532 -11.068  35.971  1.00  0.00     0.169 HD
BRANCH  24  26
HETATM   26  C18 UNK     1      21.941  -9.896  36.541  1.00  0.00     0.036 A 
HETATM   27  C20 UNK     1      21.431  -8.756  35.922  1.00  0.00     0.048 A 
HETATM   28  C22 UNK     1      20.071  -8.462  36.013  1.00  0.00     0.013 A 
HETATM   29 Br1  UNK     1      19.378  -6.915  35.176  1.00  0.00    -0.051 Br
HETATM   30  C24 UNK     1      19.219  -9.309  36.724  1.00  0.00     0.019 A 
HETATM   31  C23 UNK     1      19.730 -10.450  37.343  1.00  0.00     0.004 A 
HETATM   32  C21 UNK     1      21.090 -10.744  37.252  1.00  0.00     0.029 A 
ENDBRANCH  24  26
ENDBRANCH  21  22
ENDBRANCH   2  21
TORSDOF 6
ENDMDL
MODEL 8
REMARK VINA RESULT:      -8.7      4.770     10.934
REMARK  6 active torsions:
REMARK  status: ('A' for Active; 'I' for Inactive)
REMARK    1  A    between atoms: C5_12  and  N1_5 
REMARK    2  A    between atoms: C6_13  and  N2_6 
REMARK    3  A    between atoms: C18_25  and  N3_7 
REMARK       I    between atoms: C9_16  and  N3_7 
REMARK    4  A    between atoms: C5_12  and  C7_14 
REMARK    5  A    between atoms: C6_13  and  C9_16 
REMARK    6  A    between atoms: C13_20  and  C17_24 
ROOT
HETATM    1  N1  UNK     1      19.962  -4.364  36.453  1.00  0.00     0.096 N 
HETATM    2  N2  UNK     1      20.137  -7.248  36.572  1.00  0.00     0.100 N 
HETATM    3  C1  UNK     1      20.546  -5.045  37.614  1.00  0.00     0.303 C 
HETATM    4  C2  UNK     1      20.152  -5.167  35.239  1.00  0.00     0.303 C 
HETATM    5  C3  UNK     1      19.945  -6.444  37.786  1.00  0.00     0.303 C 
HETATM    6  C4  UNK     1      19.552  -6.567  35.410  1.00  0.00     0.303 C 
ENDROOT
BRANCH   1   7
HETATM    7  C5  UNK     1      20.537  -3.031  36.289  1.00  0.00     0.312 C 
BRANCH   7   8
HETATM    8  C7  UNK     1      20.087  -2.375  35.030  1.00  0.00    -0.011 A 
HETATM    9  C10 UNK     1      20.631  -2.697  33.849  1.00  0.00     0.092 A 
HETATM   10  C14 UNK     1      20.219  -2.077  32.578  1.00  0.00     0.288 A 
HETATM   11  O1  UNK     1      19.219  -1.118  32.648  1.00  0.00    -0.275 OA
HETATM   12  O3  UNK     1      20.738  -2.399  31.515  1.00  0.00    -0.260 OA
HETATM   13  C11 UNK     1      18.628  -0.759  33.876  1.00  0.00     0.090 A 
HETATM   14  C8  UNK     1      19.029  -1.355  35.072  1.00  0.00     0.007 A 
HETATM   15  C15 UNK     1      17.632   0.217  33.828  1.00  0.00     0.039 A 
HETATM   16  C12 UNK     1      18.393  -0.942  36.250  1.00  0.00     0.022 A 
HETATM   17  C13 UNK     1      17.392   0.036  36.217  1.00  0.00    -0.058 A 
HETATM   18  C16 UNK     1      17.013   0.614  35.007  1.00  0.00     0.010 A 
BRANCH  17  19
HETATM   19  C17 UNK     1      16.729   0.461  37.484  1.00  0.00     0.034 C 
HETATM   20  C19 UNK     1      17.624   1.358  38.335  1.00  0.00     0.010 C 
ENDBRANCH  17  19
ENDBRANCH   7   8
ENDBRANCH   1   7
BRANCH   2  21
HETATM   21  C6  UNK     1      19.563  -8.582  36.735  1.00  0.00     0.375 C 
BRANCH  21  22
HETATM   22  C9  UNK     1      20.666  -9.566  37.088  1.00  0.00     0.250 C 
HETATM   23  O2  UNK     1      20.577 -10.346  38.030  1.00  0.00    -0.271 OA
HETATM   24  N3  UNK     1      21.730  -9.437  36.198  1.00  0.00    -0.326 N 
HETATM   25  H16 UNK     1      21.650  -8.745  35.457  1.00  0.00     0.169 HD
BRANCH  24  26
HETATM   26  C18 UNK     1      22.940 -10.170  36.188  1.00  0.00     0.036 A 
HETATM   27  C20 UNK     1      24.116  -9.581  36.652  1.00  0.00     0.048 A 
HETATM   28  C22 UNK     1      25.309 -10.304  36.643  1.00  0.00     0.013 A 
HETATM   29 Br1  UNK     1      26.904  -9.506  37.270  1.00  0.00    -0.051 Br
HETATM   30  C24 UNK     1      25.327 -11.616  36.168  1.00  0.00     0.019 A 
HETATM   31  C23 UNK     1      24.151 -12.205  35.704  1.00  0.00     0.004 A 
HETATM   32  C21 UNK     1      22.957 -11.482  35.714  1.00  0.00     0.029 A 
ENDBRANCH  24  26
ENDBRANCH  21  22
ENDBRANCH   2  21
TORSDOF 6
ENDMDL
MODEL 9
REMARK VINA RESULT:      -8.7     12.371     16.631
REMARK  6 active torsions:
REMARK  status: ('A' for Active; 'I' for Inactive)
REMARK    1  A    between atoms: C5_12  and  N1_5 
REMARK    2  A    between atoms: C6_13  and  N2_6 
REMARK    3  A    between atoms: C18_25  and  N3_7 
REMARK       I    between atoms: C9_16  and  N3_7 
REMARK    4  A    between atoms: C5_12  and  C7_14 
REMARK    5  A    between atoms: C6_13  and  C9_16 
REMARK    6  A    between atoms: C13_20  and  C17_24 
ROOT
HETATM    1  N1  UNK     1      31.825  -5.845  35.757  1.00  0.00     0.096 N 
HETATM    2  N2  UNK     1      34.413  -6.515  34.655  1.00  0.00     0.100 N 
HETATM    3  C1  UNK     1      32.511  -4.946  34.822  1.00  0.00     0.303 C 
HETATM    4  C2  UNK     1      32.206  -7.239  35.502  1.00  0.00     0.303 C 
HETATM    5  C3  UNK     1      34.031  -5.121  34.912  1.00  0.00     0.303 C 
HETATM    6  C4  UNK     1      33.726  -7.415  35.592  1.00  0.00     0.303 C 
ENDROOT
BRANCH   1   7
HETATM    7  C5  UNK     1      30.375  -5.679  35.668  1.00  0.00     0.312 C 
BRANCH   7   8
HETATM    8  C7  UNK     1      29.730  -5.640  37.009  1.00  0.00    -0.011 A 
HETATM    9  C10 UNK     1      29.982  -4.645  37.870  1.00  0.00     0.092 A 
HETATM   10  C14 UNK     1      29.369  -4.564  39.207  1.00  0.00     0.288 A 
HETATM   11  O1  UNK     1      28.496  -5.584  39.555  1.00  0.00    -0.275 OA
HETATM   12  O3  UNK     1      29.622  -3.636  39.968  1.00  0.00    -0.260 OA
HETATM   13  C11 UNK     1      28.211  -6.643  38.670  1.00  0.00     0.090 A 
HETATM   14  C8  UNK     1      28.801  -6.707  37.407  1.00  0.00     0.007 A 
HETATM   15  C15 UNK     1      27.318  -7.614  39.125  1.00  0.00     0.039 A 
HETATM   16  C12 UNK     1      28.466  -7.793  36.587  1.00  0.00     0.022 A 
HETATM   17  C13 UNK     1      27.572  -8.774  37.030  1.00  0.00    -0.058 A 
HETATM   18  C16 UNK     1      26.999  -8.685  38.297  1.00  0.00     0.010 A 
BRANCH  17  19
HETATM   19  C17 UNK     1      27.231  -9.923  36.141  1.00  0.00     0.034 C 
HETATM   20  C19 UNK     1      25.917 -10.593  36.536  1.00  0.00     0.010 C 
ENDBRANCH  17  19
ENDBRANCH   7   8
ENDBRANCH   1   7
BRANCH   2  21
HETATM   21  C6  UNK     1      35.862  -6.683  34.743  1.00  0.00     0.375 C 
BRANCH  21  22
HETATM   22  C9  UNK     1      36.339  -7.559  33.597  1.00  0.00     0.250 C 
HETATM   23  O2  UNK     1      36.543  -7.118  32.470  1.00  0.00    -0.271 OA
HETATM   24  N3  UNK     1      36.501  -8.873  34.030  1.00  0.00    -0.326 N 
HETATM   25  H16 UNK     1      36.298  -9.082  35.004  1.00  0.00     0.169 HD
BRANCH  24  26
HETATM   26  C18 UNK     1      36.928  -9.986  33.268  1.00  0.00     0.036 A 
HETATM   27  C20 UNK     1      38.213 -10.009  32.726  1.00  0.00     0.048 A 
HETATM   28  C22 UNK     1      38.634 -11.107  31.976  1.00  0.00     0.013 A 
HETATM   29 Br1  UNK     1      40.375 -11.138  31.239  1.00  0.00    -0.051 Br
HETATM   30  C24 UNK     1      37.770 -12.183  31.767  1.00  0.00     0.019 A 
HETATM   31  C23 UNK     1      36.485 -12.160  32.309  1.00  0.00     0.004 A 
HETATM   32  C21 UNK     1      36.064 -11.062  33.060  1.00  0.00     0.029 A 
ENDBRANCH  24  26
ENDBRANCH  21  22
ENDBRANCH   2  21
TORSDOF 6
ENDMDL
MODEL 10
REMARK VINA RESULT:      -8.6      8.527     12.779
REMARK  6 active torsions:
REMARK  status: ('A' for Active; 'I' for Inactive)
REMARK    1  A    between atoms: C5_12  and  N1_5 
REMARK    2  A    between atoms: C6_13  and  N2_6 
REMARK    3  A    between atoms: C18_25  and  N3_7 
REMARK       I    between atoms: C9_16  and  N3_7 
REMARK    4  A    between atoms: C5_12  and  C7_14 
REMARK    5  A    between atoms: C6_13  and  C9_16 
REMARK    6  A    between atoms: C13_20  and  C17_24 
ROOT
HETATM    1  N1  UNK     1      29.254  -6.414  37.245  1.00  0.00     0.096 N 
HETATM    2  N2  UNK     1      26.639  -7.259  38.144  1.00  0.00     0.100 N 
HETATM    3  C1  UNK     1      28.248  -6.913  36.301  1.00  0.00     0.303 C 
HETATM    4  C2  UNK     1      28.604  -5.783  38.401  1.00  0.00     0.303 C 
HETATM    5  C3  UNK     1      27.290  -7.891  36.989  1.00  0.00     0.303 C 
HETATM    6  C4  UNK     1      27.645  -6.761  39.089  1.00  0.00     0.303 C 
ENDROOT
BRANCH   1   7
HETATM    7  C5  UNK     1      30.165  -5.480  36.588  1.00  0.00     0.312 C 
BRANCH   7   8
HETATM    8  C7  UNK     1      31.479  -6.105  36.270  1.00  0.00    -0.011 A 
HETATM    9  C10 UNK     1      32.374  -6.363  37.233  1.00  0.00     0.092 A 
HETATM   10  C14 UNK     1      33.685  -6.980  36.967  1.00  0.00     0.288 A 
HETATM   11  O1  UNK     1      33.970  -7.294  35.647  1.00  0.00    -0.275 OA
HETATM   12  O3  UNK     1      34.479  -7.204  37.875  1.00  0.00    -0.260 OA
HETATM   13  C11 UNK     1      33.048  -7.035  34.613  1.00  0.00     0.090 A 
HETATM   14  C8  UNK     1      31.810  -6.449  34.880  1.00  0.00     0.007 A 
HETATM   15  C15 UNK     1      33.440  -7.392  33.322  1.00  0.00     0.039 A 
HETATM   16  C12 UNK     1      30.950  -6.224  33.797  1.00  0.00     0.022 A 
HETATM   17  C13 UNK     1      31.330  -6.577  32.497  1.00  0.00    -0.058 A 
HETATM   18  C16 UNK     1      32.573  -7.160  32.260  1.00  0.00     0.010 A 
BRANCH  17  19
HETATM   19  C17 UNK     1      30.399  -6.326  31.358  1.00  0.00     0.034 C 
HETATM   20  C19 UNK     1      29.657  -4.999  31.495  1.00  0.00     0.010 C 
ENDBRANCH  17  19
ENDBRANCH   7   8
ENDBRANCH   1   7
BRANCH   2  21
HETATM   21  C6  UNK     1      25.726  -8.192  38.801  1.00  0.00     0.375 C 
BRANCH  21  22
HETATM   22  C9  UNK     1      24.319  -7.619  38.783  1.00  0.00     0.250 C 
HETATM   23  O2  UNK     1      24.082  -6.442  39.036  1.00  0.00    -0.271 OA
HETATM   24  N3  UNK     1      23.400  -8.609  38.442  1.00  0.00    -0.326 N 
HETATM   25  H16 UNK     1      23.754  -9.543  38.252  1.00  0.00     0.169 HD
BRANCH  24  26
HETATM   26  C18 UNK     1      21.996  -8.478  38.318  1.00  0.00     0.036 A 
HETATM   27  C20 UNK     1      21.444  -7.971  37.141  1.00  0.00     0.048 A 
HETATM   28  C22 UNK     1      20.061  -7.843  37.019  1.00  0.00     0.013 A 
HETATM   29 Br1  UNK     1      19.311  -7.155  35.426  1.00  0.00    -0.051 Br
HETATM   30  C24 UNK     1      19.228  -8.221  38.074  1.00  0.00     0.019 A 
HETATM   31  C23 UNK     1      19.781  -8.727  39.250  1.00  0.00     0.004 A 
HETATM   32  C21 UNK     1      21.165  -8.856  39.373  1.00  0.00     0.029 A 
ENDBRANCH  24  26
ENDBRANCH  21  22
ENDBRANCH   2  21
TORSDOF 6
ENDMDL
