MODEL 1
REMARK VINA RESULT:      -9.6      0.000      0.000
REMARK  6 active torsions:
REMARK  status: ('A' for Active; 'I' for Inactive)
REMARK    1  A    between atoms: C15_22  and  O1_1 
REMARK    2  A    between atoms: C9_16  and  O1_1 
REMARK    3  A    between atoms: C18_25  and  O2_2 
REMARK    4  A    between atoms: C6_13  and  O2_2 
REMARK    5  A    between atoms: C1_8  and  C6_13 
REMARK    6  A    between atoms: C4_11  and  C9_16 
ROOT
HETATM    1  O2  UNK     1      18.465  -1.593  35.876  1.00  0.00    -0.279 OA
ENDROOT
BRANCH   1   2
HETATM    2  C18 UNK     1      18.450  -0.501  35.065  1.00  0.00     0.082 A 
HETATM    3  C20 UNK     1      18.628  -0.644  33.695  1.00  0.00     0.075 A 
HETATM    4  C16 UNK     1      18.612   0.491  32.881  1.00  0.00     0.093 A 
HETATM    5  C14 UNK     1      18.419   1.773  33.391  1.00  0.00     0.005 A 
HETATM    6  O3  UNK     1      18.809   0.280  31.506  1.00  0.00    -0.274 OA
HETATM    7  C7  UNK     1      18.415   2.911  32.456  1.00  0.00    -0.033 A 
HETATM    8  C19 UNK     1      18.249   1.896  34.777  1.00  0.00     0.017 A 
HETATM    9  C13 UNK     1      18.641   2.697  31.146  1.00  0.00     0.025 A 
HETATM   10  C8  UNK     1      18.154   4.298  33.002  1.00  0.00     0.040 C 
HETATM   11  C12 UNK     1      18.709   3.816  30.134  1.00  0.00     0.045 C 
HETATM   12  C17 UNK     1      18.847   1.330  30.601  1.00  0.00     0.295 A 
HETATM   13  C11 UNK     1      18.846   5.202  30.762  1.00  0.00     0.005 C 
HETATM   14  C10 UNK     1      17.884   5.355  31.928  1.00  0.00     0.005 C 
HETATM   15  O6  UNK     1      19.035   1.127  29.406  1.00  0.00    -0.259 OA
HETATM   16  C21 UNK     1      18.263   0.768  35.607  1.00  0.00     0.038 A 
ENDBRANCH   1   2
BRANCH   1  17
HETATM   17  C6  UNK     1      19.720  -2.214  35.981  1.00  0.00     0.270 C 
HETATM   18  O4  UNK     1      20.800  -1.691  35.740  1.00  0.00    -0.264 OA
BRANCH  17  19
HETATM   19  C1  UNK     1      19.555  -3.635  36.435  1.00  0.00     0.114 C 
HETATM   20  C2  UNK     1      19.966  -4.591  35.314  1.00  0.00     0.019 C 
HETATM   21  C3  UNK     1      19.945  -6.033  35.808  1.00  0.00     0.047 C 
HETATM   22  C4  UNK     1      20.760  -6.189  37.091  1.00  0.00     0.319 C 
HETATM   23  N1  UNK     1      20.302  -5.275  38.137  1.00  0.00     0.098 N 
HETATM   24  C5  UNK     1      20.383  -3.880  37.699  1.00  0.00     0.285 C 
HETATM   25  H9  UNK     1      20.874  -5.394  38.972  1.00  0.00     0.317 HD
BRANCH  22  26
HETATM   26  C9  UNK     1      20.590  -7.571  37.637  1.00  0.00     0.293 C 
HETATM   27  O5  UNK     1      20.603  -7.843  38.829  1.00  0.00    -0.263 OA
BRANCH  26  28
HETATM   28  O1  UNK     1      20.424  -8.451  36.608  1.00  0.00    -0.310 OA
BRANCH  28  29
HETATM   29  C15 UNK     1      21.476  -9.406  36.439  1.00  0.00     0.060 C 
HETATM   30  C22 UNK     1      21.642  -9.687  34.946  1.00  0.00     0.045 C 
HETATM   31  C23 UNK     1      21.067 -10.677  37.182  1.00  0.00     0.045 C 
HETATM   32  C24 UNK     1      22.759  -8.826  37.031  1.00  0.00     0.045 C 
ENDBRANCH  28  29
ENDBRANCH  26  28
ENDBRANCH  22  26
ENDBRANCH  17  19
ENDBRANCH   1  17
TORSDOF 6
ENDMDL
MODEL 2
REMARK VINA RESULT:      -9.5      5.880     12.898
REMARK  6 active torsions:
REMARK  status: ('A' for Active; 'I' for Inactive)
REMARK    1  A    between atoms: C15_22  and  O1_1 
REMARK    2  A    between atoms: C9_16  and  O1_1 
REMARK    3  A    between atoms: C18_25  and  O2_2 
REMARK    4  A    between atoms: C6_13  and  O2_2 
REMARK    5  A    between atoms: C1_8  and  C6_13 
REMARK    6  A    between atoms: C4_11  and  C9_16 
ROOT
HETATM    1  O2  UNK     1      17.667   5.618  32.630  1.00  0.00    -0.279 OA
ENDROOT
BRANCH   1   2
HETATM    2  C18 UNK     1      18.078   4.425  32.123  1.00  0.00     0.082 A 
HETATM    3  C20 UNK     1      18.094   3.291  32.927  1.00  0.00     0.075 A 
HETATM    4  C16 UNK     1      18.522   2.077  32.386  1.00  0.00     0.093 A 
HETATM    5  C14 UNK     1      18.933   1.952  31.061  1.00  0.00     0.005 A 
HETATM    6  O3  UNK     1      18.525   0.971  33.253  1.00  0.00    -0.274 OA
HETATM    7  C7  UNK     1      19.366   0.630  30.578  1.00  0.00    -0.033 A 
HETATM    8  C19 UNK     1      18.917   3.109  30.270  1.00  0.00     0.017 A 
HETATM    9  C13 UNK     1      19.398  -0.413  31.430  1.00  0.00     0.025 A 
HETATM   10  C8  UNK     1      19.765   0.482  29.125  1.00  0.00     0.040 C 
HETATM   11  C12 UNK     1      19.883  -1.784  31.026  1.00  0.00     0.045 C 
HETATM   12  C17 UNK     1      18.960  -0.281  32.843  1.00  0.00     0.295 A 
HETATM   13  C11 UNK     1      20.644  -1.800  29.702  1.00  0.00     0.005 C 
HETATM   14  C10 UNK     1      19.915  -0.968  28.660  1.00  0.00     0.005 C 
HETATM   15  O6  UNK     1      18.969  -1.230  33.619  1.00  0.00    -0.259 OA
HETATM   16  C21 UNK     1      18.491   4.335  30.797  1.00  0.00     0.038 A 
ENDBRANCH   1   2
BRANCH   1  17
HETATM   17  C6  UNK     1      18.594   6.227  33.492  1.00  0.00     0.270 C 
HETATM   18  O4  UNK     1      19.755   5.876  33.656  1.00  0.00    -0.264 OA
BRANCH  17  19
HETATM   19  C1  UNK     1      17.957   7.386  34.198  1.00  0.00     0.114 C 
HETATM   20  C2  UNK     1      18.239   8.681  33.434  1.00  0.00     0.019 C 
HETATM   21  C3  UNK     1      17.476   9.845  34.057  1.00  0.00     0.047 C 
HETATM   22  C4  UNK     1      15.990   9.518  34.202  1.00  0.00     0.319 C 
HETATM   23  N1  UNK     1      15.780   8.290  34.968  1.00  0.00     0.098 N 
HETATM   24  C5  UNK     1      16.451   7.149  34.341  1.00  0.00     0.285 C 
HETATM   25  H9  UNK     1      14.782   8.092  35.034  1.00  0.00     0.317 HD
BRANCH  22  26
HETATM   26  C9  UNK     1      15.300  10.608  34.958  1.00  0.00     0.293 C 
HETATM   27  O5  UNK     1      14.894  10.495  36.106  1.00  0.00    -0.263 OA
BRANCH  26  28
HETATM   28  O1  UNK     1      15.202  11.717  34.170  1.00  0.00    -0.310 OA
BRANCH  28  29
HETATM   29  C15 UNK     1      13.875  12.068  33.765  1.00  0.00     0.060 C 
HETATM   30  C22 UNK     1      13.086  12.494  35.003  1.00  0.00     0.045 C 
HETATM   31  C23 UNK     1      13.246  10.831  33.128  1.00  0.00     0.045 C 
HETATM   32  C24 UNK     1      13.960  13.210  32.754  1.00  0.00     0.045 C 
ENDBRANCH  28  29
ENDBRANCH  26  28
ENDBRANCH  22  26
ENDBRANCH  17  19
ENDBRANCH   1  17
TORSDOF 6
ENDMDL
MODEL 3
REMARK VINA RESULT:      -9.1     25.811     28.373
REMARK  6 active torsions:
REMARK  status: ('A' for Active; 'I' for Inactive)
REMARK    1  A    between atoms: C15_22  and  O1_1 
REMARK    2  A    between atoms: C9_16  and  O1_1 
REMARK    3  A    between atoms: C18_25  and  O2_2 
REMARK    4  A    between atoms: C6_13  and  O2_2 
REMARK    5  A    between atoms: C1_8  and  C6_13 
REMARK    6  A    between atoms: C4_11  and  C9_16 
ROOT
HETATM    1  O2  UNK     1       9.538   5.510   7.272  1.00  0.00    -0.279 OA
ENDROOT
BRANCH   1   2
HETATM    2  C18 UNK     1      10.723   6.008   7.716  1.00  0.00     0.082 A 
HETATM    3  C20 UNK     1      11.760   5.148   8.059  1.00  0.00     0.075 A 
HETATM    4  C16 UNK     1      12.968   5.681   8.514  1.00  0.00     0.093 A 
HETATM    5  C14 UNK     1      13.181   7.053   8.636  1.00  0.00     0.005 A 
HETATM    6  O3  UNK     1      13.972   4.759   8.856  1.00  0.00    -0.274 OA
HETATM    7  C7  UNK     1      14.488   7.523   9.123  1.00  0.00    -0.033 A 
HETATM    8  C19 UNK     1      12.120   7.902   8.292  1.00  0.00     0.017 A 
HETATM    9  C13 UNK     1      15.428   6.626   9.480  1.00  0.00     0.025 A 
HETATM   10  C8  UNK     1      14.739   9.013   9.208  1.00  0.00     0.040 C 
HETATM   11  C12 UNK     1      16.770   7.028  10.042  1.00  0.00     0.045 C 
HETATM   12  C17 UNK     1      15.202   5.164   9.351  1.00  0.00     0.295 A 
HETATM   13  C11 UNK     1      16.836   8.488  10.487  1.00  0.00     0.005 C 
HETATM   14  C10 UNK     1      16.203   9.392   9.442  1.00  0.00     0.005 C 
HETATM   15  O6  UNK     1      16.060   4.343   9.657  1.00  0.00    -0.259 OA
HETATM   16  C21 UNK     1      10.902   7.384   7.834  1.00  0.00     0.038 A 
ENDBRANCH   1   2
BRANCH   1  17
HETATM   17  C6  UNK     1       8.424   6.300   7.601  1.00  0.00     0.270 C 
HETATM   18  O4  UNK     1       7.747   6.944   6.811  1.00  0.00    -0.264 OA
BRANCH  17  19
HETATM   19  C1  UNK     1       8.173   6.247   9.079  1.00  0.00     0.114 C 
HETATM   20  C2  UNK     1       7.227   7.378   9.488  1.00  0.00     0.019 C 
HETATM   21  C3  UNK     1       6.846   7.249  10.958  1.00  0.00     0.047 C 
HETATM   22  C4  UNK     1       6.317   5.850  11.272  1.00  0.00     0.319 C 
HETATM   23  N1  UNK     1       7.276   4.813  10.891  1.00  0.00     0.098 N 
HETATM   24  C5  UNK     1       7.598   4.882   9.464  1.00  0.00     0.285 C 
HETATM   25  H9  UNK     1       6.888   3.893  11.099  1.00  0.00     0.317 HD
BRANCH  22  26
HETATM   26  C9  UNK     1       6.104   5.704  12.745  1.00  0.00     0.293 C 
HETATM   27  O5  UNK     1       5.876   6.639  13.500  1.00  0.00    -0.263 OA
BRANCH  26  28
HETATM   28  O1  UNK     1       6.208   4.390  13.093  1.00  0.00    -0.310 OA
BRANCH  28  29
HETATM   29  C15 UNK     1       5.062   3.834  13.745  1.00  0.00     0.060 C 
HETATM   30  C22 UNK     1       4.998   2.340  13.424  1.00  0.00     0.045 C 
HETATM   31  C23 UNK     1       3.830   4.553  13.202  1.00  0.00     0.045 C 
HETATM   32  C24 UNK     1       5.199   4.063  15.249  1.00  0.00     0.045 C 
ENDBRANCH  28  29
ENDBRANCH  26  28
ENDBRANCH  22  26
ENDBRANCH  17  19
ENDBRANCH   1  17
TORSDOF 6
ENDMDL
MODEL 4
REMARK VINA RESULT:      -9.1      1.626      2.495
REMARK  6 active torsions:
REMARK  status: ('A' for Active; 'I' for Inactive)
REMARK    1  A    between atoms: C15_22  and  O1_1 
REMARK    2  A    between atoms: C9_16  and  O1_1 
REMARK    3  A    between atoms: C18_25  and  O2_2 
REMARK    4  A    between atoms: C6_13  and  O2_2 
REMARK    5  A    between atoms: C1_8  and  C6_13 
REMARK    6  A    between atoms: C4_11  and  C9_16 
ROOT
HETATM    1  O2  UNK     1      18.151   0.290  36.049  1.00  0.00    -0.279 OA
ENDROOT
BRANCH   1   2
HETATM    2  C18 UNK     1      18.232   1.235  35.075  1.00  0.00     0.082 A 
HETATM    3  C20 UNK     1      18.348   0.859  33.743  1.00  0.00     0.075 A 
HETATM    4  C16 UNK     1      18.432   1.847  32.758  1.00  0.00     0.093 A 
HETATM    5  C14 UNK     1      18.400   3.207  33.060  1.00  0.00     0.005 A 
HETATM    6  O3  UNK     1      18.560   1.402  31.432  1.00  0.00    -0.274 OA
HETATM    7  C7  UNK     1      18.493   4.177  31.956  1.00  0.00    -0.033 A 
HETATM    8  C19 UNK     1      18.290   3.565  34.411  1.00  0.00     0.017 A 
HETATM    9  C13 UNK     1      18.651   3.735  30.693  1.00  0.00     0.025 A 
HETATM   10  C8  UNK     1      18.407   5.653  32.277  1.00  0.00     0.040 C 
HETATM   11  C12 UNK     1      18.811   4.666  29.516  1.00  0.00     0.045 C 
HETATM   12  C17 UNK     1      18.685   2.286  30.371  1.00  0.00     0.295 A 
HETATM   13  C11 UNK     1      19.122   6.108  29.912  1.00  0.00     0.005 C 
HETATM   14  C10 UNK     1      18.222   6.552  31.053  1.00  0.00     0.005 C 
HETATM   15  O6  UNK     1      18.810   1.877  29.221  1.00  0.00    -0.259 OA
HETATM   16  C21 UNK     1      18.205   2.586  35.410  1.00  0.00     0.038 A 
ENDBRANCH   1   2
BRANCH   1  17
HETATM   17  C6  UNK     1      17.468  -0.876  35.663  1.00  0.00     0.270 C 
HETATM   18  O4  UNK     1      16.293  -0.937  35.325  1.00  0.00    -0.264 OA
BRANCH  17  19
HETATM   19  C1  UNK     1      18.390  -2.057  35.725  1.00  0.00     0.114 C 
HETATM   20  C2  UNK     1      19.799  -1.599  36.105  1.00  0.00     0.019 C 
HETATM   21  C3  UNK     1      20.713  -2.801  36.316  1.00  0.00     0.047 C 
HETATM   22  C4  UNK     1      20.096  -3.798  37.297  1.00  0.00     0.319 C 
HETATM   23  N1  UNK     1      18.765  -4.226  36.866  1.00  0.00     0.098 N 
HETATM   24  C5  UNK     1      17.857  -3.085  36.727  1.00  0.00     0.285 C 
HETATM   25  H9  UNK     1      18.377  -4.877  37.548  1.00  0.00     0.317 HD
BRANCH  22  26
HETATM   26  C9  UNK     1      20.935  -5.034  37.360  1.00  0.00     0.293 C 
HETATM   27  O5  UNK     1      22.107  -5.050  37.710  1.00  0.00    -0.263 OA
BRANCH  26  28
HETATM   28  O1  UNK     1      20.192  -6.110  36.971  1.00  0.00    -0.310 OA
BRANCH  28  29
HETATM   29  C15 UNK     1      20.113  -7.178  37.919  1.00  0.00     0.060 C 
HETATM   30  C22 UNK     1      20.181  -6.585  39.326  1.00  0.00     0.045 C 
HETATM   31  C23 UNK     1      21.302  -8.104  37.670  1.00  0.00     0.045 C 
HETATM   32  C24 UNK     1      18.797  -7.924  37.705  1.00  0.00     0.045 C 
ENDBRANCH  28  29
ENDBRANCH  26  28
ENDBRANCH  22  26
ENDBRANCH  17  19
ENDBRANCH   1  17
TORSDOF 6
ENDMDL
MODEL 5
REMARK VINA RESULT:      -9.1      2.318     11.042
REMARK  6 active torsions:
REMARK  status: ('A' for Active; 'I' for Inactive)
REMARK    1  A    between atoms: C15_22  and  O1_1 
REMARK    2  A    between atoms: C9_16  and  O1_1 
REMARK    3  A    between atoms: C18_25  and  O2_2 
REMARK    4  A    between atoms: C6_13  and  O2_2 
REMARK    5  A    between atoms: C1_8  and  C6_13 
REMARK    6  A    between atoms: C4_11  and  C9_16 
ROOT
HETATM    1  O2  UNK     1      19.549  -1.836  35.990  1.00  0.00    -0.279 OA
ENDROOT
BRANCH   1   2
HETATM    2  C18 UNK     1      19.676  -3.111  36.445  1.00  0.00     0.082 A 
HETATM    3  C20 UNK     1      20.823  -3.501  37.126  1.00  0.00     0.075 A 
HETATM    4  C16 UNK     1      20.934  -4.816  37.582  1.00  0.00     0.093 A 
HETATM    5  C14 UNK     1      19.930  -5.763  37.385  1.00  0.00     0.005 A 
HETATM    6  O3  UNK     1      22.123  -5.150  38.253  1.00  0.00    -0.274 OA
HETATM    7  C7  UNK     1      20.134  -7.125  37.904  1.00  0.00    -0.033 A 
HETATM    8  C19 UNK     1      18.784  -5.351  36.689  1.00  0.00     0.017 A 
HETATM    9  C13 UNK     1      21.293  -7.440  38.513  1.00  0.00     0.025 A 
HETATM   10  C8  UNK     1      19.023  -8.140  37.735  1.00  0.00     0.040 C 
HETATM   11  C12 UNK     1      21.600  -8.828  39.020  1.00  0.00     0.045 C 
HETATM   12  C17 UNK     1      22.364  -6.432  38.723  1.00  0.00     0.295 A 
HETATM   13  C11 UNK     1      20.653  -9.900  38.484  1.00  0.00     0.005 C 
HETATM   14  C10 UNK     1      19.213  -9.420  38.553  1.00  0.00     0.005 C 
HETATM   15  O6  UNK     1      23.414  -6.707  39.293  1.00  0.00    -0.259 OA
HETATM   16  C21 UNK     1      18.658  -4.036  36.225  1.00  0.00     0.038 A 
ENDBRANCH   1   2
BRANCH   1  17
HETATM   17  C6  UNK     1      18.602  -1.068  36.690  1.00  0.00     0.270 C 
HETATM   18  O4  UNK     1      18.256  -1.244  37.850  1.00  0.00    -0.264 OA
BRANCH  17  19
HETATM   19  C1  UNK     1      18.063   0.016  35.804  1.00  0.00     0.114 C 
HETATM   20  C2  UNK     1      18.760   1.341  36.119  1.00  0.00     0.019 C 
HETATM   21  C3  UNK     1      18.329   2.418  35.131  1.00  0.00     0.047 C 
HETATM   22  C4  UNK     1      18.509   1.947  33.687  1.00  0.00     0.319 C 
HETATM   23  N1  UNK     1      17.795   0.695  33.436  1.00  0.00     0.098 N 
HETATM   24  C5  UNK     1      18.249  -0.368  34.334  1.00  0.00     0.285 C 
HETATM   25  H9  UNK     1      17.946   0.402  32.471  1.00  0.00     0.317 HD
BRANCH  22  26
HETATM   26  C9  UNK     1      17.932   2.956  32.747  1.00  0.00     0.293 C 
HETATM   27  O5  UNK     1      17.548   2.698  31.615  1.00  0.00    -0.263 OA
BRANCH  26  28
HETATM   28  O1  UNK     1      17.909   4.180  33.349  1.00  0.00    -0.310 OA
BRANCH  28  29
HETATM   29  C15 UNK     1      18.357   5.272  32.540  1.00  0.00     0.060 C 
HETATM   30  C22 UNK     1      19.074   4.706  31.314  1.00  0.00     0.045 C 
HETATM   31  C23 UNK     1      19.316   6.109  33.384  1.00  0.00     0.045 C 
HETATM   32  C24 UNK     1      17.142   6.101  32.126  1.00  0.00     0.045 C 
ENDBRANCH  28  29
ENDBRANCH  26  28
ENDBRANCH  22  26
ENDBRANCH  17  19
ENDBRANCH   1  17
TORSDOF 6
ENDMDL
MODEL 6
REMARK VINA RESULT:      -9.0     26.203     28.714
REMARK  6 active torsions:
REMARK  status: ('A' for Active; 'I' for Inactive)
REMARK    1  A    between atoms: C15_22  and  O1_1 
REMARK    2  A    between atoms: C9_16  and  O1_1 
REMARK    3  A    between atoms: C18_25  and  O2_2 
REMARK    4  A    between atoms: C6_13  and  O2_2 
REMARK    5  A    between atoms: C1_8  and  C6_13 
REMARK    6  A    between atoms: C4_11  and  C9_16 
ROOT
HETATM    1  O2  UNK     1       8.808   7.075   7.614  1.00  0.00    -0.279 OA
ENDROOT
BRANCH   1   2
HETATM    2  C18 UNK     1       8.131   6.497   8.642  1.00  0.00     0.082 A 
HETATM    3  C20 UNK     1       7.669   5.191   8.529  1.00  0.00     0.075 A 
HETATM    4  C16 UNK     1       6.974   4.617   9.596  1.00  0.00     0.093 A 
HETATM    5  C14 UNK     1       6.726   5.305  10.783  1.00  0.00     0.005 A 
HETATM    6  O3  UNK     1       6.522   3.299   9.415  1.00  0.00    -0.274 OA
HETATM    7  C7  UNK     1       5.987   4.618  11.855  1.00  0.00    -0.033 A 
HETATM    8  C19 UNK     1       7.195   6.623  10.873  1.00  0.00     0.017 A 
HETATM    9  C13 UNK     1       5.529   3.367  11.653  1.00  0.00     0.025 A 
HETATM   10  C8  UNK     1       5.762   5.345  13.163  1.00  0.00     0.040 C 
HETATM   11  C12 UNK     1       4.715   2.618  12.680  1.00  0.00     0.045 C 
HETATM   12  C17 UNK     1       5.793   2.634  10.388  1.00  0.00     0.295 A 
HETATM   13  C11 UNK     1       4.171   3.507  13.797  1.00  0.00     0.005 C 
HETATM   14  C10 UNK     1       5.249   4.454  14.297  1.00  0.00     0.005 C 
HETATM   15  O6  UNK     1       5.395   1.488  10.206  1.00  0.00    -0.259 OA
HETATM   16  C21 UNK     1       7.893   7.213   9.812  1.00  0.00     0.038 A 
ENDBRANCH   1   2
BRANCH   1  17
HETATM   17  C6  UNK     1       9.819   6.268   7.066  1.00  0.00     0.270 C 
HETATM   18  O4  UNK     1       9.686   5.492   6.129  1.00  0.00    -0.264 OA
BRANCH  17  19
HETATM   19  C1  UNK     1      11.109   6.489   7.800  1.00  0.00     0.114 C 
HETATM   20  C2  UNK     1      11.166   5.588   9.035  1.00  0.00     0.019 C 
HETATM   21  C3  UNK     1      12.530   5.692   9.709  1.00  0.00     0.047 C 
HETATM   22  C4  UNK     1      13.660   5.452   8.708  1.00  0.00     0.319 C 
HETATM   23  N1  UNK     1      13.574   6.363   7.567  1.00  0.00     0.098 N 
HETATM   24  C5  UNK     1      12.294   6.222   6.868  1.00  0.00     0.285 C 
HETATM   25  H9  UNK     1      14.331   6.167   6.913  1.00  0.00     0.317 HD
BRANCH  22  26
HETATM   26  C9  UNK     1      14.980   5.718   9.358  1.00  0.00     0.293 C 
HETATM   27  O5  UNK     1      16.048   5.289   8.943  1.00  0.00    -0.263 OA
BRANCH  26  28
HETATM   28  O1  UNK     1      14.796   6.496  10.464  1.00  0.00    -0.310 OA
BRANCH  28  29
HETATM   29  C15 UNK     1      15.601   7.677  10.526  1.00  0.00     0.060 C 
HETATM   30  C22 UNK     1      15.203   8.596   9.370  1.00  0.00     0.045 C 
HETATM   31  C23 UNK     1      17.060   7.248  10.392  1.00  0.00     0.045 C 
HETATM   32  C24 UNK     1      15.362   8.360  11.871  1.00  0.00     0.045 C 
ENDBRANCH  28  29
ENDBRANCH  26  28
ENDBRANCH  22  26
ENDBRANCH  17  19
ENDBRANCH   1  17
TORSDOF 6
ENDMDL
MODEL 7
REMARK VINA RESULT:      -9.0      2.486     10.983
REMARK  6 active torsions:
REMARK  status: ('A' for Active; 'I' for Inactive)
REMARK    1  A    between atoms: C15_22  and  O1_1 
REMARK    2  A    between atoms: C9_16  and  O1_1 
REMARK    3  A    between atoms: C18_25  and  O2_2 
REMARK    4  A    between atoms: C6_13  and  O2_2 
REMARK    5  A    between atoms: C1_8  and  C6_13 
REMARK    6  A    between atoms: C4_11  and  C9_16 
ROOT
HETATM    1  O2  UNK     1      18.602  -2.051  35.846  1.00  0.00    -0.279 OA
ENDROOT
BRANCH   1   2
HETATM    2  C18 UNK     1      19.262  -3.075  36.450  1.00  0.00     0.082 A 
HETATM    3  C20 UNK     1      18.655  -4.318  36.582  1.00  0.00     0.075 A 
HETATM    4  C16 UNK     1      19.350  -5.355  37.208  1.00  0.00     0.093 A 
HETATM    5  C14 UNK     1      20.642  -5.195  37.705  1.00  0.00     0.005 A 
HETATM    6  O3  UNK     1      18.677  -6.584  37.321  1.00  0.00    -0.274 OA
HETATM    7  C7  UNK     1      21.298  -6.347  38.347  1.00  0.00    -0.033 A 
HETATM    8  C19 UNK     1      21.234  -3.932  37.568  1.00  0.00     0.017 A 
HETATM    9  C13 UNK     1      20.627  -7.507  38.481  1.00  0.00     0.025 A 
HETATM   10  C8  UNK     1      22.719  -6.189  38.843  1.00  0.00     0.040 C 
HETATM   11  C12 UNK     1      21.209  -8.713  39.177  1.00  0.00     0.045 C 
HETATM   12  C17 UNK     1      19.250  -7.678  37.951  1.00  0.00     0.295 A 
HETATM   13  C11 UNK     1      22.455  -8.402  40.004  1.00  0.00     0.005 C 
HETATM   14  C10 UNK     1      23.401  -7.506  39.223  1.00  0.00     0.005 C 
HETATM   15  O6  UNK     1      18.640  -8.738  38.052  1.00  0.00    -0.259 OA
HETATM   16  C21 UNK     1      20.549  -2.881  36.944  1.00  0.00     0.038 A 
ENDBRANCH   1   2
BRANCH   1  17
HETATM   17  C6  UNK     1      18.104  -1.084  36.736  1.00  0.00     0.270 C 
HETATM   18  O4  UNK     1      17.930  -1.240  37.937  1.00  0.00    -0.264 OA
BRANCH  17  19
HETATM   19  C1  UNK     1      17.808   0.189  36.000  1.00  0.00     0.114 C 
HETATM   20  C2  UNK     1      19.019   1.122  36.065  1.00  0.00     0.019 C 
HETATM   21  C3  UNK     1      18.790   2.355  35.199  1.00  0.00     0.047 C 
HETATM   22  C4  UNK     1      18.378   1.966  33.780  1.00  0.00     0.319 C 
HETATM   23  N1  UNK     1      17.197   1.103  33.778  1.00  0.00     0.098 N 
HETATM   24  C5  UNK     1      17.429  -0.120  34.550  1.00  0.00     0.285 C 
HETATM   25  H9  UNK     1      16.958   0.850  32.820  1.00  0.00     0.317 HD
BRANCH  22  26
HETATM   26  C9  UNK     1      18.005   3.189  33.004  1.00  0.00     0.293 C 
HETATM   27  O5  UNK     1      17.556   3.168  31.867  1.00  0.00    -0.263 OA
BRANCH  26  28
HETATM   28  O1  UNK     1      18.248   4.299  33.759  1.00  0.00    -0.310 OA
BRANCH  28  29
HETATM   29  C15 UNK     1      18.415   5.516  33.026  1.00  0.00     0.060 C 
HETATM   30  C22 UNK     1      19.287   5.230  31.803  1.00  0.00     0.045 C 
HETATM   31  C23 UNK     1      19.101   6.520  33.951  1.00  0.00     0.045 C 
HETATM   32  C24 UNK     1      17.038   6.026  32.606  1.00  0.00     0.045 C 
ENDBRANCH  28  29
ENDBRANCH  26  28
ENDBRANCH  22  26
ENDBRANCH  17  19
ENDBRANCH   1  17
TORSDOF 6
ENDMDL
MODEL 8
REMARK VINA RESULT:      -8.8     26.910     28.850
REMARK  6 active torsions:
REMARK  status: ('A' for Active; 'I' for Inactive)
REMARK    1  A    between atoms: C15_22  and  O1_1 
REMARK    2  A    between atoms: C9_16  and  O1_1 
REMARK    3  A    between atoms: C18_25  and  O2_2 
REMARK    4  A    between atoms: C6_13  and  O2_2 
REMARK    5  A    between atoms: C1_8  and  C6_13 
REMARK    6  A    between atoms: C4_11  and  C9_16 
ROOT
HETATM    1  O2  UNK     1      17.837  11.369   9.858  1.00  0.00    -0.279 OA
ENDROOT
BRANCH   1   2
HETATM    2  C18 UNK     1      16.893  10.432   9.580  1.00  0.00     0.082 A 
HETATM    3  C20 UNK     1      17.151   9.086   9.814  1.00  0.00     0.075 A 
HETATM    4  C16 UNK     1      16.167   8.140   9.519  1.00  0.00     0.093 A 
HETATM    5  C14 UNK     1      14.924   8.492   8.997  1.00  0.00     0.005 A 
HETATM    6  O3  UNK     1      16.494   6.796   9.768  1.00  0.00    -0.274 OA
HETATM    7  C7  UNK     1      13.948   7.426   8.718  1.00  0.00    -0.033 A 
HETATM    8  C19 UNK     1      14.687   9.854   8.760  1.00  0.00     0.017 A 
HETATM    9  C13 UNK     1      14.289   6.139   8.928  1.00  0.00     0.025 A 
HETATM   10  C8  UNK     1      12.579   7.811   8.200  1.00  0.00     0.040 C 
HETATM   11  C12 UNK     1      13.366   4.987   8.614  1.00  0.00     0.045 C 
HETATM   12  C17 UNK     1      15.614   5.763   9.484  1.00  0.00     0.295 A 
HETATM   13  C11 UNK     1      12.180   5.374   7.733  1.00  0.00     0.005 C 
HETATM   14  C10 UNK     1      11.557   6.672   8.220  1.00  0.00     0.005 C 
HETATM   15  O6  UNK     1      15.923   4.595   9.696  1.00  0.00    -0.259 OA
HETATM   16  C21 UNK     1      15.663  10.815   9.052  1.00  0.00     0.038 A 
ENDBRANCH   1   2
BRANCH   1  17
HETATM   17  C6  UNK     1      18.698  11.655   8.785  1.00  0.00     0.270 C 
HETATM   18  O4  UNK     1      18.468  11.430   7.605  1.00  0.00    -0.264 OA
BRANCH  17  19
HETATM   19  C1  UNK     1      19.962  12.283   9.293  1.00  0.00     0.114 C 
HETATM   20  C2  UNK     1      20.255  11.791  10.712  1.00  0.00     0.019 C 
HETATM   21  C3  UNK     1      21.610  12.304  11.185  1.00  0.00     0.047 C 
HETATM   22  C4  UNK     1      22.709  11.978  10.173  1.00  0.00     0.319 C 
HETATM   23  N1  UNK     1      22.390  12.501   8.845  1.00  0.00     0.098 N 
HETATM   24  C5  UNK     1      21.123  11.960   8.348  1.00  0.00     0.285 C 
HETATM   25  H9  UNK     1      23.134  12.254   8.192  1.00  0.00     0.317 HD
BRANCH  22  26
HETATM   26  C9  UNK     1      23.990  12.630  10.585  1.00  0.00     0.293 C 
HETATM   27  O5  UNK     1      24.088  13.806  10.907  1.00  0.00    -0.263 OA
BRANCH  26  28
HETATM   28  O1  UNK     1      25.001  11.716  10.540  1.00  0.00    -0.310 OA
BRANCH  28  29
HETATM   29  C15 UNK     1      25.748  11.564  11.752  1.00  0.00     0.060 C 
HETATM   30  C22 UNK     1      26.968  12.483  11.689  1.00  0.00     0.045 C 
HETATM   31  C23 UNK     1      26.180  10.103  11.847  1.00  0.00     0.045 C 
HETATM   32  C24 UNK     1      24.847  11.936  12.928  1.00  0.00     0.045 C 
ENDBRANCH  28  29
ENDBRANCH  26  28
ENDBRANCH  22  26
ENDBRANCH  17  19
ENDBRANCH   1  17
TORSDOF 6
ENDMDL
MODEL 9
REMARK VINA RESULT:      -8.7     17.543     20.613
REMARK  6 active torsions:
REMARK  status: ('A' for Active; 'I' for Inactive)
REMARK    1  A    between atoms: C15_22  and  O1_1 
REMARK    2  A    between atoms: C9_16  and  O1_1 
REMARK    3  A    between atoms: C18_25  and  O2_2 
REMARK    4  A    between atoms: C6_13  and  O2_2 
REMARK    5  A    between atoms: C1_8  and  C6_13 
REMARK    6  A    between atoms: C4_11  and  C9_16 
ROOT
HETATM    1  O2  UNK     1      18.619  -3.346  13.437  1.00  0.00    -0.279 OA
ENDROOT
BRANCH   1   2
HETATM    2  C18 UNK     1      18.711  -2.483  14.484  1.00  0.00     0.082 A 
HETATM    3  C20 UNK     1      18.881  -1.123  14.256  1.00  0.00     0.075 A 
HETATM    4  C16 UNK     1      18.975  -0.254  15.346  1.00  0.00     0.093 A 
HETATM    5  C14 UNK     1      18.899  -0.698  16.665  1.00  0.00     0.005 A 
HETATM    6  O3  UNK     1      19.159   1.108  15.050  1.00  0.00    -0.274 OA
HETATM    7  C7  UNK     1      19.005   0.291  17.750  1.00  0.00    -0.033 A 
HETATM    8  C19 UNK     1      18.734  -2.075  16.872  1.00  0.00     0.017 A 
HETATM    9  C13 UNK     1      19.217   1.588  17.451  1.00  0.00     0.025 A 
HETATM   10  C8  UNK     1      18.872  -0.182  19.181  1.00  0.00     0.040 C 
HETATM   11  C12 UNK     1      19.394   2.652  18.506  1.00  0.00     0.045 C 
HETATM   12  C17 UNK     1      19.299   2.062  16.045  1.00  0.00     0.295 A 
HETATM   13  C11 UNK     1      19.656   2.093  19.903  1.00  0.00     0.005 C 
HETATM   14  C10 UNK     1      18.707   0.944  20.203  1.00  0.00     0.005 C 
HETATM   15  O6  UNK     1      19.473   3.244  15.766  1.00  0.00    -0.259 OA
HETATM   16  C21 UNK     1      18.638  -2.959  15.790  1.00  0.00     0.038 A 
ENDBRANCH   1   2
BRANCH   1  17
HETATM   17  C6  UNK     1      19.859  -3.740  12.907  1.00  0.00     0.270 C 
HETATM   18  O4  UNK     1      20.756  -2.988  12.550  1.00  0.00    -0.264 OA
BRANCH  17  19
HETATM   19  C1  UNK     1      19.936  -5.237  12.836  1.00  0.00     0.114 C 
HETATM   20  C2  UNK     1      20.587  -5.662  11.518  1.00  0.00     0.019 C 
HETATM   21  C3  UNK     1      20.807  -7.171  11.494  1.00  0.00     0.047 C 
HETATM   22  C4  UNK     1      21.557  -7.640  12.741  1.00  0.00     0.319 C 
HETATM   23  N1  UNK     1      20.872  -7.233  13.968  1.00  0.00     0.098 N 
HETATM   24  C5  UNK     1      20.717  -5.779  14.036  1.00  0.00     0.285 C 
HETATM   25  H9  UNK     1      21.404  -7.548  14.779  1.00  0.00     0.317 HD
BRANCH  22  26
HETATM   26  C9  UNK     1      21.616  -9.133  12.767  1.00  0.00     0.293 C 
HETATM   27  O5  UNK     1      20.722  -9.862  12.360  1.00  0.00    -0.263 OA
BRANCH  26  28
HETATM   28  O1  UNK     1      22.802  -9.534  13.310  1.00  0.00    -0.310 OA
BRANCH  28  29
HETATM   29  C15 UNK     1      23.718 -10.150  12.400  1.00  0.00     0.060 C 
HETATM   30  C22 UNK     1      23.257 -11.585  12.144  1.00  0.00     0.045 C 
HETATM   31  C23 UNK     1      25.097 -10.138  13.056  1.00  0.00     0.045 C 
HETATM   32  C24 UNK     1      23.732  -9.343  11.103  1.00  0.00     0.045 C 
ENDBRANCH  28  29
ENDBRANCH  26  28
ENDBRANCH  22  26
ENDBRANCH  17  19
ENDBRANCH   1  17
TORSDOF 6
ENDMDL
MODEL 10
REMARK VINA RESULT:      -8.7     12.275     16.536
REMARK  6 active torsions:
REMARK  status: ('A' for Active; 'I' for Inactive)
REMARK    1  A    between atoms: C15_22  and  O1_1 
REMARK    2  A    between atoms: C9_16  and  O1_1 
REMARK    3  A    between atoms: C18_25  and  O2_2 
REMARK    4  A    between atoms: C6_13  and  O2_2 
REMARK    5  A    between atoms: C1_8  and  C6_13 
REMARK    6  A    between atoms: C4_11  and  C9_16 
ROOT
HETATM    1  O2  UNK     1      34.922  -5.744  36.646  1.00  0.00    -0.279 OA
ENDROOT
BRANCH   1   2
HETATM    2  C18 UNK     1      33.722  -6.228  37.063  1.00  0.00     0.082 A 
HETATM    3  C20 UNK     1      32.748  -5.362  37.545  1.00  0.00     0.075 A 
HETATM    4  C16 UNK     1      31.523  -5.881  37.971  1.00  0.00     0.093 A 
HETATM    5  C14 UNK     1      31.232  -7.244  37.928  1.00  0.00     0.005 A 
HETATM    6  O3  UNK     1      30.584  -4.956  38.458  1.00  0.00    -0.274 OA
HETATM    7  C7  UNK     1      29.913  -7.699  38.396  1.00  0.00    -0.033 A 
HETATM    8  C19 UNK     1      32.232  -8.100  37.445  1.00  0.00     0.017 A 
HETATM    9  C13 UNK     1      29.037  -6.804  38.893  1.00  0.00     0.025 A 
HETATM   10  C8  UNK     1      29.577  -9.172  38.302  1.00  0.00     0.040 C 
HETATM   11  C12 UNK     1      27.689  -7.199  39.445  1.00  0.00     0.045 C 
HETATM   12  C17 UNK     1      29.346  -5.352  38.940  1.00  0.00     0.295 A 
HETATM   13  C11 UNK     1      27.549  -8.698  39.707  1.00  0.00     0.005 C 
HETATM   14  C10 UNK     1      28.100  -9.496  38.537  1.00  0.00     0.005 C 
HETATM   15  O6  UNK     1      28.546  -4.530  39.374  1.00  0.00    -0.259 OA
HETATM   16  C21 UNK     1      33.466  -7.596  37.015  1.00  0.00     0.038 A 
ENDBRANCH   1   2
BRANCH   1  17
HETATM   17  C6  UNK     1      34.883  -5.116  35.390  1.00  0.00     0.270 C 
HETATM   18  O4  UNK     1      34.321  -4.058  35.137  1.00  0.00    -0.264 OA
BRANCH  17  19
HETATM   19  C1  UNK     1      35.636  -5.932  34.382  1.00  0.00     0.114 C 
HETATM   20  C2  UNK     1      36.552  -6.927  35.097  1.00  0.00     0.019 C 
HETATM   21  C3  UNK     1      37.212  -7.863  34.091  1.00  0.00     0.047 C 
HETATM   22  C4  UNK     1      36.174  -8.516  33.179  1.00  0.00     0.319 C 
HETATM   23  N1  UNK     1      35.350  -7.517  32.497  1.00  0.00     0.098 N 
HETATM   24  C5  UNK     1      34.655  -6.655  33.455  1.00  0.00     0.285 C 
HETATM   25  H9  UNK     1      34.660  -7.984  31.910  1.00  0.00     0.317 HD
BRANCH  22  26
HETATM   26  C9  UNK     1      36.859  -9.298  32.105  1.00  0.00     0.293 C 
HETATM   27  O5  UNK     1      36.595  -9.206  30.914  1.00  0.00    -0.263 OA
BRANCH  26  28
HETATM   28  O1  UNK     1      37.801 -10.112  32.664  1.00  0.00    -0.310 OA
BRANCH  28  29
HETATM   29  C15 UNK     1      37.411 -11.478  32.834  1.00  0.00     0.060 C 
HETATM   30  C22 UNK     1      37.879 -11.949  34.211  1.00  0.00     0.045 C 
HETATM   31  C23 UNK     1      38.088 -12.290  31.731  1.00  0.00     0.045 C 
HETATM   32  C24 UNK     1      35.892 -11.570  32.713  1.00  0.00     0.045 C 
ENDBRANCH  28  29
ENDBRANCH  26  28
ENDBRANCH  22  26
ENDBRANCH  17  19
ENDBRANCH   1  17
TORSDOF 6
ENDMDL
