MODEL 1
REMARK VINA RESULT:      -8.0      0.000      0.000
REMARK  3 active torsions:
REMARK  status: ('A' for Active; 'I' for Inactive)
REMARK    1  A    between atoms: C14_20  and  O4_4 
REMARK    2  A    between atoms: C3_9  and  N1_6 
REMARK    3  A    between atoms: C12_18  and  C14_20 
ROOT
HETATM    1  O2  UNK     1      18.107   2.750  32.394  1.00  0.00    -0.274 OA
HETATM    2  O3  UNK     1      18.459   0.514  32.078  1.00  0.00    -0.259 OA
HETATM    3  C3  UNK     1      17.787   6.407  32.262  1.00  0.00     0.033 A 
HETATM    4  C6  UNK     1      17.738   5.095  32.729  1.00  0.00     0.067 A 
HETATM    5  C7  UNK     1      18.264   6.675  30.977  1.00  0.00     0.030 A 
HETATM    6  C8  UNK     1      18.169   4.065  31.895  1.00  0.00     0.091 A 
HETATM    7  C9  UNK     1      18.648   4.312  30.612  1.00  0.00    -0.001 A 
HETATM    8  C10 UNK     1      18.694   5.630  30.152  1.00  0.00     0.016 A 
HETATM    9  C11 UNK     1      19.082   3.190  29.794  1.00  0.00     0.039 A 
HETATM   10  C12 UNK     1      19.021   1.942  30.274  1.00  0.00     0.114 A 
HETATM   11  C13 UNK     1      18.516   1.656  31.635  1.00  0.00     0.305 A 
ENDROOT
BRANCH   3  12
HETATM   12  N1  UNK     1      17.359   7.456  33.081  1.00  0.00    -0.377 N 
HETATM   13  C1  UNK     1      18.366   8.403  33.579  1.00  0.00     0.149 C 
HETATM   14  C4  UNK     1      17.689   9.704  33.993  1.00  0.00     0.187 C 
HETATM   15  O1  UNK     1      16.644   9.448  34.931  1.00  0.00    -0.388 OA
HETATM   16  C5  UNK     1      15.626   8.641  34.340  1.00  0.00     0.187 C 
HETATM   17  C2  UNK     1      16.187   7.278  33.945  1.00  0.00     0.149 C 
ENDBRANCH   3  12
BRANCH  10  18
HETATM   18  C14 UNK     1      19.483   0.879  29.375  1.00  0.00     0.182 C 
HETATM   19  O5  UNK     1      18.952   0.591  28.320  1.00  0.00    -0.646 OA
BRANCH  18  20
HETATM   20  O4  UNK     1      20.573   0.286  29.903  1.00  0.00    -0.772 OA
HETATM   21  H13 UNK     1      21.382   0.466  29.379  1.00  0.00     0.167 HD
ENDBRANCH  18  20
ENDBRANCH  10  18
TORSDOF 3
ENDMDL
MODEL 2
REMARK VINA RESULT:      -7.8      0.614      1.108
REMARK  3 active torsions:
REMARK  status: ('A' for Active; 'I' for Inactive)
REMARK    1  A    between atoms: C14_20  and  O4_4 
REMARK    2  A    between atoms: C3_9  and  N1_6 
REMARK    3  A    between atoms: C12_18  and  C14_20 
ROOT
HETATM    1  O2  UNK     1      18.218   2.388  32.296  1.00  0.00    -0.274 OA
HETATM    2  O3  UNK     1      18.491   0.160  31.864  1.00  0.00    -0.259 OA
HETATM    3  C3  UNK     1      17.997   6.055  32.343  1.00  0.00     0.033 A 
HETATM    4  C6  UNK     1      17.931   4.724  32.752  1.00  0.00     0.067 A 
HETATM    5  C7  UNK     1      18.424   6.369  31.051  1.00  0.00     0.030 A 
HETATM    6  C8  UNK     1      18.295   3.723  31.854  1.00  0.00     0.091 A 
HETATM    7  C9  UNK     1      18.723   4.016  30.563  1.00  0.00    -0.001 A 
HETATM    8  C10 UNK     1      18.787   5.353  30.162  1.00  0.00     0.016 A 
HETATM    9  C11 UNK     1      19.088   2.922  29.677  1.00  0.00     0.039 A 
HETATM   10  C12 UNK     1      19.013   1.656  30.103  1.00  0.00     0.114 A 
HETATM   11  C13 UNK     1      18.561   1.320  31.472  1.00  0.00     0.305 A 
ENDROOT
BRANCH   3  12
HETATM   12  N1  UNK     1      17.636   7.076  33.227  1.00  0.00    -0.377 N 
HETATM   13  C1  UNK     1      16.692   6.758  34.308  1.00  0.00     0.149 C 
HETATM   14  C4  UNK     1      16.817   7.792  35.420  1.00  0.00     0.187 C 
HETATM   15  O1  UNK     1      16.652   9.110  34.899  1.00  0.00    -0.388 OA
HETATM   16  C5  UNK     1      17.684   9.411  33.959  1.00  0.00     0.187 C 
HETATM   17  C2  UNK     1      17.608   8.469  32.763  1.00  0.00     0.149 C 
ENDBRANCH   3  12
BRANCH  10  18
HETATM   18  C14 UNK     1      19.404   0.623  29.136  1.00  0.00     0.182 C 
HETATM   19  O5  UNK     1      18.819   0.398  28.094  1.00  0.00    -0.646 OA
BRANCH  18  20
HETATM   20  O4  UNK     1      20.499  -0.023  29.588  1.00  0.00    -0.772 OA
HETATM   21  H13 UNK     1      20.309  -0.552  30.391  1.00  0.00     0.167 HD
ENDBRANCH  18  20
ENDBRANCH  10  18
TORSDOF 3
ENDMDL
MODEL 3
REMARK VINA RESULT:      -7.6      1.915      7.172
REMARK  3 active torsions:
REMARK  status: ('A' for Active; 'I' for Inactive)
REMARK    1  A    between atoms: C14_20  and  O4_4 
REMARK    2  A    between atoms: C3_9  and  N1_6 
REMARK    3  A    between atoms: C12_18  and  C14_20 
ROOT
HETATM    1  O2  UNK     1      17.351   5.489  33.637  1.00  0.00    -0.274 OA
HETATM    2  O3  UNK     1      16.567   6.986  35.176  1.00  0.00    -0.259 OA
HETATM    3  C3  UNK     1      18.751   3.642  30.786  1.00  0.00     0.033 A 
HETATM    4  C6  UNK     1      18.173   3.917  32.024  1.00  0.00     0.067 A 
HETATM    5  C7  UNK     1      19.082   4.688  29.922  1.00  0.00     0.030 A 
HETATM    6  C8  UNK     1      17.936   5.243  32.379  1.00  0.00     0.091 A 
HETATM    7  C9  UNK     1      18.259   6.298  31.532  1.00  0.00    -0.001 A 
HETATM    8  C10 UNK     1      18.838   6.014  30.293  1.00  0.00     0.016 A 
HETATM    9  C11 UNK     1      17.985   7.659  31.965  1.00  0.00     0.039 A 
HETATM   10  C12 UNK     1      17.429   7.886  33.162  1.00  0.00     0.114 A 
HETATM   11  C13 UNK     1      17.076   6.780  34.079  1.00  0.00     0.305 A 
ENDROOT
BRANCH   3  12
HETATM   12  N1  UNK     1      18.999   2.319  30.408  1.00  0.00    -0.377 N 
HETATM   13  C1  UNK     1      18.401   1.831  29.158  1.00  0.00     0.149 C 
HETATM   14  C4  UNK     1      19.165   0.607  28.666  1.00  0.00     0.187 C 
HETATM   15  O1  UNK     1      19.226  -0.388  29.687  1.00  0.00    -0.388 OA
HETATM   16  C5  UNK     1      19.944   0.099  30.821  1.00  0.00     0.187 C 
HETATM   17  C2  UNK     1      19.224   1.295  31.435  1.00  0.00     0.149 C 
ENDBRANCH   3  12
BRANCH  10  18
HETATM   18  C14 UNK     1      17.190   9.293  33.508  1.00  0.00     0.182 C 
HETATM   19  O5  UNK     1      18.044  10.158  33.503  1.00  0.00    -0.646 OA
BRANCH  18  20
HETATM   20  O4  UNK     1      15.890   9.461  33.828  1.00  0.00    -0.772 OA
HETATM   21  H13 UNK     1      15.443   8.609  34.016  1.00  0.00     0.167 HD
ENDBRANCH  18  20
ENDBRANCH  10  18
TORSDOF 3
ENDMDL
MODEL 4
REMARK VINA RESULT:      -7.5      1.843      3.293
REMARK  3 active torsions:
REMARK  status: ('A' for Active; 'I' for Inactive)
REMARK    1  A    between atoms: C14_20  and  O4_4 
REMARK    2  A    between atoms: C3_9  and  N1_6 
REMARK    3  A    between atoms: C12_18  and  C14_20 
ROOT
HETATM    1  O2  UNK     1      19.391   1.604  29.609  1.00  0.00    -0.274 OA
HETATM    2  O3  UNK     1      20.201  -0.171  28.420  1.00  0.00    -0.259 OA
HETATM    3  C3  UNK     1      18.090   4.020  32.051  1.00  0.00     0.033 A 
HETATM    4  C6  UNK     1      18.542   3.468  30.854  1.00  0.00     0.067 A 
HETATM    5  C7  UNK     1      18.039   3.237  33.207  1.00  0.00     0.030 A 
HETATM    6  C8  UNK     1      18.939   2.133  30.834  1.00  0.00     0.091 A 
HETATM    7  C9  UNK     1      18.896   1.337  31.974  1.00  0.00    -0.001 A 
HETATM    8  C10 UNK     1      18.441   1.898  33.170  1.00  0.00     0.016 A 
HETATM    9  C11 UNK     1      19.326  -0.049  31.882  1.00  0.00     0.039 A 
HETATM   10  C12 UNK     1      19.754  -0.546  30.715  1.00  0.00     0.114 A 
HETATM   11  C13 UNK     1      19.808   0.281  29.490  1.00  0.00     0.305 A 
ENDROOT
BRANCH   3  12
HETATM   12  N1  UNK     1      17.686   5.358  32.097  1.00  0.00    -0.377 N 
HETATM   13  C1  UNK     1      18.183   6.268  31.055  1.00  0.00     0.149 C 
HETATM   14  C4  UNK     1      17.274   7.488  30.962  1.00  0.00     0.187 C 
HETATM   15  O1  UNK     1      17.141   8.112  32.239  1.00  0.00    -0.388 OA
HETATM   16  C5  UNK     1      16.521   7.224  33.169  1.00  0.00     0.187 C 
HETATM   17  C2  UNK     1      17.388   5.989  33.388  1.00  0.00     0.149 C 
ENDBRANCH   3  12
BRANCH  10  18
HETATM   18  C14 UNK     1      20.165  -1.955  30.723  1.00  0.00     0.182 C 
HETATM   19  O5  UNK     1      20.796  -2.483  31.619  1.00  0.00    -0.646 OA
BRANCH  18  20
HETATM   20  O4  UNK     1      19.736  -2.554  29.594  1.00  0.00    -0.772 OA
HETATM   21  H13 UNK     1      20.102  -3.459  29.494  1.00  0.00     0.167 HD
ENDBRANCH  18  20
ENDBRANCH  10  18
TORSDOF 3
ENDMDL
MODEL 5
REMARK VINA RESULT:      -7.5     14.794     18.805
REMARK  3 active torsions:
REMARK  status: ('A' for Active; 'I' for Inactive)
REMARK    1  A    between atoms: C14_20  and  O4_4 
REMARK    2  A    between atoms: C3_9  and  N1_6 
REMARK    3  A    between atoms: C12_18  and  C14_20 
ROOT
HETATM    1  O2  UNK     1      19.358   1.542  15.434  1.00  0.00    -0.274 OA
HETATM    2  O3  UNK     1      19.371   3.528  16.564  1.00  0.00    -0.259 OA
HETATM    3  C3  UNK     1      19.241  -1.930  14.239  1.00  0.00     0.033 A 
HETATM    4  C6  UNK     1      19.345  -0.540  14.246  1.00  0.00     0.067 A 
HETATM    5  C7  UNK     1      19.045  -2.622  15.435  1.00  0.00     0.030 A 
HETATM    6  C8  UNK     1      19.249   0.138  15.459  1.00  0.00     0.091 A 
HETATM    7  C9  UNK     1      19.054  -0.534  16.661  1.00  0.00    -0.001 A 
HETATM    8  C10 UNK     1      18.951  -1.927  16.646  1.00  0.00     0.016 A 
HETATM    9  C11 UNK     1      18.962   0.236  17.892  1.00  0.00     0.039 A 
HETATM   10  C12 UNK     1      19.066   1.570  17.862  1.00  0.00     0.114 A 
HETATM   11  C13 UNK     1      19.275   2.306  16.595  1.00  0.00     0.305 A 
ENDROOT
BRANCH   3  12
HETATM   12  N1  UNK     1      19.334  -2.632  13.033  1.00  0.00    -0.377 N 
HETATM   13  C1  UNK     1      19.214  -1.876  11.779  1.00  0.00     0.149 C 
HETATM   14  C4  UNK     1      19.831  -2.674  10.636  1.00  0.00     0.187 C 
HETATM   15  O1  UNK     1      19.253  -3.977  10.566  1.00  0.00    -0.388 OA
HETATM   16  C5  UNK     1      19.528  -4.712  11.758  1.00  0.00     0.187 C 
HETATM   17  C2  UNK     1      18.892  -4.030  12.965  1.00  0.00     0.149 C 
ENDBRANCH   3  12
BRANCH  10  18
HETATM   18  C14 UNK     1      18.963   2.257  19.155  1.00  0.00     0.182 C 
HETATM   19  O5  UNK     1      18.177   1.957  20.032  1.00  0.00    -0.646 OA
BRANCH  18  20
HETATM   20  O4  UNK     1      19.866   3.258  19.205  1.00  0.00    -0.772 OA
HETATM   21  H13 UNK     1      19.445   4.126  19.375  1.00  0.00     0.167 HD
ENDBRANCH  18  20
ENDBRANCH  10  18
TORSDOF 3
ENDMDL
MODEL 6
REMARK VINA RESULT:      -7.4      2.643      7.226
REMARK  3 active torsions:
REMARK  status: ('A' for Active; 'I' for Inactive)
REMARK    1  A    between atoms: C14_20  and  O4_4 
REMARK    2  A    between atoms: C3_9  and  N1_6 
REMARK    3  A    between atoms: C12_18  and  C14_20 
ROOT
HETATM    1  O2  UNK     1      17.799   4.432  33.161  1.00  0.00    -0.274 OA
HETATM    2  O3  UNK     1      17.062   6.322  34.212  1.00  0.00    -0.259 OA
HETATM    3  C3  UNK     1      18.996   1.787  30.910  1.00  0.00     0.033 A 
HETATM    4  C6  UNK     1      18.573   2.446  32.063  1.00  0.00     0.067 A 
HETATM    5  C7  UNK     1      19.066   2.475  29.697  1.00  0.00     0.030 A 
HETATM    6  C8  UNK     1      18.224   3.793  31.980  1.00  0.00     0.091 A 
HETATM    7  C9  UNK     1      18.286   4.495  30.781  1.00  0.00    -0.001 A 
HETATM    8  C10 UNK     1      18.712   3.826  29.630  1.00  0.00     0.016 A 
HETATM    9  C11 UNK     1      17.908   5.899  30.766  1.00  0.00     0.039 A 
HETATM   10  C12 UNK     1      17.505   6.500  31.892  1.00  0.00     0.114 A 
HETATM   11  C13 UNK     1      17.430   5.774  33.179  1.00  0.00     0.305 A 
ENDROOT
BRANCH   3  12
HETATM   12  N1  UNK     1      19.352   0.436  30.968  1.00  0.00    -0.377 N 
HETATM   13  C1  UNK     1      19.207  -0.266  32.251  1.00  0.00     0.149 C 
HETATM   14  C4  UNK     1      19.143  -1.769  32.011  1.00  0.00     0.187 C 
HETATM   15  O1  UNK     1      20.274  -2.204  31.257  1.00  0.00    -0.388 OA
HETATM   16  C5  UNK     1      20.280  -1.595  29.965  1.00  0.00     0.187 C 
HETATM   17  C2  UNK     1      20.409  -0.080  30.090  1.00  0.00     0.149 C 
ENDBRANCH   3  12
BRANCH  10  18
HETATM   18  C14 UNK     1      17.142   7.918  31.775  1.00  0.00     0.182 C 
HETATM   19  O5  UNK     1      16.420   8.375  30.910  1.00  0.00    -0.646 OA
BRANCH  18  20
HETATM   20  O4  UNK     1      17.733   8.616  32.767  1.00  0.00    -0.772 OA
HETATM   21  H13 UNK     1      18.521   8.154  33.124  1.00  0.00     0.167 HD
ENDBRANCH  18  20
ENDBRANCH  10  18
TORSDOF 3
ENDMDL
MODEL 7
REMARK VINA RESULT:      -7.3     22.387     24.294
REMARK  3 active torsions:
REMARK  status: ('A' for Active; 'I' for Inactive)
REMARK    1  A    between atoms: C14_20  and  O4_4 
REMARK    2  A    between atoms: C3_9  and  N1_6 
REMARK    3  A    between atoms: C12_18  and  C14_20 
ROOT
HETATM    1  O2  UNK     1      10.785   8.008   9.473  1.00  0.00    -0.274 OA
HETATM    2  O3  UNK     1       8.548   8.475   9.516  1.00  0.00    -0.259 OA
HETATM    3  C3  UNK     1      14.192   6.701   9.047  1.00  0.00     0.033 A 
HETATM    4  C6  UNK     1      13.132   7.521   9.430  1.00  0.00     0.067 A 
HETATM    5  C7  UNK     1      13.946   5.537   8.315  1.00  0.00     0.030 A 
HETATM    6  C8  UNK     1      11.835   7.160   9.072  1.00  0.00     0.091 A 
HETATM    7  C9  UNK     1      11.571   6.004   8.343  1.00  0.00    -0.001 A 
HETATM    8  C10 UNK     1      12.639   5.188   7.963  1.00  0.00     0.016 A 
HETATM    9  C11 UNK     1      10.193   5.687   8.002  1.00  0.00     0.039 A 
HETATM   10  C12 UNK     1       9.199   6.497   8.387  1.00  0.00     0.114 A 
HETATM   11  C13 UNK     1       9.457   7.731   9.162  1.00  0.00     0.305 A 
ENDROOT
BRANCH   3  12
HETATM   12  N1  UNK     1      15.502   7.044   9.395  1.00  0.00    -0.377 N 
HETATM   13  C1  UNK     1      16.468   5.958   9.617  1.00  0.00     0.149 C 
HETATM   14  C4  UNK     1      17.887   6.495   9.476  1.00  0.00     0.187 C 
HETATM   15  O1  UNK     1      18.087   7.612  10.341  1.00  0.00    -0.388 OA
HETATM   16  C5  UNK     1      17.219   8.686   9.982  1.00  0.00     0.187 C 
HETATM   17  C2  UNK     1      15.760   8.274  10.152  1.00  0.00     0.149 C 
ENDBRANCH   3  12
BRANCH  10  18
HETATM   18  C14 UNK     1       7.844   6.091   7.996  1.00  0.00     0.182 C 
HETATM   19  O5  UNK     1       7.419   4.954   8.067  1.00  0.00    -0.646 OA
BRANCH  18  20
HETATM   20  O4  UNK     1       7.163   7.168   7.552  1.00  0.00    -0.772 OA
HETATM   21  H13 UNK     1       7.595   8.009   7.811  1.00  0.00     0.167 HD
ENDBRANCH  18  20
ENDBRANCH  10  18
TORSDOF 3
ENDMDL
MODEL 8
REMARK VINA RESULT:      -7.2      2.836      4.637
REMARK  3 active torsions:
REMARK  status: ('A' for Active; 'I' for Inactive)
REMARK    1  A    between atoms: C14_20  and  O4_4 
REMARK    2  A    between atoms: C3_9  and  N1_6 
REMARK    3  A    between atoms: C12_18  and  C14_20 
ROOT
HETATM    1  O2  UNK     1      19.301   7.756  33.520  1.00  0.00    -0.274 OA
HETATM    2  O3  UNK     1      21.029   6.367  32.962  1.00  0.00    -0.259 OA
HETATM    3  C3  UNK     1      16.210   9.708  33.872  1.00  0.00     0.033 A 
HETATM    4  C6  UNK     1      17.491   9.213  34.108  1.00  0.00     0.067 A 
HETATM    5  C7  UNK     1      15.461   9.228  32.795  1.00  0.00     0.030 A 
HETATM    6  C8  UNK     1      18.004   8.237  33.256  1.00  0.00     0.091 A 
HETATM    7  C9  UNK     1      17.274   7.746  32.179  1.00  0.00    -0.001 A 
HETATM    8  C10 UNK     1      15.991   8.249  31.949  1.00  0.00     0.016 A 
HETATM    9  C11 UNK     1      17.871   6.727  31.329  1.00  0.00     0.039 A 
HETATM   10  C12 UNK     1      19.104   6.274  31.585  1.00  0.00     0.114 A 
HETATM   11  C13 UNK     1      19.899   6.781  32.725  1.00  0.00     0.305 A 
ENDROOT
BRANCH   3  12
HETATM   12  N1  UNK     1      15.673  10.687  34.714  1.00  0.00    -0.377 N 
HETATM   13  C1  UNK     1      14.279  10.536  35.155  1.00  0.00     0.149 C 
HETATM   14  C4  UNK     1      14.045  11.362  36.413  1.00  0.00     0.187 C 
HETATM   15  O1  UNK     1      14.421  12.721  36.197  1.00  0.00    -0.388 OA
HETATM   16  C5  UNK     1      15.817  12.816  35.913  1.00  0.00     0.187 C 
HETATM   17  C2  UNK     1      16.153  12.072  34.625  1.00  0.00     0.149 C 
ENDBRANCH   3  12
BRANCH  10  18
HETATM   18  C14 UNK     1      19.619   5.247  30.671  1.00  0.00     0.182 C 
HETATM   19  O5  UNK     1      19.024   4.230  30.373  1.00  0.00    -0.646 OA
BRANCH  18  20
HETATM   20  O4  UNK     1      20.839   5.614  30.227  1.00  0.00    -0.772 OA
HETATM   21  H13 UNK     1      21.391   4.840  29.984  1.00  0.00     0.167 HD
ENDBRANCH  18  20
ENDBRANCH  10  18
TORSDOF 3
ENDMDL
MODEL 9
REMARK VINA RESULT:      -7.2     22.308     23.905
REMARK  3 active torsions:
REMARK  status: ('A' for Active; 'I' for Inactive)
REMARK    1  A    between atoms: C14_20  and  O4_4 
REMARK    2  A    between atoms: C3_9  and  N1_6 
REMARK    3  A    between atoms: C12_18  and  C14_20 
ROOT
HETATM    1  O2  UNK     1      11.258   5.052   9.909  1.00  0.00    -0.274 OA
HETATM    2  O3  UNK     1       9.322   3.855  10.110  1.00  0.00    -0.259 OA
HETATM    3  C3  UNK     1      13.983   7.422   9.235  1.00  0.00     0.033 A 
HETATM    4  C6  UNK     1      13.291   6.306   9.701  1.00  0.00     0.067 A 
HETATM    5  C7  UNK     1      13.313   8.404   8.502  1.00  0.00     0.030 A 
HETATM    6  C8  UNK     1      11.930   6.191   9.425  1.00  0.00     0.091 A 
HETATM    7  C9  UNK     1      11.245   7.159   8.697  1.00  0.00    -0.001 A 
HETATM    8  C10 UNK     1      11.946   8.274   8.233  1.00  0.00     0.016 A 
HETATM    9  C11 UNK     1       9.824   6.976   8.445  1.00  0.00     0.039 A 
HETATM   10  C12 UNK     1       9.192   5.891   8.908  1.00  0.00     0.114 A 
HETATM   11  C13 UNK     1       9.899   4.849   9.684  1.00  0.00     0.305 A 
ENDROOT
BRANCH   3  12
HETATM   12  N1  UNK     1      15.349   7.559   9.500  1.00  0.00    -0.377 N 
HETATM   13  C1  UNK     1      16.124   6.346   9.794  1.00  0.00     0.149 C 
HETATM   14  C4  UNK     1      17.605   6.610   9.550  1.00  0.00     0.187 C 
HETATM   15  O1  UNK     1      18.039   7.749  10.292  1.00  0.00    -0.388 OA
HETATM   16  C5  UNK     1      17.350   8.922   9.860  1.00  0.00     0.187 C 
HETATM   17  C2  UNK     1      15.853   8.789  10.122  1.00  0.00     0.149 C 
ENDBRANCH   3  12
BRANCH  10  18
HETATM   18  C14 UNK     1       7.759   5.797   8.601  1.00  0.00     0.182 C 
HETATM   19  O5  UNK     1       6.938   6.648   8.881  1.00  0.00    -0.646 OA
BRANCH  18  20
HETATM   20  O4  UNK     1       7.512   4.631   7.970  1.00  0.00    -0.772 OA
HETATM   21  H13 UNK     1       6.588   4.329   8.102  1.00  0.00     0.167 HD
ENDBRANCH  18  20
ENDBRANCH  10  18
TORSDOF 3
ENDMDL
MODEL 10
REMARK VINA RESULT:      -7.2     16.482     19.467
REMARK  3 active torsions:
REMARK  status: ('A' for Active; 'I' for Inactive)
REMARK    1  A    between atoms: C14_20  and  O4_4 
REMARK    2  A    between atoms: C3_9  and  N1_6 
REMARK    3  A    between atoms: C12_18  and  C14_20 
ROOT
HETATM    1  O2  UNK     1      31.168  -6.856  37.283  1.00  0.00    -0.274 OA
HETATM    2  O3  UNK     1      29.452  -7.071  38.778  1.00  0.00    -0.259 OA
HETATM    3  C3  UNK     1      33.836  -5.836  34.974  1.00  0.00     0.033 A 
HETATM    4  C6  UNK     1      32.967  -6.634  35.715  1.00  0.00     0.067 A 
HETATM    5  C7  UNK     1      33.762  -4.444  35.073  1.00  0.00     0.030 A 
HETATM    6  C8  UNK     1      32.032  -6.023  36.548  1.00  0.00     0.091 A 
HETATM    7  C9  UNK     1      31.943  -4.639  36.659  1.00  0.00    -0.001 A 
HETATM    8  C10 UNK     1      32.818  -3.846  35.913  1.00  0.00     0.016 A 
HETATM    9  C11 UNK     1      30.944  -4.066  37.548  1.00  0.00     0.039 A 
HETATM   10  C12 UNK     1      30.125  -4.864  38.244  1.00  0.00     0.114 A 
HETATM   11  C13 UNK     1      30.201  -6.338  38.141  1.00  0.00     0.305 A 
ENDROOT
BRANCH   3  12
HETATM   12  N1  UNK     1      34.783  -6.426  34.132  1.00  0.00    -0.377 N 
HETATM   13  C1  UNK     1      34.335  -6.920  32.822  1.00  0.00     0.149 C 
HETATM   14  C4  UNK     1      35.529  -7.043  31.883  1.00  0.00     0.187 C 
HETATM   15  O1  UNK     1      36.547  -7.853  32.472  1.00  0.00    -0.388 OA
HETATM   16  C5  UNK     1      37.041  -7.248  33.666  1.00  0.00     0.187 C 
HETATM   17  C2  UNK     1      35.932  -7.136  34.707  1.00  0.00     0.149 C 
ENDBRANCH   3  12
BRANCH  10  18
HETATM   18  C14 UNK     1      29.151  -4.192  39.112  1.00  0.00     0.182 C 
HETATM   19  O5  UNK     1      29.439  -3.556  40.107  1.00  0.00    -0.646 OA
BRANCH  18  20
HETATM   20  O4  UNK     1      27.907  -4.395  38.631  1.00  0.00    -0.772 OA
HETATM   21  H13 UNK     1      27.915  -4.884  37.781  1.00  0.00     0.167 HD
ENDBRANCH  18  20
ENDBRANCH  10  18
TORSDOF 3
ENDMDL
