MODEL 1
REMARK VINA RESULT:      -9.2      0.000      0.000
REMARK  3 active torsions:
REMARK  status: ('A' for Active; 'I' for Inactive)
REMARK    1  A    between atoms: C10_17  and  O2_2 
REMARK    2  A    between atoms: C5_12  and  O2_2 
REMARK    3  A    between atoms: C12_19  and  N1_6 
ROOT
HETATM    1  N2  UNK     1      15.958   0.816  34.537  1.00  0.00    -0.191 NA
HETATM    2  C10 UNK     1      19.640  -2.502  36.579  1.00  0.00     0.109 A 
HETATM    3  C12 UNK     1      19.778  -2.061  35.275  1.00  0.00     0.138 A 
HETATM    4  C13 UNK     1      18.573  -2.106  37.369  1.00  0.00     0.041 A 
HETATM    5  C14 UNK     1      18.820  -1.198  34.742  1.00  0.00     0.061 A 
HETATM    6  C15 UNK     1      17.616  -1.242  36.837  1.00  0.00     0.025 A 
HETATM    7  C16 UNK     1      17.739  -0.788  35.524  1.00  0.00     0.047 A 
HETATM    8  C17 UNK     1      16.758   0.096  34.980  1.00  0.00     0.099 C 
ENDROOT
BRANCH   3   9
HETATM    9  N1  UNK     1      20.872  -2.470  34.464  1.00  0.00    -0.113 N 
HETATM   10  O4  UNK     1      22.000  -1.960  34.666  1.00  0.00    -0.532 OA
HETATM   11  O5  UNK     1      20.677  -3.327  33.570  1.00  0.00    -0.532 OA
ENDBRANCH   3   9
BRANCH   2  12
HETATM   12  O2  UNK     1      20.577  -3.360  37.131  1.00  0.00    -0.308 OA
BRANCH  12  13
HETATM   13  C5  UNK     1      20.212  -4.658  37.319  1.00  0.00     0.077 A 
HETATM   14  C4  UNK     1      20.987  -5.488  38.136  1.00  0.00     0.052 A 
HETATM   15  C1  UNK     1      20.630  -6.827  38.343  1.00  0.00     0.007 A 
HETATM   16  C2  UNK     1      19.480  -7.296  37.706  1.00  0.00     0.090 A 
HETATM   17  C3  UNK     1      21.395  -7.757  39.186  1.00  0.00    -0.043 A 
HETATM   18  O1  UNK     1      19.053  -8.630  37.861  1.00  0.00    -0.275 OA
HETATM   19  C6  UNK     1      18.696  -6.480  36.887  1.00  0.00     0.041 A 
HETATM   20  C11 UNK     1      19.755  -9.529  38.649  1.00  0.00     0.288 A 
HETATM   21  O3  UNK     1      19.393 -10.691  38.790  1.00  0.00    -0.260 OA
HETATM   22  C8  UNK     1      20.965  -9.019  39.315  1.00  0.00     0.090 A 
HETATM   23  C7  UNK     1      19.068  -5.154  36.695  1.00  0.00     0.040 A 
HETATM   24  C9  UNK     1      22.636  -7.284  39.886  1.00  0.00     0.049 C 
ENDBRANCH  12  13
ENDBRANCH   2  12
TORSDOF 3
ENDMDL
MODEL 2
REMARK VINA RESULT:      -8.9      8.116     12.036
REMARK  3 active torsions:
REMARK  status: ('A' for Active; 'I' for Inactive)
REMARK    1  A    between atoms: C10_17  and  O2_2 
REMARK    2  A    between atoms: C5_12  and  O2_2 
REMARK    3  A    between atoms: C12_19  and  N1_6 
ROOT
HETATM    1  N2  UNK     1      20.876  -2.107  29.732  1.00  0.00    -0.191 NA
HETATM    2  C10 UNK     1      18.215   2.342  31.096  1.00  0.00     0.109 A 
HETATM    3  C12 UNK     1      18.503   1.403  32.070  1.00  0.00     0.138 A 
HETATM    4  C13 UNK     1      18.598   2.160  29.777  1.00  0.00     0.041 A 
HETATM    5  C14 UNK     1      19.196   0.244  31.716  1.00  0.00     0.061 A 
HETATM    6  C15 UNK     1      19.291   1.002  29.424  1.00  0.00     0.025 A 
HETATM    7  C16 UNK     1      19.589   0.045  30.392  1.00  0.00     0.047 A 
HETATM    8  C17 UNK     1      20.299  -1.141  30.029  1.00  0.00     0.099 C 
ENDROOT
BRANCH   3   9
HETATM    9  N1  UNK     1      18.108   1.589  33.423  1.00  0.00    -0.113 N 
HETATM   10  O4  UNK     1      16.944   1.272  33.764  1.00  0.00    -0.532 OA
HETATM   11  O5  UNK     1      18.936   2.066  34.235  1.00  0.00    -0.532 OA
ENDBRANCH   3   9
BRANCH   2  12
HETATM   12  O2  UNK     1      17.529   3.500  31.422  1.00  0.00    -0.308 OA
BRANCH  12  13
HETATM   13  C5  UNK     1      18.254   4.555  31.886  1.00  0.00     0.077 A 
HETATM   14  C4  UNK     1      17.728   5.372  32.892  1.00  0.00     0.052 A 
HETATM   15  C1  UNK     1      18.457   6.463  33.385  1.00  0.00     0.007 A 
HETATM   16  C2  UNK     1      19.719   6.699  32.836  1.00  0.00     0.090 A 
HETATM   17  C3  UNK     1      17.970   7.364  34.439  1.00  0.00    -0.043 A 
HETATM   18  O1  UNK     1      20.515   7.775  33.275  1.00  0.00    -0.275 OA
HETATM   19  C6  UNK     1      20.257   5.892  31.831  1.00  0.00     0.041 A 
HETATM   20  C11 UNK     1      20.081   8.642  34.266  1.00  0.00     0.288 A 
HETATM   21  O3  UNK     1      20.765   9.582  34.654  1.00  0.00    -0.260 OA
HETATM   22  C8  UNK     1      18.748   8.379  34.836  1.00  0.00     0.090 A 
HETATM   23  C7  UNK     1      19.517   4.815  31.356  1.00  0.00     0.040 A 
HETATM   24  C9  UNK     1      16.618   7.137  35.051  1.00  0.00     0.049 C 
ENDBRANCH  12  13
ENDBRANCH   2  12
TORSDOF 3
ENDMDL
MODEL 3
REMARK VINA RESULT:      -8.8      7.807     10.868
REMARK  3 active torsions:
REMARK  status: ('A' for Active; 'I' for Inactive)
REMARK    1  A    between atoms: C10_17  and  O2_2 
REMARK    2  A    between atoms: C5_12  and  O2_2 
REMARK    3  A    between atoms: C12_19  and  N1_6 
ROOT
HETATM    1  N2  UNK     1      20.872   9.869  34.683  1.00  0.00    -0.191 NA
HETATM    2  C10 UNK     1      17.956   5.788  32.793  1.00  0.00     0.109 A 
HETATM    3  C12 UNK     1      17.560   7.084  32.517  1.00  0.00     0.138 A 
HETATM    4  C13 UNK     1      19.087   5.519  33.546  1.00  0.00     0.041 A 
HETATM    5  C14 UNK     1      18.319   8.147  33.008  1.00  0.00     0.061 A 
HETATM    6  C15 UNK     1      19.846   6.582  34.036  1.00  0.00     0.025 A 
HETATM    7  C16 UNK     1      19.462   7.895  33.768  1.00  0.00     0.047 A 
HETATM    8  C17 UNK     1      20.239   8.983  34.272  1.00  0.00     0.099 C 
ENDROOT
BRANCH   3   9
HETATM    9  N1  UNK     1      16.398   7.359  31.745  1.00  0.00    -0.113 N 
HETATM   10  O4  UNK     1      15.293   6.907  32.132  1.00  0.00    -0.532 OA
HETATM   11  O5  UNK     1      16.511   8.045  30.702  1.00  0.00    -0.532 OA
ENDBRANCH   3   9
BRANCH   2  12
HETATM   12  O2  UNK     1      17.220   4.715  32.316  1.00  0.00    -0.308 OA
BRANCH  12  13
HETATM   13  C5  UNK     1      17.880   3.767  31.596  1.00  0.00     0.077 A 
HETATM   14  C4  UNK     1      18.122   2.508  32.158  1.00  0.00     0.052 A 
HETATM   15  C1  UNK     1      18.799   1.518  31.434  1.00  0.00     0.007 A 
HETATM   16  C2  UNK     1      19.219   1.834  30.141  1.00  0.00     0.090 A 
HETATM   17  C3  UNK     1      19.088   0.176  31.959  1.00  0.00    -0.043 A 
HETATM   18  O1  UNK     1      19.907   0.894  29.348  1.00  0.00    -0.275 OA
HETATM   19  C6  UNK     1      18.985   3.085  29.567  1.00  0.00     0.041 A 
HETATM   20  C11 UNK     1      20.195  -0.378  29.817  1.00  0.00     0.288 A 
HETATM   21  O3  UNK     1      20.794  -1.203  29.136  1.00  0.00    -0.260 OA
HETATM   22  C8  UNK     1      19.745  -0.697  31.182  1.00  0.00     0.090 A 
HETATM   23  C7  UNK     1      18.311   4.054  30.302  1.00  0.00     0.040 A 
HETATM   24  C9  UNK     1      18.650  -0.197  33.345  1.00  0.00     0.049 C 
ENDBRANCH  12  13
ENDBRANCH   2  12
TORSDOF 3
ENDMDL
MODEL 4
REMARK VINA RESULT:      -8.6      8.663     13.106
REMARK  3 active torsions:
REMARK  status: ('A' for Active; 'I' for Inactive)
REMARK    1  A    between atoms: C10_17  and  O2_2 
REMARK    2  A    between atoms: C5_12  and  O2_2 
REMARK    3  A    between atoms: C12_19  and  N1_6 
ROOT
HETATM    1  N2  UNK     1      18.661   1.065  28.197  1.00  0.00    -0.191 NA
HETATM    2  C10 UNK     1      18.305   3.696  32.854  1.00  0.00     0.109 A 
HETATM    3  C12 UNK     1      18.198   2.317  32.848  1.00  0.00     0.138 A 
HETATM    4  C13 UNK     1      18.502   4.413  31.685  1.00  0.00     0.041 A 
HETATM    5  C14 UNK     1      18.290   1.631  31.637  1.00  0.00     0.061 A 
HETATM    6  C15 UNK     1      18.595   3.727  30.474  1.00  0.00     0.025 A 
HETATM    7  C16 UNK     1      18.489   2.337  30.450  1.00  0.00     0.047 A 
HETATM    8  C17 UNK     1      18.584   1.636  29.208  1.00  0.00     0.099 C 
ENDROOT
BRANCH   3   9
HETATM    9  N1  UNK     1      17.994   1.582  34.049  1.00  0.00    -0.113 N 
HETATM   10  O4  UNK     1      16.858   1.106  34.282  1.00  0.00    -0.532 OA
HETATM   11  O5  UNK     1      18.956   1.432  34.838  1.00  0.00    -0.532 OA
ENDBRANCH   3   9
BRANCH   2  12
HETATM   12  O2  UNK     1      18.217   4.400  34.044  1.00  0.00    -0.308 OA
BRANCH  12  13
HETATM   13  C5  UNK     1      18.346   5.755  33.987  1.00  0.00     0.077 A 
HETATM   14  C4  UNK     1      17.205   6.564  34.019  1.00  0.00     0.052 A 
HETATM   15  C1  UNK     1      17.315   7.960  33.962  1.00  0.00     0.007 A 
HETATM   16  C2  UNK     1      18.596   8.506  33.873  1.00  0.00     0.090 A 
HETATM   17  C3  UNK     1      16.163   8.873  33.991  1.00  0.00    -0.043 A 
HETATM   18  O1  UNK     1      18.792   9.899  33.811  1.00  0.00    -0.275 OA
HETATM   19  C6  UNK     1      19.744   7.711  33.840  1.00  0.00     0.041 A 
HETATM   20  C11 UNK     1      17.725  10.784  33.834  1.00  0.00     0.288 A 
HETATM   21  O3  UNK     1      17.884  11.998  33.779  1.00  0.00    -0.260 OA
HETATM   22  C8  UNK     1      16.379  10.193  33.929  1.00  0.00     0.090 A 
HETATM   23  C7  UNK     1      19.613   6.327  33.898  1.00  0.00     0.040 A 
HETATM   24  C9  UNK     1      14.771   8.318  34.087  1.00  0.00     0.049 C 
ENDBRANCH  12  13
ENDBRANCH   2  12
TORSDOF 3
ENDMDL
MODEL 5
REMARK VINA RESULT:      -8.6      0.932      2.174
REMARK  3 active torsions:
REMARK  status: ('A' for Active; 'I' for Inactive)
REMARK    1  A    between atoms: C10_17  and  O2_2 
REMARK    2  A    between atoms: C5_12  and  O2_2 
REMARK    3  A    between atoms: C12_19  and  N1_6 
ROOT
HETATM    1  N2  UNK     1      15.747   0.206  35.280  1.00  0.00    -0.191 NA
HETATM    2  C10 UNK     1      20.060  -2.741  36.481  1.00  0.00     0.109 A 
HETATM    3  C12 UNK     1      19.923  -2.237  35.200  1.00  0.00     0.138 A 
HETATM    4  C13 UNK     1      19.109  -2.503  37.460  1.00  0.00     0.041 A 
HETATM    5  C14 UNK     1      18.801  -1.469  34.886  1.00  0.00     0.061 A 
HETATM    6  C15 UNK     1      17.988  -1.735  37.146  1.00  0.00     0.025 A 
HETATM    7  C16 UNK     1      17.834  -1.219  35.860  1.00  0.00     0.047 A 
HETATM    8  C17 UNK     1      16.684  -0.433  35.540  1.00  0.00     0.099 C 
ENDROOT
BRANCH   3   9
HETATM    9  N1  UNK     1      20.899  -2.484  34.195  1.00  0.00    -0.113 N 
HETATM   10  O4  UNK     1      20.574  -3.156  33.188  1.00  0.00    -0.532 OA
HETATM   11  O5  UNK     1      22.054  -2.022  34.346  1.00  0.00    -0.532 OA
ENDBRANCH   3   9
BRANCH   2  12
HETATM   12  O2  UNK     1      21.165  -3.506  36.818  1.00  0.00    -0.308 OA
BRANCH  12  13
HETATM   13  C5  UNK     1      20.945  -4.775  37.259  1.00  0.00     0.077 A 
HETATM   14  C4  UNK     1      19.987  -5.575  36.627  1.00  0.00     0.052 A 
HETATM   15  C1  UNK     1      19.744  -6.884  37.065  1.00  0.00     0.007 A 
HETATM   16  C2  UNK     1      20.490  -7.353  38.148  1.00  0.00     0.090 A 
HETATM   17  C3  UNK     1      18.755  -7.781  36.452  1.00  0.00    -0.043 A 
HETATM   18  O1  UNK     1      20.306  -8.657  38.649  1.00  0.00    -0.275 OA
HETATM   19  C6  UNK     1      21.449  -6.567  38.788  1.00  0.00     0.041 A 
HETATM   20  C11 UNK     1      19.379  -9.525  38.092  1.00  0.00     0.288 A 
HETATM   21  O3  UNK     1      19.210 -10.660  38.522  1.00  0.00    -0.260 OA
HETATM   22  C8  UNK     1      18.601  -9.015  36.950  1.00  0.00     0.090 A 
HETATM   23  C7  UNK     1      21.675  -5.270  38.338  1.00  0.00     0.040 A 
HETATM   24  C9  UNK     1      17.937  -7.308  35.285  1.00  0.00     0.049 C 
ENDBRANCH  12  13
ENDBRANCH   2  12
TORSDOF 3
ENDMDL
MODEL 6
REMARK VINA RESULT:      -8.6      9.139     13.400
REMARK  3 active torsions:
REMARK  status: ('A' for Active; 'I' for Inactive)
REMARK    1  A    between atoms: C10_17  and  O2_2 
REMARK    2  A    between atoms: C5_12  and  O2_2 
REMARK    3  A    between atoms: C12_19  and  N1_6 
ROOT
HETATM    1  N2  UNK     1      18.342   1.429  28.178  1.00  0.00    -0.191 NA
HETATM    2  C10 UNK     1      18.555   4.244  32.735  1.00  0.00     0.109 A 
HETATM    3  C12 UNK     1      18.260   2.893  32.789  1.00  0.00     0.138 A 
HETATM    4  C13 UNK     1      18.797   4.886  31.532  1.00  0.00     0.041 A 
HETATM    5  C14 UNK     1      18.204   2.160  31.604  1.00  0.00     0.061 A 
HETATM    6  C15 UNK     1      18.742   4.152  30.346  1.00  0.00     0.025 A 
HETATM    7  C16 UNK     1      18.445   2.790  30.382  1.00  0.00     0.047 A 
HETATM    8  C17 UNK     1      18.389   2.040  29.168  1.00  0.00     0.099 C 
ENDROOT
BRANCH   3   9
HETATM    9  N1  UNK     1      18.010   2.236  34.025  1.00  0.00    -0.113 N 
HETATM   10  O4  UNK     1      18.810   2.406  34.975  1.00  0.00    -0.532 OA
HETATM   11  O5  UNK     1      16.996   1.506  34.128  1.00  0.00    -0.532 OA
ENDBRANCH   3   9
BRANCH   2  12
HETATM   12  O2  UNK     1      18.617   4.994  33.898  1.00  0.00    -0.308 OA
BRANCH  12  13
HETATM   13  C5  UNK     1      18.138   6.268  33.854  1.00  0.00     0.077 A 
HETATM   14  C4  UNK     1      19.005   7.346  34.065  1.00  0.00     0.052 A 
HETATM   15  C1  UNK     1      18.532   8.664  34.025  1.00  0.00     0.007 A 
HETATM   16  C2  UNK     1      17.174   8.858  33.767  1.00  0.00     0.090 A 
HETATM   17  C3  UNK     1      19.382   9.844  34.237  1.00  0.00    -0.043 A 
HETATM   18  O1  UNK     1      16.620  10.152  33.711  1.00  0.00    -0.275 OA
HETATM   19  C6  UNK     1      16.297   7.793  33.555  1.00  0.00     0.041 A 
HETATM   20  C11 UNK     1      17.397  11.283  33.908  1.00  0.00     0.288 A 
HETATM   21  O3  UNK     1      16.925  12.413  33.863  1.00  0.00    -0.260 OA
HETATM   22  C8  UNK     1      18.828  11.062  34.178  1.00  0.00     0.090 A 
HETATM   23  C7  UNK     1      16.786   6.491  33.599  1.00  0.00     0.040 A 
HETATM   24  C9  UNK     1      20.848   9.671  34.515  1.00  0.00     0.049 C 
ENDBRANCH  12  13
ENDBRANCH   2  12
TORSDOF 3
ENDMDL
MODEL 7
REMARK VINA RESULT:      -8.5      7.052     10.483
REMARK  3 active torsions:
REMARK  status: ('A' for Active; 'I' for Inactive)
REMARK    1  A    between atoms: C10_17  and  O2_2 
REMARK    2  A    between atoms: C5_12  and  O2_2 
REMARK    3  A    between atoms: C12_19  and  N1_6 
ROOT
HETATM    1  N2  UNK     1      20.556  10.013  34.932  1.00  0.00    -0.191 NA
HETATM    2  C10 UNK     1      18.467   5.984  32.079  1.00  0.00     0.109 A 
HETATM    3  C12 UNK     1      17.727   7.139  32.258  1.00  0.00     0.138 A 
HETATM    4  C13 UNK     1      19.735   5.844  32.620  1.00  0.00     0.041 A 
HETATM    5  C14 UNK     1      18.269   8.188  33.001  1.00  0.00     0.061 A 
HETATM    6  C15 UNK     1      20.278   6.894  33.362  1.00  0.00     0.025 A 
HETATM    7  C16 UNK     1      19.545   8.065  33.552  1.00  0.00     0.047 A 
HETATM    8  C17 UNK     1      20.102   9.139  34.312  1.00  0.00     0.099 C 
ENDROOT
BRANCH   3   9
HETATM    9  N1  UNK     1      16.424   7.280  31.705  1.00  0.00    -0.113 N 
HETATM   10  O4  UNK     1      16.256   8.072  30.747  1.00  0.00    -0.532 OA
HETATM   11  O5  UNK     1      15.484   6.610  32.190  1.00  0.00    -0.532 OA
ENDBRANCH   3   9
BRANCH   2  12
HETATM   12  O2  UNK     1      17.951   4.928  31.346  1.00  0.00    -0.308 OA
BRANCH  12  13
HETATM   13  C5  UNK     1      18.198   3.666  31.796  1.00  0.00     0.077 A 
HETATM   14  C4  UNK     1      18.698   2.700  30.917  1.00  0.00     0.052 A 
HETATM   15  C1  UNK     1      18.959   1.395  31.358  1.00  0.00     0.007 A 
HETATM   16  C2  UNK     1      18.703   1.102  32.698  1.00  0.00     0.090 A 
HETATM   17  C3  UNK     1      19.484   0.329  30.494  1.00  0.00    -0.043 A 
HETATM   18  O1  UNK     1      18.938  -0.185  33.221  1.00  0.00    -0.275 OA
HETATM   19  C6  UNK     1      18.204   2.056  33.587  1.00  0.00     0.041 A 
HETATM   20  C11 UNK     1      19.430  -1.211  32.429  1.00  0.00     0.288 A 
HETATM   21  O3  UNK     1      19.637  -2.334  32.873  1.00  0.00    -0.260 OA
HETATM   22  C8  UNK     1      19.697  -0.885  31.017  1.00  0.00     0.090 A 
HETATM   23  C7  UNK     1      17.951   3.345  33.129  1.00  0.00     0.040 A 
HETATM   24  C9  UNK     1      19.772   0.612  29.047  1.00  0.00     0.049 C 
ENDBRANCH  12  13
ENDBRANCH   2  12
TORSDOF 3
ENDMDL
MODEL 8
REMARK VINA RESULT:      -8.3      6.363      9.276
REMARK  3 active torsions:
REMARK  status: ('A' for Active; 'I' for Inactive)
REMARK    1  A    between atoms: C10_17  and  O2_2 
REMARK    2  A    between atoms: C5_12  and  O2_2 
REMARK    3  A    between atoms: C12_19  and  N1_6 
ROOT
HETATM    1  N2  UNK     1      20.186   9.060  34.606  1.00  0.00    -0.191 NA
HETATM    2  C10 UNK     1      18.282   4.690  32.153  1.00  0.00     0.109 A 
HETATM    3  C12 UNK     1      19.065   5.578  31.438  1.00  0.00     0.138 A 
HETATM    4  C13 UNK     1      17.978   4.904  33.488  1.00  0.00     0.041 A 
HETATM    5  C14 UNK     1      19.561   6.716  32.075  1.00  0.00     0.061 A 
HETATM    6  C15 UNK     1      18.475   6.041  34.125  1.00  0.00     0.025 A 
HETATM    7  C16 UNK     1      19.265   6.947  33.419  1.00  0.00     0.047 A 
HETATM    8  C17 UNK     1      19.773   8.111  34.073  1.00  0.00     0.099 C 
ENDROOT
BRANCH   3   9
HETATM    9  N1  UNK     1      19.375   5.359  30.067  1.00  0.00    -0.113 N 
HETATM   10  O4  UNK     1      20.198   6.119  29.503  1.00  0.00    -0.532 OA
HETATM   11  O5  UNK     1      18.816   4.413  29.464  1.00  0.00    -0.532 OA
ENDBRANCH   3   9
BRANCH   2  12
HETATM   12  O2  UNK     1      17.777   3.553  31.544  1.00  0.00    -0.308 OA
BRANCH  12  13
HETATM   13  C5  UNK     1      18.242   2.347  31.972  1.00  0.00     0.077 A 
HETATM   14  C4  UNK     1      18.940   1.516  31.088  1.00  0.00     0.052 A 
HETATM   15  C1  UNK     1      19.427   0.271  31.508  1.00  0.00     0.007 A 
HETATM   16  C2  UNK     1      19.191  -0.103  32.832  1.00  0.00     0.090 A 
HETATM   17  C3  UNK     1      20.167  -0.653  30.637  1.00  0.00    -0.043 A 
HETATM   18  O1  UNK     1      19.647  -1.339  33.332  1.00  0.00    -0.275 OA
HETATM   19  C6  UNK     1      18.497   0.715  33.725  1.00  0.00     0.041 A 
HETATM   20  C11 UNK     1      20.346  -2.231  32.534  1.00  0.00     0.288 A 
HETATM   21  O3  UNK     1      20.746  -3.309  32.958  1.00  0.00    -0.260 OA
HETATM   22  C8  UNK     1      20.588  -1.821  31.140  1.00  0.00     0.090 A 
HETATM   23  C7  UNK     1      18.022   1.947  33.288  1.00  0.00     0.040 A 
HETATM   24  C9  UNK     1      20.438  -0.280  29.208  1.00  0.00     0.049 C 
ENDBRANCH  12  13
ENDBRANCH   2  12
TORSDOF 3
ENDMDL
MODEL 9
REMARK VINA RESULT:      -8.3      9.455     12.607
REMARK  3 active torsions:
REMARK  status: ('A' for Active; 'I' for Inactive)
REMARK    1  A    between atoms: C10_17  and  O2_2 
REMARK    2  A    between atoms: C5_12  and  O2_2 
REMARK    3  A    between atoms: C12_19  and  N1_6 
ROOT
HETATM    1  N2  UNK     1      18.211  13.350  34.037  1.00  0.00    -0.191 NA
HETATM    2  C10 UNK     1      18.896   8.035  34.169  1.00  0.00     0.109 A 
HETATM    3  C12 UNK     1      17.620   8.548  34.018  1.00  0.00     0.138 A 
HETATM    4  C13 UNK     1      20.001   8.863  34.287  1.00  0.00     0.041 A 
HETATM    5  C14 UNK     1      17.440   9.931  33.983  1.00  0.00     0.061 A 
HETATM    6  C15 UNK     1      19.821  10.246  34.252  1.00  0.00     0.025 A 
HETATM    7  C16 UNK     1      18.542  10.779  34.100  1.00  0.00     0.047 A 
HETATM    8  C17 UNK     1      18.359  12.196  34.065  1.00  0.00     0.099 C 
ENDROOT
BRANCH   3   9
HETATM    9  N1  UNK     1      16.486   7.697  33.899  1.00  0.00    -0.113 N 
HETATM   10  O4  UNK     1      15.909   7.609  32.789  1.00  0.00    -0.532 OA
HETATM   11  O5  UNK     1      16.098   7.061  34.907  1.00  0.00    -0.532 OA
ENDBRANCH   3   9
BRANCH   2  12
HETATM   12  O2  UNK     1      19.101   6.666  34.207  1.00  0.00    -0.308 OA
BRANCH  12  13
HETATM   13  C5  UNK     1      19.010   5.981  33.033  1.00  0.00     0.077 A 
HETATM   14  C4  UNK     1      18.714   4.614  33.046  1.00  0.00     0.052 A 
HETATM   15  C1  UNK     1      18.616   3.890  31.850  1.00  0.00     0.007 A 
HETATM   16  C2  UNK     1      18.823   4.582  30.656  1.00  0.00     0.090 A 
HETATM   17  C3  UNK     1      18.309   2.454  31.786  1.00  0.00    -0.043 A 
HETATM   18  O1  UNK     1      18.744   3.927  29.411  1.00  0.00    -0.275 OA
HETATM   19  C6  UNK     1      19.120   5.946  30.627  1.00  0.00     0.041 A 
HETATM   20  C11 UNK     1      18.458   2.574  29.319  1.00  0.00     0.288 A 
HETATM   21  O3  UNK     1      18.387   1.995  28.242  1.00  0.00    -0.260 OA
HETATM   22  C8  UNK     1      18.240   1.858  30.588  1.00  0.00     0.090 A 
HETATM   23  C7  UNK     1      19.213   6.646  31.825  1.00  0.00     0.040 A 
HETATM   24  C9  UNK     1      18.079   1.681  33.052  1.00  0.00     0.049 C 
ENDBRANCH  12  13
ENDBRANCH   2  12
TORSDOF 3
ENDMDL
MODEL 10
REMARK VINA RESULT:      -8.2      4.114      6.762
REMARK  3 active torsions:
REMARK  status: ('A' for Active; 'I' for Inactive)
REMARK    1  A    between atoms: C10_17  and  O2_2 
REMARK    2  A    between atoms: C5_12  and  O2_2 
REMARK    3  A    between atoms: C12_19  and  N1_6 
ROOT
HETATM    1  N2  UNK     1      18.191   6.592  32.290  1.00  0.00    -0.191 NA
HETATM    2  C10 UNK     1      18.474   1.297  31.504  1.00  0.00     0.109 A 
HETATM    3  C12 UNK     1      18.599   2.147  30.420  1.00  0.00     0.138 A 
HETATM    4  C13 UNK     1      18.277   1.781  32.787  1.00  0.00     0.041 A 
HETATM    5  C14 UNK     1      18.525   3.526  30.624  1.00  0.00     0.061 A 
HETATM    6  C15 UNK     1      18.205   3.159  32.990  1.00  0.00     0.025 A 
HETATM    7  C16 UNK     1      18.328   4.031  31.909  1.00  0.00     0.047 A 
HETATM    8  C17 UNK     1      18.253   5.443  32.119  1.00  0.00     0.099 C 
ENDROOT
BRANCH   3   9
HETATM    9  N1  UNK     1      18.799   1.650  29.104  1.00  0.00    -0.113 N 
HETATM   10  O4  UNK     1      19.676   0.774  28.913  1.00  0.00    -0.532 OA
HETATM   11  O5  UNK     1      18.091   2.100  28.172  1.00  0.00    -0.532 OA
ENDBRANCH   3   9
BRANCH   2  12
HETATM   12  O2  UNK     1      18.543  -0.076  31.329  1.00  0.00    -0.308 OA
BRANCH  12  13
HETATM   13  C5  UNK     1      19.052  -0.818  32.351  1.00  0.00     0.077 A 
HETATM   14  C4  UNK     1      18.489  -0.723  33.628  1.00  0.00     0.052 A 
HETATM   15  C1  UNK     1      18.997  -1.478  34.694  1.00  0.00     0.007 A 
HETATM   16  C2  UNK     1      20.078  -2.322  34.432  1.00  0.00     0.090 A 
HETATM   17  C3  UNK     1      18.458  -1.430  36.060  1.00  0.00    -0.043 A 
HETATM   18  O1  UNK     1      20.647  -3.114  35.448  1.00  0.00    -0.275 OA
HETATM   19  C6  UNK     1      20.650  -2.427  33.162  1.00  0.00     0.041 A 
HETATM   20  C11 UNK     1      20.161  -3.088  36.746  1.00  0.00     0.288 A 
HETATM   21  O3  UNK     1      20.650  -3.772  37.638  1.00  0.00    -0.260 OA
HETATM   22  C8  UNK     1      19.020  -2.194  37.006  1.00  0.00     0.090 A 
HETATM   23  C7  UNK     1      20.131  -1.669  32.118  1.00  0.00     0.040 A 
HETATM   24  C9  UNK     1      17.295  -0.534  36.375  1.00  0.00     0.049 C 
ENDBRANCH  12  13
ENDBRANCH   2  12
TORSDOF 3
ENDMDL
