MODEL 1
REMARK VINA RESULT:      -9.5      0.000      0.000
REMARK  2 active torsions:
REMARK  status: ('A' for Active; 'I' for Inactive)
REMARK    1  A    between atoms: C5_10  and  N1_5 
REMARK       I    between atoms: C6_11  and  N1_5 
REMARK    2  A    between atoms: C2_7  and  C6_11 
ROOT
HETATM    1  O2  UNK     1      17.585   3.222  32.816  1.00  0.00    -0.267 OA
HETATM    2  N1  UNK     1      18.791   4.698  31.432  1.00  0.00    -0.323 N 
HETATM    3  C6  UNK     1      18.299   3.468  31.844  1.00  0.00     0.262 C 
HETATM    4  H2  UNK     1      19.356   4.735  30.587  1.00  0.00     0.169 HD
ENDROOT
BRANCH   3   5
HETATM    5  C2  UNK     1      18.727   2.376  30.960  1.00  0.00     0.108 A 
HETATM    6  C9  UNK     1      18.702   2.504  29.486  1.00  0.00     0.304 A 
HETATM    7  O1  UNK     1      19.134   1.400  28.756  1.00  0.00    -0.274 OA
HETATM    8  O3  UNK     1      18.323   3.528  28.930  1.00  0.00    -0.259 OA
HETATM    9  C3  UNK     1      19.573   0.218  29.385  1.00  0.00     0.089 A 
HETATM   10  C1  UNK     1      19.588   0.120  30.772  1.00  0.00    -0.001 A 
HETATM   11  C12 UNK     1      19.987  -0.834  28.569  1.00  0.00     0.038 A 
HETATM   12  C8  UNK     1      20.030  -1.069  31.359  1.00  0.00     0.014 A 
HETATM   13  C4  UNK     1      19.143   1.257  31.563  1.00  0.00     0.037 A 
HETATM   14  C15 UNK     1      20.448  -2.133  30.554  1.00  0.00     0.001 A 
HETATM   15  C16 UNK     1      20.426  -2.015  29.163  1.00  0.00     0.003 A 
ENDBRANCH   3   5
BRANCH   2  16
HETATM   16  C5  UNK     1      18.581   5.960  32.040  1.00  0.00     0.036 A 
HETATM   17  C10 UNK     1      17.396   6.637  31.802  1.00  0.00     0.053 A 
HETATM   18  C13 UNK     1      17.189   7.879  32.402  1.00  0.00     0.042 A 
HETATM   19  C7  UNK     1      18.170   8.426  33.229  1.00  0.00    -0.040 A 
HETATM   20 Cl1  UNK     1      15.708   8.711  32.095  1.00  0.00    -0.084 Cl
HETATM   21  C14 UNK     1      19.357   7.731  33.458  1.00  0.00     0.011 A 
HETATM   22  C17 UNK     1      17.986   9.754  33.891  1.00  0.00     0.050 C 
HETATM   23  C11 UNK     1      19.564   6.489  32.859  1.00  0.00     0.030 A 
ENDBRANCH   2  16
TORSDOF 2
ENDMDL
MODEL 2
REMARK VINA RESULT:      -9.4      8.295     12.096
REMARK  2 active torsions:
REMARK  status: ('A' for Active; 'I' for Inactive)
REMARK    1  A    between atoms: C5_10  and  N1_5 
REMARK       I    between atoms: C6_11  and  N1_5 
REMARK    2  A    between atoms: C2_7  and  C6_11 
ROOT
HETATM    1  O2  UNK     1      21.246  -4.334  37.246  1.00  0.00    -0.267 OA
HETATM    2  N1  UNK     1      19.322  -5.249  36.241  1.00  0.00    -0.323 N 
HETATM    3  C6  UNK     1      20.187  -4.235  36.627  1.00  0.00     0.262 C 
HETATM    4  H2  UNK     1      18.490  -5.001  35.711  1.00  0.00     0.169 HD
ENDROOT
BRANCH   3   5
HETATM    5  C2  UNK     1      19.709  -2.911  36.208  1.00  0.00     0.108 A 
HETATM    6  C9  UNK     1      19.982  -2.368  34.859  1.00  0.00     0.304 A 
HETATM    7  O1  UNK     1      19.475  -1.102  34.581  1.00  0.00    -0.274 OA
HETATM    8  O3  UNK     1      20.621  -2.998  34.024  1.00  0.00    -0.259 OA
HETATM    9  C3  UNK     1      18.739  -0.370  35.533  1.00  0.00     0.089 A 
HETATM   10  C1  UNK     1      18.494  -0.899  36.795  1.00  0.00    -0.001 A 
HETATM   11  C12 UNK     1      18.271   0.890  35.161  1.00  0.00     0.038 A 
HETATM   12  C8  UNK     1      17.760  -0.143  37.713  1.00  0.00     0.014 A 
HETATM   13  C4  UNK     1      19.010  -2.221  37.117  1.00  0.00     0.037 A 
HETATM   14  C15 UNK     1      17.285   1.122  37.355  1.00  0.00     0.001 A 
HETATM   15  C16 UNK     1      17.540   1.636  36.082  1.00  0.00     0.003 A 
ENDBRANCH   3   5
BRANCH   2  16
HETATM   16  C5  UNK     1      19.464  -6.639  36.473  1.00  0.00     0.036 A 
HETATM   17  C10 UNK     1      20.336  -7.372  35.684  1.00  0.00     0.053 A 
HETATM   18  C13 UNK     1      20.475  -8.740  35.913  1.00  0.00     0.042 A 
HETATM   19  C7  UNK     1      19.741  -9.356  36.926  1.00  0.00    -0.040 A 
HETATM   20 Cl1  UNK     1      21.565  -9.640  34.922  1.00  0.00    -0.084 Cl
HETATM   21  C14 UNK     1      18.867  -8.604  37.711  1.00  0.00     0.011 A 
HETATM   22  C17 UNK     1      19.862 -10.821  37.203  1.00  0.00     0.050 C 
HETATM   23  C11 UNK     1      18.728  -7.235  37.483  1.00  0.00     0.030 A 
ENDBRANCH   2  16
TORSDOF 2
ENDMDL
MODEL 3
REMARK VINA RESULT:      -9.1      1.647      2.567
REMARK  2 active torsions:
REMARK  status: ('A' for Active; 'I' for Inactive)
REMARK    1  A    between atoms: C5_10  and  N1_5 
REMARK       I    between atoms: C6_11  and  N1_5 
REMARK    2  A    between atoms: C2_7  and  C6_11 
ROOT
HETATM    1  O2  UNK     1      18.166   4.522  30.418  1.00  0.00    -0.267 OA
HETATM    2  N1  UNK     1      18.313   4.570  32.769  1.00  0.00    -0.323 N 
HETATM    3  C6  UNK     1      18.351   3.986  31.510  1.00  0.00     0.262 C 
HETATM    4  H2  UNK     1      18.512   3.988  33.578  1.00  0.00     0.169 HD
ENDROOT
BRANCH   3   5
HETATM    5  C2  UNK     1      18.656   2.551  31.575  1.00  0.00     0.108 A 
HETATM    6  C9  UNK     1      18.345   1.736  32.770  1.00  0.00     0.304 A 
HETATM    7  O1  UNK     1      18.682   0.387  32.710  1.00  0.00    -0.274 OA
HETATM    8  O3  UNK     1      17.817   2.219  33.765  1.00  0.00    -0.259 OA
HETATM    9  C3  UNK     1      19.289  -0.179  31.571  1.00  0.00     0.089 A 
HETATM   10  C1  UNK     1      19.572   0.606  30.459  1.00  0.00    -0.001 A 
HETATM   11  C12 UNK     1      19.588  -1.540  31.605  1.00  0.00     0.038 A 
HETATM   12  C8  UNK     1      20.175   0.009  29.348  1.00  0.00     0.014 A 
HETATM   13  C4  UNK     1      19.232   2.020  30.490  1.00  0.00     0.037 A 
HETATM   14  C15 UNK     1      20.481  -1.355  29.368  1.00  0.00     0.001 A 
HETATM   15  C16 UNK     1      20.188  -2.127  30.494  1.00  0.00     0.003 A 
ENDBRANCH   3   5
BRANCH   2  16
HETATM   16  C5  UNK     1      18.052   5.926  33.084  1.00  0.00     0.036 A 
HETATM   17  C10 UNK     1      19.078   6.717  33.575  1.00  0.00     0.053 A 
HETATM   18  C13 UNK     1      18.820   8.052  33.884  1.00  0.00     0.042 A 
HETATM   19  C7  UNK     1      17.541   8.576  33.699  1.00  0.00    -0.040 A 
HETATM   20 Cl1  UNK     1      20.108   9.025  34.496  1.00  0.00    -0.084 Cl
HETATM   21  C14 UNK     1      16.520   7.766  33.203  1.00  0.00     0.011 A 
HETATM   22  C17 UNK     1      17.224  10.002  34.019  1.00  0.00     0.050 C 
HETATM   23  C11 UNK     1      16.777   6.431  32.894  1.00  0.00     0.030 A 
ENDBRANCH   2  16
TORSDOF 2
ENDMDL
MODEL 4
REMARK VINA RESULT:      -9.0      8.359     10.194
REMARK  2 active torsions:
REMARK  status: ('A' for Active; 'I' for Inactive)
REMARK    1  A    between atoms: C5_10  and  N1_5 
REMARK       I    between atoms: C6_11  and  N1_5 
REMARK    2  A    between atoms: C2_7  and  C6_11 
ROOT
HETATM    1  O2  UNK     1      21.231  -3.633  36.798  1.00  0.00    -0.267 OA
HETATM    2  N1  UNK     1      18.877  -3.631  36.709  1.00  0.00    -0.323 N 
HETATM    3  C6  UNK     1      20.141  -4.202  36.761  1.00  0.00     0.262 C 
HETATM    4  H2  UNK     1      18.067  -4.246  36.704  1.00  0.00     0.169 HD
ENDROOT
BRANCH   3   5
HETATM    5  C2  UNK     1      20.084  -5.670  36.769  1.00  0.00     0.108 A 
HETATM    6  C9  UNK     1      20.150  -6.465  35.522  1.00  0.00     0.304 A 
HETATM    7  O1  UNK     1      20.087  -7.849  35.661  1.00  0.00    -0.274 OA
HETATM    8  O3  UNK     1      20.255  -5.938  34.421  1.00  0.00    -0.259 OA
HETATM    9  C3  UNK     1      19.967  -8.466  36.922  1.00  0.00     0.089 A 
HETATM   10  C1  UNK     1      19.907  -7.698  38.080  1.00  0.00    -0.001 A 
HETATM   11  C12 UNK     1      19.912  -9.858  36.960  1.00  0.00     0.038 A 
HETATM   12  C8  UNK     1      19.787  -8.346  39.313  1.00  0.00     0.014 A 
HETATM   13  C4  UNK     1      19.971  -6.249  37.969  1.00  0.00     0.037 A 
HETATM   14  C15 UNK     1      19.731  -9.742  39.367  1.00  0.00     0.001 A 
HETATM   15  C16 UNK     1      19.793 -10.496  38.192  1.00  0.00     0.003 A 
ENDBRANCH   3   5
BRANCH   2  16
HETATM   16  C5  UNK     1      18.553  -2.252  36.688  1.00  0.00     0.036 A 
HETATM   17  C10 UNK     1      18.609  -1.562  35.488  1.00  0.00     0.053 A 
HETATM   18  C13 UNK     1      18.290  -0.204  35.468  1.00  0.00     0.042 A 
HETATM   19  C7  UNK     1      17.921   0.443  36.647  1.00  0.00    -0.040 A 
HETATM   20 Cl1  UNK     1      18.366   0.643  33.966  1.00  0.00    -0.084 Cl
HETATM   21  C14 UNK     1      17.869  -0.268  37.846  1.00  0.00     0.011 A 
HETATM   22  C17 UNK     1      17.571   1.896  36.667  1.00  0.00     0.050 C 
HETATM   23  C11 UNK     1      18.188  -1.625  37.866  1.00  0.00     0.030 A 
ENDBRANCH   2  16
TORSDOF 2
ENDMDL
MODEL 5
REMARK VINA RESULT:      -8.9      3.029      8.216
REMARK  2 active torsions:
REMARK  status: ('A' for Active; 'I' for Inactive)
REMARK    1  A    between atoms: C5_10  and  N1_5 
REMARK       I    between atoms: C6_11  and  N1_5 
REMARK    2  A    between atoms: C2_7  and  C6_11 
ROOT
HETATM    1  O2  UNK     1      19.805   5.198  30.964  1.00  0.00    -0.267 OA
HETATM    2  N1  UNK     1      18.067   3.659  31.365  1.00  0.00    -0.323 N 
HETATM    3  C6  UNK     1      18.747   4.862  31.495  1.00  0.00     0.262 C 
HETATM    4  H2  UNK     1      17.186   3.544  31.858  1.00  0.00     0.169 HD
ENDROOT
BRANCH   3   5
HETATM    5  C2  UNK     1      18.053   5.794  32.392  1.00  0.00     0.108 A 
HETATM    6  C9  UNK     1      18.605   6.172  33.712  1.00  0.00     0.304 A 
HETATM    7  O1  UNK     1      17.854   7.065  34.471  1.00  0.00    -0.274 OA
HETATM    8  O3  UNK     1      19.670   5.725  34.122  1.00  0.00    -0.259 OA
HETATM    9  C3  UNK     1      16.628   7.586  34.009  1.00  0.00     0.089 A 
HETATM   10  C1  UNK     1      16.128   7.217  32.765  1.00  0.00    -0.001 A 
HETATM   11  C12 UNK     1      15.948   8.474  34.841  1.00  0.00     0.038 A 
HETATM   12  C8  UNK     1      14.909   7.754  32.342  1.00  0.00     0.014 A 
HETATM   13  C4  UNK     1      16.890   6.285  31.948  1.00  0.00     0.037 A 
HETATM   14  C15 UNK     1      14.215   8.647  33.165  1.00  0.00     0.001 A 
HETATM   15  C16 UNK     1      14.734   9.006  34.411  1.00  0.00     0.003 A 
ENDBRANCH   3   5
BRANCH   2  16
HETATM   16  C5  UNK     1      18.441   2.537  30.585  1.00  0.00     0.036 A 
HETATM   17  C10 UNK     1      19.283   1.582  31.131  1.00  0.00     0.053 A 
HETATM   18  C13 UNK     1      19.650   0.477  30.363  1.00  0.00     0.042 A 
HETATM   19  C7  UNK     1      19.170   0.344  29.060  1.00  0.00    -0.040 A 
HETATM   20 Cl1  UNK     1      20.700  -0.703  31.058  1.00  0.00    -0.084 Cl
HETATM   21  C14 UNK     1      18.323   1.314  28.525  1.00  0.00     0.011 A 
HETATM   22  C17 UNK     1      19.540  -0.826  28.205  1.00  0.00     0.050 C 
HETATM   23  C11 UNK     1      17.956   2.419  29.293  1.00  0.00     0.030 A 
ENDBRANCH   2  16
TORSDOF 2
ENDMDL
MODEL 6
REMARK VINA RESULT:      -8.8      2.887      8.038
REMARK  2 active torsions:
REMARK  status: ('A' for Active; 'I' for Inactive)
REMARK    1  A    between atoms: C5_10  and  N1_5 
REMARK       I    between atoms: C6_11  and  N1_5 
REMARK    2  A    between atoms: C2_7  and  C6_11 
ROOT
HETATM    1  O2  UNK     1      17.952   3.429  33.153  1.00  0.00    -0.267 OA
HETATM    2  N1  UNK     1      18.486   4.139  30.972  1.00  0.00    -0.323 N 
HETATM    3  C6  UNK     1      18.156   4.301  32.311  1.00  0.00     0.262 C 
HETATM    4  H2  UNK     1      18.644   4.970  30.408  1.00  0.00     0.169 HD
ENDROOT
BRANCH   3   5
HETATM    5  C2  UNK     1      18.057   5.717  32.688  1.00  0.00     0.108 A 
HETATM    6  C9  UNK     1      16.803   6.486  32.530  1.00  0.00     0.304 A 
HETATM    7  O1  UNK     1      16.836   7.821  32.924  1.00  0.00    -0.274 OA
HETATM    8  O3  UNK     1      15.784   5.979  32.076  1.00  0.00    -0.259 OA
HETATM    9  C3  UNK     1      18.002   8.414  33.447  1.00  0.00     0.089 A 
HETATM   10  C1  UNK     1      19.170   7.672  33.586  1.00  0.00    -0.001 A 
HETATM   11  C12 UNK     1      17.937   9.757  33.814  1.00  0.00     0.038 A 
HETATM   12  C8  UNK     1      20.306   8.295  34.109  1.00  0.00     0.014 A 
HETATM   13  C4  UNK     1      19.168   6.274  33.184  1.00  0.00     0.037 A 
HETATM   14  C15 UNK     1      20.256   9.642  34.482  1.00  0.00     0.001 A 
HETATM   15  C16 UNK     1      19.074  10.370  34.335  1.00  0.00     0.003 A 
ENDBRANCH   3   5
BRANCH   2  16
HETATM   16  C5  UNK     1      18.665   2.922  30.269  1.00  0.00     0.036 A 
HETATM   17  C10 UNK     1      19.519   1.961  30.785  1.00  0.00     0.053 A 
HETATM   18  C13 UNK     1      19.695   0.764  30.093  1.00  0.00     0.042 A 
HETATM   19  C7  UNK     1      19.015   0.545  28.895  1.00  0.00    -0.040 A 
HETATM   20 Cl1  UNK     1      20.763  -0.424  30.749  1.00  0.00    -0.084 Cl
HETATM   21  C14 UNK     1      18.159   1.522  28.389  1.00  0.00     0.011 A 
HETATM   22  C17 UNK     1      19.177  -0.726  28.123  1.00  0.00     0.050 C 
HETATM   23  C11 UNK     1      17.983   2.720  29.081  1.00  0.00     0.030 A 
ENDBRANCH   2  16
TORSDOF 2
ENDMDL
MODEL 7
REMARK VINA RESULT:      -8.7      1.458      2.200
REMARK  2 active torsions:
REMARK  status: ('A' for Active; 'I' for Inactive)
REMARK    1  A    between atoms: C5_10  and  N1_5 
REMARK       I    between atoms: C6_11  and  N1_5 
REMARK    2  A    between atoms: C2_7  and  C6_11 
ROOT
HETATM    1  O2  UNK     1      17.200   4.150  31.051  1.00  0.00    -0.267 OA
HETATM    2  N1  UNK     1      18.636   4.459  32.891  1.00  0.00    -0.323 N 
HETATM    3  C6  UNK     1      18.021   3.746  31.872  1.00  0.00     0.262 C 
HETATM    4  H2  UNK     1      19.315   3.980  33.477  1.00  0.00     0.169 HD
ENDROOT
BRANCH   3   5
HETATM    5  C2  UNK     1      18.458   2.344  31.837  1.00  0.00     0.108 A 
HETATM    6  C9  UNK     1      18.279   1.436  32.992  1.00  0.00     0.304 A 
HETATM    7  O1  UNK     1      18.735   0.130  32.836  1.00  0.00    -0.274 OA
HETATM    8  O3  UNK     1      17.756   1.810  34.036  1.00  0.00    -0.259 OA
HETATM    9  C3  UNK     1      19.337  -0.310  31.641  1.00  0.00     0.089 A 
HETATM   10  C1  UNK     1      19.496   0.560  30.568  1.00  0.00    -0.001 A 
HETATM   11  C12 UNK     1      19.761  -1.637  31.579  1.00  0.00     0.038 A 
HETATM   12  C8  UNK     1      20.098   0.087  29.399  1.00  0.00     0.014 A 
HETATM   13  C4  UNK     1      19.029   1.932  30.699  1.00  0.00     0.037 A 
HETATM   14  C15 UNK     1      20.528  -1.241  29.323  1.00  0.00     0.001 A 
HETATM   15  C16 UNK     1      20.359  -2.100  30.410  1.00  0.00     0.003 A 
ENDBRANCH   3   5
BRANCH   2  16
HETATM   16  C5  UNK     1      18.456   5.826  33.218  1.00  0.00     0.036 A 
HETATM   17  C10 UNK     1      17.183   6.292  33.501  1.00  0.00     0.053 A 
HETATM   18  C13 UNK     1      17.006   7.638  33.823  1.00  0.00     0.042 A 
HETATM   19  C7  UNK     1      18.104   8.497  33.857  1.00  0.00    -0.040 A 
HETATM   20 Cl1  UNK     1      15.413   8.204  34.172  1.00  0.00    -0.084 Cl
HETATM   21  C14 UNK     1      19.380   8.011  33.570  1.00  0.00     0.011 A 
HETATM   22  C17 UNK     1      17.957   9.945  34.198  1.00  0.00     0.050 C 
HETATM   23  C11 UNK     1      19.556   6.665  33.248  1.00  0.00     0.030 A 
ENDBRANCH   2  16
TORSDOF 2
ENDMDL
MODEL 8
REMARK VINA RESULT:      -8.6     14.592     16.124
REMARK  2 active torsions:
REMARK  status: ('A' for Active; 'I' for Inactive)
REMARK    1  A    between atoms: C5_10  and  N1_5 
REMARK       I    between atoms: C6_11  and  N1_5 
REMARK    2  A    between atoms: C2_7  and  C6_11 
ROOT
HETATM    1  O2  UNK     1      26.128  -9.161  39.261  1.00  0.00    -0.267 OA
HETATM    2  N1  UNK     1      24.681  -7.453  38.527  1.00  0.00    -0.323 N 
HETATM    3  C6  UNK     1      25.900  -8.011  38.887  1.00  0.00     0.262 C 
HETATM    4  H2  UNK     1      24.665  -6.485  38.217  1.00  0.00     0.169 HD
ENDROOT
BRANCH   3   5
HETATM    5  C2  UNK     1      27.002  -7.047  38.782  1.00  0.00     0.108 A 
HETATM    6  C9  UNK     1      26.773  -5.585  38.815  1.00  0.00     0.304 A 
HETATM    7  O1  UNK     1      27.899  -4.774  38.707  1.00  0.00    -0.274 OA
HETATM    8  O3  UNK     1      25.650  -5.108  38.933  1.00  0.00    -0.259 OA
HETATM    9  C3  UNK     1      29.194  -5.312  38.573  1.00  0.00     0.089 A 
HETATM   10  C1  UNK     1      29.386  -6.689  38.543  1.00  0.00    -0.001 A 
HETATM   11  C12 UNK     1      30.259  -4.419  38.472  1.00  0.00     0.038 A 
HETATM   12  C8  UNK     1      30.686  -7.186  38.408  1.00  0.00     0.014 A 
HETATM   13  C4  UNK     1      28.230  -7.565  38.655  1.00  0.00     0.037 A 
HETATM   14  C15 UNK     1      31.765  -6.302  38.306  1.00  0.00     0.001 A 
HETATM   15  C16 UNK     1      31.551  -4.923  38.338  1.00  0.00     0.003 A 
ENDBRANCH   3   5
BRANCH   2  16
HETATM   16  C5  UNK     1      23.415  -8.086  38.507  1.00  0.00     0.036 A 
HETATM   17  C10 UNK     1      22.983  -8.700  37.342  1.00  0.00     0.053 A 
HETATM   18  C13 UNK     1      21.735  -9.324  37.323  1.00  0.00     0.042 A 
HETATM   19  C7  UNK     1      20.938  -9.324  38.468  1.00  0.00    -0.040 A 
HETATM   20 Cl1  UNK     1      21.211 -10.084  35.864  1.00  0.00    -0.084 Cl
HETATM   21  C14 UNK     1      21.388  -8.702  39.632  1.00  0.00     0.011 A 
HETATM   22  C17 UNK     1      19.596  -9.982  38.488  1.00  0.00     0.050 C 
HETATM   23  C11 UNK     1      22.636  -8.078  39.651  1.00  0.00     0.030 A 
ENDBRANCH   2  16
TORSDOF 2
ENDMDL
MODEL 9
REMARK VINA RESULT:      -8.5      7.108     10.483
REMARK  2 active torsions:
REMARK  status: ('A' for Active; 'I' for Inactive)
REMARK    1  A    between atoms: C5_10  and  N1_5 
REMARK       I    between atoms: C6_11  and  N1_5 
REMARK    2  A    between atoms: C2_7  and  C6_11 
ROOT
HETATM    1  O2  UNK     1      20.468  -2.408  36.873  1.00  0.00    -0.267 OA
HETATM    2  N1  UNK     1      19.617  -4.251  35.679  1.00  0.00    -0.323 N 
HETATM    3  C6  UNK     1      19.997  -2.929  35.863  1.00  0.00     0.262 C 
HETATM    4  H2  UNK     1      19.261  -4.531  34.769  1.00  0.00     0.169 HD
ENDROOT
BRANCH   3   5
HETATM    5  C2  UNK     1      19.777  -2.118  34.659  1.00  0.00     0.108 A 
HETATM    6  C9  UNK     1      19.007  -0.855  34.692  1.00  0.00     0.304 A 
HETATM    7  O1  UNK     1      18.868  -0.176  33.485  1.00  0.00    -0.274 OA
HETATM    8  O3  UNK     1      18.515  -0.422  35.728  1.00  0.00    -0.259 OA
HETATM    9  C3  UNK     1      19.431  -0.664  32.288  1.00  0.00     0.089 A 
HETATM   10  C1  UNK     1      20.150  -1.854  32.280  1.00  0.00    -0.001 A 
HETATM   11  C12 UNK     1      19.238   0.087  31.129  1.00  0.00     0.038 A 
HETATM   12  C8  UNK     1      20.692  -2.305  31.074  1.00  0.00     0.014 A 
HETATM   13  C4  UNK     1      20.313  -2.587  33.526  1.00  0.00     0.037 A 
HETATM   14  C15 UNK     1      20.508  -1.564  29.903  1.00  0.00     0.001 A 
HETATM   15  C16 UNK     1      19.783  -0.371  29.932  1.00  0.00     0.003 A 
ENDBRANCH   3   5
BRANCH   2  16
HETATM   16  C5  UNK     1      19.688  -5.309  36.619  1.00  0.00     0.036 A 
HETATM   17  C10 UNK     1      20.845  -5.476  37.363  1.00  0.00     0.053 A 
HETATM   18  C13 UNK     1      20.915  -6.517  38.288  1.00  0.00     0.042 A 
HETATM   19  C7  UNK     1      19.828  -7.375  38.457  1.00  0.00    -0.040 A 
HETATM   20 Cl1  UNK     1      22.364  -6.714  39.206  1.00  0.00    -0.084 Cl
HETATM   21  C14 UNK     1      18.671  -7.191  37.700  1.00  0.00     0.011 A 
HETATM   22  C17 UNK     1      19.864  -8.502  39.439  1.00  0.00     0.050 C 
HETATM   23  C11 UNK     1      18.601  -6.151  36.775  1.00  0.00     0.030 A 
ENDBRANCH   2  16
TORSDOF 2
ENDMDL
MODEL 10
REMARK VINA RESULT:      -8.3     14.598     18.515
REMARK  2 active torsions:
REMARK  status: ('A' for Active; 'I' for Inactive)
REMARK    1  A    between atoms: C5_10  and  N1_5 
REMARK       I    between atoms: C6_11  and  N1_5 
REMARK    2  A    between atoms: C2_7  and  C6_11 
ROOT
HETATM    1  O2  UNK     1      17.874  -3.280  15.796  1.00  0.00    -0.267 OA
HETATM    2  N1  UNK     1      20.072  -3.086  14.971  1.00  0.00    -0.323 N 
HETATM    3  C6  UNK     1      18.906  -2.646  15.584  1.00  0.00     0.262 C 
HETATM    4  H2  UNK     1      20.851  -2.438  14.891  1.00  0.00     0.169 HD
ENDROOT
BRANCH   3   5
HETATM    5  C2  UNK     1      18.998  -1.241  16.002  1.00  0.00     0.108 A 
HETATM    6  C9  UNK     1      19.267  -0.151  15.039  1.00  0.00     0.304 A 
HETATM    7  O1  UNK     1      19.330   1.139  15.557  1.00  0.00    -0.274 OA
HETATM    8  O3  UNK     1      19.426  -0.367  13.843  1.00  0.00    -0.259 OA
HETATM    9  C3  UNK     1      19.148   1.399  16.930  1.00  0.00     0.089 A 
HETATM   10  C1  UNK     1      18.897   0.359  17.818  1.00  0.00    -0.001 A 
HETATM   11  C12 UNK     1      19.229   2.724  17.355  1.00  0.00     0.038 A 
HETATM   12  C8  UNK     1      18.722   0.656  19.173  1.00  0.00     0.014 A 
HETATM   13  C4  UNK     1      18.824  -1.001  17.307  1.00  0.00     0.037 A 
HETATM   14  C15 UNK     1      18.800   1.981  19.614  1.00  0.00     0.001 A 
HETATM   15  C16 UNK     1      19.053   3.012  18.706  1.00  0.00     0.003 A 
ENDBRANCH   3   5
BRANCH   2  16
HETATM   16  C5  UNK     1      20.338  -4.375  14.448  1.00  0.00     0.036 A 
HETATM   17  C10 UNK     1      20.055  -4.636  13.117  1.00  0.00     0.053 A 
HETATM   18  C13 UNK     1      20.317  -5.905  12.602  1.00  0.00     0.042 A 
HETATM   19  C7  UNK     1      20.858  -6.894  13.424  1.00  0.00    -0.040 A 
HETATM   20 Cl1  UNK     1      19.959  -6.216  10.942  1.00  0.00    -0.084 Cl
HETATM   21  C14 UNK     1      21.136  -6.614  14.762  1.00  0.00     0.011 A 
HETATM   22  C17 UNK     1      21.153  -8.266  12.910  1.00  0.00     0.050 C 
HETATM   23  C11 UNK     1      20.874  -5.345  15.277  1.00  0.00     0.030 A 
ENDBRANCH   2  16
TORSDOF 2
ENDMDL
