MODEL 1
REMARK VINA RESULT:      -9.5      0.000      0.000
REMARK  2 active torsions:
REMARK  status: ('A' for Active; 'I' for Inactive)
REMARK    1  A    between atoms: C16_22  and  N2_6 
REMARK       I    between atoms: C17_23  and  N2_6 
REMARK    2  A    between atoms: C11_17  and  C6_12 
ROOT
HETATM    1  O1  UNK     1      18.763   0.505  31.317  1.00  0.00    -0.274 OA
HETATM    2  O2  UNK     1      18.724  -1.517  32.363  1.00  0.00    -0.259 OA
HETATM    3  C1  UNK     1      18.431   2.575  32.570  1.00  0.00     0.010 A 
HETATM    4  C2  UNK     1      18.320   3.995  32.565  1.00  0.00    -0.013 A 
HETATM    5  C3  UNK     1      18.442   4.683  31.325  1.00  0.00    -0.025 A 
HETATM    6  C4  UNK     1      18.651   1.909  31.366  1.00  0.00     0.090 A 
HETATM    7  C5  UNK     1      18.331   1.743  33.771  1.00  0.00     0.035 A 
HETATM    8  C6  UNK     1      18.435   0.404  33.742  1.00  0.00     0.070 A 
HETATM    9  C7  UNK     1      18.665   3.965  30.140  1.00  0.00     0.015 A 
HETATM   10  C8  UNK     1      18.770   2.581  30.156  1.00  0.00     0.039 A 
HETATM   11  C9  UNK     1      18.095   4.787  33.719  1.00  0.00     0.013 A 
HETATM   12  C10 UNK     1      18.339   6.083  31.277  1.00  0.00     0.012 A 
HETATM   13  C12 UNK     1      18.651  -0.295  32.446  1.00  0.00     0.301 A 
HETATM   14  C13 UNK     1      17.996   6.179  33.653  1.00  0.00     0.001 A 
HETATM   15  C14 UNK     1      18.118   6.826  32.433  1.00  0.00     0.001 A 
ENDROOT
BRANCH   8  16
HETATM   16  C11 UNK     1      18.339  -0.394  34.940  1.00  0.00     0.082 A 
HETATM   17  N1  UNK     1      19.397  -1.202  35.291  1.00  0.00    -0.223 NA
HETATM   18  C16 UNK     1      19.092  -1.828  36.406  1.00  0.00     0.173 A 
HETATM   19  S1  UNK     1      17.551  -1.486  37.077  1.00  0.00    -0.061 SA
HETATM   20  C15 UNK     1      17.251  -0.408  35.779  1.00  0.00     0.086 A 
BRANCH  18  21
HETATM   21  N2  UNK     1      19.860  -2.726  37.099  1.00  0.00    -0.306 N 
HETATM   22  C17 UNK     1      20.342  -3.992  36.683  1.00  0.00     0.219 C 
HETATM   23  O3  UNK     1      20.154  -4.527  35.595  1.00  0.00    -0.274 OA
HETATM   24  C18 UNK     1      21.164  -4.677  37.747  1.00  0.00     0.117 C 
HETATM   25  H9  UNK     1      20.108  -2.425  38.038  1.00  0.00     0.171 HD
ENDBRANCH  18  21
ENDBRANCH   8  16
TORSDOF 2
ENDMDL
MODEL 2
REMARK VINA RESULT:      -9.5     15.811     18.122
REMARK  2 active torsions:
REMARK  status: ('A' for Active; 'I' for Inactive)
REMARK    1  A    between atoms: C16_22  and  N2_6 
REMARK       I    between atoms: C17_23  and  N2_6 
REMARK    2  A    between atoms: C11_17  and  C6_12 
ROOT
HETATM    1  O1  UNK     1      19.186   0.536  14.725  1.00  0.00    -0.274 OA
HETATM    2  O2  UNK     1      18.909  -1.179  13.253  1.00  0.00    -0.259 OA
HETATM    3  C1  UNK     1      19.087   0.153  17.136  1.00  0.00     0.010 A 
HETATM    4  C2  UNK     1      19.141   0.687  18.455  1.00  0.00    -0.013 A 
HETATM    5  C3  UNK     1      19.348   2.087  18.615  1.00  0.00    -0.025 A 
HETATM    6  C4  UNK     1      19.237   1.014  16.050  1.00  0.00     0.090 A 
HETATM    7  C5  UNK     1      18.886  -1.263  16.826  1.00  0.00     0.035 A 
HETATM    8  C6  UNK     1      18.835  -1.736  15.569  1.00  0.00     0.070 A 
HETATM    9  C7  UNK     1      19.493   2.911  17.488  1.00  0.00     0.015 A 
HETATM   10  C8  UNK     1      19.438   2.380  16.207  1.00  0.00     0.039 A 
HETATM   11  C9  UNK     1      19.002  -0.081  19.638  1.00  0.00     0.013 A 
HETATM   12  C10 UNK     1      19.407   2.652  19.899  1.00  0.00     0.012 A 
HETATM   13  C12 UNK     1      18.977  -0.801  14.419  1.00  0.00     0.301 A 
HETATM   14  C13 UNK     1      19.064   0.500  20.908  1.00  0.00     0.001 A 
HETATM   15  C14 UNK     1      19.266   1.865  21.038  1.00  0.00     0.001 A 
ENDROOT
BRANCH   8  16
HETATM   16  C11 UNK     1      18.641  -3.137  15.289  1.00  0.00     0.082 A 
HETATM   17  N1  UNK     1      19.590  -3.809  14.551  1.00  0.00    -0.223 NA
HETATM   18  C16 UNK     1      19.210  -5.061  14.423  1.00  0.00     0.173 A 
HETATM   19  S1  UNK     1      17.725  -5.489  15.167  1.00  0.00    -0.061 SA
HETATM   20  C15 UNK     1      17.560  -3.872  15.714  1.00  0.00     0.086 A 
BRANCH  18  21
HETATM   21  N2  UNK     1      19.860  -6.070  13.762  1.00  0.00    -0.306 N 
HETATM   22  C17 UNK     1      21.053  -6.745  14.122  1.00  0.00     0.219 C 
HETATM   23  O3  UNK     1      21.739  -6.541  15.119  1.00  0.00    -0.274 OA
HETATM   24  C18 UNK     1      21.442  -7.806  13.123  1.00  0.00     0.117 C 
HETATM   25  H9  UNK     1      19.410  -6.361  12.899  1.00  0.00     0.171 HD
ENDBRANCH  18  21
ENDBRANCH   8  16
TORSDOF 2
ENDMDL
MODEL 3
REMARK VINA RESULT:      -9.2      4.144      8.232
REMARK  2 active torsions:
REMARK  status: ('A' for Active; 'I' for Inactive)
REMARK    1  A    between atoms: C16_22  and  N2_6 
REMARK       I    between atoms: C17_23  and  N2_6 
REMARK    2  A    between atoms: C11_17  and  C6_12 
ROOT
HETATM    1  O1  UNK     1      18.482   1.837  32.049  1.00  0.00    -0.274 OA
HETATM    2  O2  UNK     1      18.620   3.866  31.026  1.00  0.00    -0.259 OA
HETATM    3  C1  UNK     1      18.214   1.666  34.471  1.00  0.00     0.010 A 
HETATM    4  C2  UNK     1      18.097   0.840  35.626  1.00  0.00    -0.013 A 
HETATM    5  C3  UNK     1      18.130  -0.574  35.459  1.00  0.00    -0.025 A 
HETATM    6  C4  UNK     1      18.357   1.065  33.221  1.00  0.00     0.090 A 
HETATM    7  C5  UNK     1      18.190   3.129  34.496  1.00  0.00     0.035 A 
HETATM    8  C6  UNK     1      18.308   3.880  33.388  1.00  0.00     0.070 A 
HETATM    9  C7  UNK     1      18.276  -1.128  34.178  1.00  0.00     0.015 A 
HETATM   10  C8  UNK     1      18.390  -0.314  33.059  1.00  0.00     0.039 A 
HETATM   11  C9  UNK     1      17.948   1.327  36.949  1.00  0.00     0.013 A 
HETATM   12  C10 UNK     1      18.018  -1.422  36.572  1.00  0.00     0.012 A 
HETATM   13  C12 UNK     1      18.480   3.225  32.063  1.00  0.00     0.301 A 
HETATM   14  C13 UNK     1      17.838   0.467  38.045  1.00  0.00     0.001 A 
HETATM   15  C14 UNK     1      17.874  -0.906  37.856  1.00  0.00     0.001 A 
ENDROOT
BRANCH   8  16
HETATM   16  C11 UNK     1      18.276   5.321  33.438  1.00  0.00     0.082 A 
HETATM   17  N1  UNK     1      17.058   5.964  33.409  1.00  0.00    -0.223 NA
HETATM   18  C16 UNK     1      17.269   7.261  33.465  1.00  0.00     0.173 A 
HETATM   19  S1  UNK     1      18.906   7.765  33.554  1.00  0.00    -0.061 SA
HETATM   20  C15 UNK     1      19.391   6.121  33.516  1.00  0.00     0.086 A 
BRANCH  18  21
HETATM   21  N2  UNK     1      16.335   8.262  33.461  1.00  0.00    -0.306 N 
HETATM   22  C17 UNK     1      15.704   8.886  32.356  1.00  0.00     0.219 C 
HETATM   23  O3  UNK     1      15.887   8.633  31.169  1.00  0.00    -0.274 OA
HETATM   24  C18 UNK     1      14.723   9.952  32.775  1.00  0.00     0.117 C 
HETATM   25  H9  UNK     1      16.070   8.589  34.386  1.00  0.00     0.171 HD
ENDBRANCH  18  21
ENDBRANCH   8  16
TORSDOF 2
ENDMDL
MODEL 4
REMARK VINA RESULT:      -9.2     15.479     17.813
REMARK  2 active torsions:
REMARK  status: ('A' for Active; 'I' for Inactive)
REMARK    1  A    between atoms: C16_22  and  N2_6 
REMARK       I    between atoms: C17_23  and  N2_6 
REMARK    2  A    between atoms: C11_17  and  C6_12 
ROOT
HETATM    1  O1  UNK     1      19.276   0.501  14.775  1.00  0.00    -0.274 OA
HETATM    2  O2  UNK     1      19.118  -1.274  13.358  1.00  0.00    -0.259 OA
HETATM    3  C1  UNK     1      19.151   0.192  17.195  1.00  0.00     0.010 A 
HETATM    4  C2  UNK     1      19.151   0.772  18.497  1.00  0.00    -0.013 A 
HETATM    5  C3  UNK     1      19.281   2.185  18.613  1.00  0.00    -0.025 A 
HETATM    6  C4  UNK     1      19.276   1.024  16.084  1.00  0.00     0.090 A 
HETATM    7  C5  UNK     1      19.030  -1.242  16.930  1.00  0.00     0.035 A 
HETATM    8  C6  UNK     1      19.028  -1.758  15.689  1.00  0.00     0.070 A 
HETATM    9  C7  UNK     1      19.406   2.978  17.462  1.00  0.00     0.015 A 
HETATM   10  C8  UNK     1      19.404   2.403  16.198  1.00  0.00     0.039 A 
HETATM   11  C9  UNK     1      19.029   0.036  19.702  1.00  0.00     0.013 A 
HETATM   12  C10 UNK     1      19.287   2.794  19.878  1.00  0.00     0.012 A 
HETATM   13  C12 UNK     1      19.143  -0.855  14.511  1.00  0.00     0.301 A 
HETATM   14  C13 UNK     1      19.036   0.661  20.952  1.00  0.00     0.001 A 
HETATM   15  C14 UNK     1      19.164   2.038  21.040  1.00  0.00     0.001 A 
ENDROOT
BRANCH   8  16
HETATM   16  C11 UNK     1      18.913  -3.176  15.453  1.00  0.00     0.082 A 
HETATM   17  N1  UNK     1      17.664  -3.721  15.251  1.00  0.00    -0.223 NA
HETATM   18  C16 UNK     1      17.800  -5.014  15.057  1.00  0.00     0.173 A 
HETATM   19  S1  UNK     1      19.400  -5.630  15.104  1.00  0.00    -0.061 SA
HETATM   20  C15 UNK     1      19.976  -4.045  15.409  1.00  0.00     0.086 A 
BRANCH  18  21
HETATM   21  N2  UNK     1      16.812  -5.933  14.820  1.00  0.00    -0.306 N 
HETATM   22  C17 UNK     1      16.178  -6.813  15.732  1.00  0.00     0.219 C 
HETATM   23  O3  UNK     1      16.406  -6.912  16.934  1.00  0.00    -0.274 OA
HETATM   24  C18 UNK     1      15.128  -7.673  15.073  1.00  0.00     0.117 C 
HETATM   25  H9  UNK     1      16.505  -5.975  13.852  1.00  0.00     0.171 HD
ENDBRANCH  18  21
ENDBRANCH   8  16
TORSDOF 2
ENDMDL
MODEL 5
REMARK VINA RESULT:      -9.0     24.921     26.716
REMARK  2 active torsions:
REMARK  status: ('A' for Active; 'I' for Inactive)
REMARK    1  A    between atoms: C16_22  and  N2_6 
REMARK       I    between atoms: C17_23  and  N2_6 
REMARK    2  A    between atoms: C11_17  and  C6_12 
ROOT
HETATM    1  O1  UNK     1      14.283   6.350  10.488  1.00  0.00    -0.274 OA
HETATM    2  O2  UNK     1      12.316   5.210  10.349  1.00  0.00    -0.259 OA
HETATM    3  C1  UNK     1      14.617   8.433   9.258  1.00  0.00     0.010 A 
HETATM    4  C2  UNK     1      15.478   9.513   8.906  1.00  0.00    -0.013 A 
HETATM    5  C3  UNK     1      16.794   9.538   9.447  1.00  0.00    -0.025 A 
HETATM    6  C4  UNK     1      15.092   7.441  10.114  1.00  0.00     0.090 A 
HETATM    7  C5  UNK     1      13.242   8.284   8.781  1.00  0.00     0.035 A 
HETATM    8  C6  UNK     1      12.457   7.250   9.127  1.00  0.00     0.070 A 
HETATM    9  C7  UNK     1      17.223   8.515  10.306  1.00  0.00     0.015 A 
HETATM   10  C8  UNK     1      16.377   7.467  10.641  1.00  0.00     0.039 A 
HETATM   11  C9  UNK     1      15.116  10.580   8.046  1.00  0.00     0.013 A 
HETATM   12  C10 UNK     1      17.673  10.586   9.125  1.00  0.00     0.012 A 
HETATM   13  C12 UNK     1      12.983   6.188  10.027  1.00  0.00     0.301 A 
HETATM   14  C13 UNK     1      16.004  11.613   7.736  1.00  0.00     0.001 A 
HETATM   15  C14 UNK     1      17.281  11.616   8.275  1.00  0.00     0.001 A 
ENDROOT
BRANCH   8  16
HETATM   16  C11 UNK     1      11.102   7.128   8.648  1.00  0.00     0.082 A 
HETATM   17  N1  UNK     1      10.073   7.624   9.418  1.00  0.00    -0.223 NA
HETATM   18  C16 UNK     1       8.939   7.406   8.790  1.00  0.00     0.173 A 
HETATM   19  S1  UNK     1       9.046   6.612   7.274  1.00  0.00    -0.061 SA
HETATM   20  C15 UNK     1      10.749   6.546   7.454  1.00  0.00     0.086 A 
BRANCH  18  21
HETATM   21  N2  UNK     1       7.676   7.738   9.204  1.00  0.00    -0.306 N 
HETATM   22  C17 UNK     1       6.953   7.261  10.325  1.00  0.00     0.219 C 
HETATM   23  O3  UNK     1       7.340   6.441  11.153  1.00  0.00    -0.274 OA
HETATM   24  C18 UNK     1       5.582   7.881  10.436  1.00  0.00     0.117 C 
HETATM   25  H9  UNK     1       7.210   8.421   8.613  1.00  0.00     0.171 HD
ENDBRANCH  18  21
ENDBRANCH   8  16
TORSDOF 2
ENDMDL
MODEL 6
REMARK VINA RESULT:      -8.8     25.447     26.458
REMARK  2 active torsions:
REMARK  status: ('A' for Active; 'I' for Inactive)
REMARK    1  A    between atoms: C16_22  and  N2_6 
REMARK       I    between atoms: C17_23  and  N2_6 
REMARK    2  A    between atoms: C11_17  and  C6_12 
ROOT
HETATM    1  O1  UNK     1      14.193   4.922   8.943  1.00  0.00    -0.274 OA
HETATM    2  O2  UNK     1      12.258   3.891   8.330  1.00  0.00    -0.259 OA
HETATM    3  C1  UNK     1      14.278   7.340   9.278  1.00  0.00     0.010 A 
HETATM    4  C2  UNK     1      15.045   8.497   9.597  1.00  0.00    -0.013 A 
HETATM    5  C3  UNK     1      16.430   8.338   9.885  1.00  0.00    -0.025 A 
HETATM    6  C4  UNK     1      14.906   6.096   9.258  1.00  0.00     0.090 A 
HETATM    7  C5  UNK     1      12.848   7.357   8.967  1.00  0.00     0.035 A 
HETATM    8  C6  UNK     1      12.153   6.247   8.665  1.00  0.00     0.070 A 
HETATM    9  C7  UNK     1      17.014   7.062   9.851  1.00  0.00     0.015 A 
HETATM   10  C8  UNK     1      16.258   5.941   9.539  1.00  0.00     0.039 A 
HETATM   11  C9  UNK     1      14.525   9.815   9.649  1.00  0.00     0.013 A 
HETATM   12  C10 UNK     1      17.221   9.454  10.204  1.00  0.00     0.012 A 
HETATM   13  C12 UNK     1      12.841   4.928   8.628  1.00  0.00     0.301 A 
HETATM   14  C13 UNK     1      15.327  10.913   9.968  1.00  0.00     0.001 A 
HETATM   15  C14 UNK     1      16.674  10.733  10.245  1.00  0.00     0.001 A 
ENDROOT
BRANCH   8  16
HETATM   16  C11 UNK     1      10.742   6.289   8.368  1.00  0.00     0.082 A 
HETATM   17  N1  UNK     1       9.838   6.085   9.386  1.00  0.00    -0.223 NA
HETATM   18  C16 UNK     1       8.623   6.168   8.889  1.00  0.00     0.173 A 
HETATM   19  S1  UNK     1       8.506   6.490   7.209  1.00  0.00    -0.061 SA
HETATM   20  C15 UNK     1      10.218   6.525   7.120  1.00  0.00     0.086 A 
BRANCH  18  21
HETATM   21  N2  UNK     1       7.435   6.027   9.555  1.00  0.00    -0.306 N 
HETATM   22  C17 UNK     1       6.844   4.853  10.083  1.00  0.00     0.219 C 
HETATM   23  O3  UNK     1       7.306   3.716  10.039  1.00  0.00    -0.274 OA
HETATM   24  C18 UNK     1       5.520   5.121  10.754  1.00  0.00     0.117 C 
HETATM   25  H9  UNK     1       6.921   6.895   9.678  1.00  0.00     0.171 HD
ENDBRANCH  18  21
ENDBRANCH   8  16
TORSDOF 2
ENDMDL
MODEL 7
REMARK VINA RESULT:      -8.8      4.251      6.747
REMARK  2 active torsions:
REMARK  status: ('A' for Active; 'I' for Inactive)
REMARK    1  A    between atoms: C16_22  and  N2_6 
REMARK       I    between atoms: C17_23  and  N2_6 
REMARK    2  A    between atoms: C11_17  and  C6_12 
ROOT
HETATM    1  O1  UNK     1      19.825   8.256  33.637  1.00  0.00    -0.274 OA
HETATM    2  O2  UNK     1      20.800   6.270  33.101  1.00  0.00    -0.259 OA
HETATM    3  C1  UNK     1      17.420   8.590  33.366  1.00  0.00     0.010 A 
HETATM    4  C2  UNK     1      16.294   9.457  33.465  1.00  0.00    -0.013 A 
HETATM    5  C3  UNK     1      16.498  10.788  33.928  1.00  0.00    -0.025 A 
HETATM    6  C4  UNK     1      18.679   9.072  33.722  1.00  0.00     0.090 A 
HETATM    7  C5  UNK     1      17.355   7.200  32.912  1.00  0.00     0.035 A 
HETATM    8  C6  UNK     1      18.437   6.409  32.824  1.00  0.00     0.070 A 
HETATM    9  C7  UNK     1      17.786  11.223  34.275  1.00  0.00     0.015 A 
HETATM   10  C8  UNK     1      18.877  10.370  34.174  1.00  0.00     0.039 A 
HETATM   11  C9  UNK     1      14.967   9.089  33.132  1.00  0.00     0.013 A 
HETATM   12  C10 UNK     1      15.414  11.673  34.040  1.00  0.00     0.012 A 
HETATM   13  C12 UNK     1      19.777   6.943  33.190  1.00  0.00     0.301 A 
HETATM   14  C13 UNK     1      13.900   9.984  33.250  1.00  0.00     0.001 A 
HETATM   15  C14 UNK     1      14.124  11.275  33.703  1.00  0.00     0.001 A 
ENDROOT
BRANCH   8  16
HETATM   16  C11 UNK     1      18.347   5.040  32.379  1.00  0.00     0.082 A 
HETATM   17  N1  UNK     1      17.971   4.068  33.279  1.00  0.00    -0.223 NA
HETATM   18  C16 UNK     1      17.955   2.909  32.659  1.00  0.00     0.173 A 
HETATM   19  S1  UNK     1      18.380   2.925  30.998  1.00  0.00    -0.061 SA
HETATM   20  C15 UNK     1      18.609   4.621  31.097  1.00  0.00     0.086 A 
BRANCH  18  21
HETATM   21  N2  UNK     1      17.638   1.683  33.183  1.00  0.00    -0.306 N 
HETATM   22  C17 UNK     1      18.195   1.025  34.308  1.00  0.00     0.219 C 
HETATM   23  O3  UNK     1      19.086   1.448  35.038  1.00  0.00    -0.274 OA
HETATM   24  C18 UNK     1      17.564  -0.321  34.562  1.00  0.00     0.117 C 
HETATM   25  H9  UNK     1      16.900   1.194  32.683  1.00  0.00     0.171 HD
ENDBRANCH  18  21
ENDBRANCH   8  16
TORSDOF 2
ENDMDL
MODEL 8
REMARK VINA RESULT:      -8.8      4.865      8.500
REMARK  2 active torsions:
REMARK  status: ('A' for Active; 'I' for Inactive)
REMARK    1  A    between atoms: C16_22  and  N2_6 
REMARK       I    between atoms: C17_23  and  N2_6 
REMARK    2  A    between atoms: C11_17  and  C6_12 
ROOT
HETATM    1  O1  UNK     1      18.954   3.928  29.976  1.00  0.00    -0.274 OA
HETATM    2  O2  UNK     1      18.784   6.185  29.726  1.00  0.00    -0.259 OA
HETATM    3  C1  UNK     1      18.466   2.859  32.117  1.00  0.00     0.010 A 
HETATM    4  C2  UNK     1      18.396   1.666  32.893  1.00  0.00    -0.013 A 
HETATM    5  C3  UNK     1      18.736   0.430  32.274  1.00  0.00    -0.025 A 
HETATM    6  C4  UNK     1      18.864   2.777  30.784  1.00  0.00     0.090 A 
HETATM    7  C5  UNK     1      18.140   4.193  32.623  1.00  0.00     0.035 A 
HETATM    8  C6  UNK     1      18.221   5.301  31.866  1.00  0.00     0.070 A 
HETATM    9  C7  UNK     1      19.130   0.402  30.927  1.00  0.00     0.015 A 
HETATM   10  C8  UNK     1      19.196   1.570  30.180  1.00  0.00     0.039 A 
HETATM   11  C9  UNK     1      18.008   1.617  34.255  1.00  0.00     0.013 A 
HETATM   12  C10 UNK     1      18.680  -0.768  33.004  1.00  0.00     0.012 A 
HETATM   13  C12 UNK     1      18.666   5.200  30.450  1.00  0.00     0.301 A 
HETATM   14  C13 UNK     1      17.958   0.415  34.966  1.00  0.00     0.001 A 
HETATM   15  C14 UNK     1      18.294  -0.776  34.341  1.00  0.00     0.001 A 
ENDROOT
BRANCH   8  16
HETATM   16  C11 UNK     1      17.890   6.605  32.386  1.00  0.00     0.082 A 
HETATM   17  N1  UNK     1      16.674   7.165  32.061  1.00  0.00    -0.223 NA
HETATM   18  C16 UNK     1      16.588   8.342  32.641  1.00  0.00     0.173 A 
HETATM   19  S1  UNK     1      17.933   8.827  33.588  1.00  0.00    -0.061 SA
HETATM   20  C15 UNK     1      18.709   7.347  33.202  1.00  0.00     0.086 A 
BRANCH  18  21
HETATM   21  N2  UNK     1      15.549   9.231  32.579  1.00  0.00    -0.306 N 
HETATM   22  C17 UNK     1      14.518   9.463  33.523  1.00  0.00     0.219 C 
HETATM   23  O3  UNK     1      14.367   8.891  34.599  1.00  0.00    -0.274 OA
HETATM   24  C18 UNK     1      13.558  10.540  33.081  1.00  0.00     0.117 C 
HETATM   25  H9  UNK     1      15.532   9.794  31.732  1.00  0.00     0.171 HD
ENDBRANCH  18  21
ENDBRANCH   8  16
TORSDOF 2
ENDMDL
MODEL 9
REMARK VINA RESULT:      -8.5      3.455      5.442
REMARK  2 active torsions:
REMARK  status: ('A' for Active; 'I' for Inactive)
REMARK    1  A    between atoms: C16_22  and  N2_6 
REMARK       I    between atoms: C17_23  and  N2_6 
REMARK    2  A    between atoms: C11_17  and  C6_12 
ROOT
HETATM    1  O1  UNK     1      18.473  -0.724  35.890  1.00  0.00    -0.274 OA
HETATM    2  O2  UNK     1      18.622  -1.896  37.836  1.00  0.00    -0.259 OA
HETATM    3  C1  UNK     1      19.470  -1.577  33.829  1.00  0.00     0.010 A 
HETATM    4  C2  UNK     1      19.745  -1.391  32.444  1.00  0.00    -0.013 A 
HETATM    5  C3  UNK     1      19.288  -0.199  31.813  1.00  0.00    -0.025 A 
HETATM    6  C4  UNK     1      18.767  -0.590  34.518  1.00  0.00     0.090 A 
HETATM    7  C5  UNK     1      19.874  -2.753  34.601  1.00  0.00     0.035 A 
HETATM    8  C6  UNK     1      19.603  -2.897  35.909  1.00  0.00     0.070 A 
HETATM    9  C7  UNK     1      18.584   0.763  32.552  1.00  0.00     0.015 A 
HETATM   10  C8  UNK     1      18.321   0.573  33.901  1.00  0.00     0.039 A 
HETATM   11  C9  UNK     1      20.450  -2.317  31.634  1.00  0.00     0.013 A 
HETATM   12  C10 UNK     1      19.539   0.022  30.448  1.00  0.00     0.012 A 
HETATM   13  C12 UNK     1      18.869  -1.825  36.636  1.00  0.00     0.301 A 
HETATM   14  C13 UNK     1      20.691  -2.080  30.279  1.00  0.00     0.001 A 
HETATM   15  C14 UNK     1      20.236  -0.911  29.687  1.00  0.00     0.001 A 
ENDROOT
BRANCH   8  16
HETATM   16  C11 UNK     1      20.008  -4.068  36.647  1.00  0.00     0.082 A 
HETATM   17  N1  UNK     1      19.240  -5.208  36.564  1.00  0.00    -0.223 NA
HETATM   18  C16 UNK     1      19.794  -6.139  37.309  1.00  0.00     0.173 A 
HETATM   19  S1  UNK     1      21.236  -5.704  38.130  1.00  0.00    -0.061 SA
HETATM   20  C15 UNK     1      21.127  -4.137  37.442  1.00  0.00     0.086 A 
BRANCH  18  21
HETATM   21  N2  UNK     1      19.356  -7.421  37.510  1.00  0.00    -0.306 N 
HETATM   22  C17 UNK     1      19.637  -8.587  36.755  1.00  0.00     0.219 C 
HETATM   23  O3  UNK     1      20.345  -8.660  35.756  1.00  0.00    -0.274 OA
HETATM   24  C18 UNK     1      18.959  -9.814  37.311  1.00  0.00     0.117 C 
HETATM   25  H9  UNK     1      18.747  -7.532  38.317  1.00  0.00     0.171 HD
ENDBRANCH  18  21
ENDBRANCH   8  16
TORSDOF 2
ENDMDL
MODEL 10
REMARK VINA RESULT:      -8.5     14.440     16.718
REMARK  2 active torsions:
REMARK  status: ('A' for Active; 'I' for Inactive)
REMARK    1  A    between atoms: C16_22  and  N2_6 
REMARK       I    between atoms: C17_23  and  N2_6 
REMARK    2  A    between atoms: C11_17  and  C6_12 
ROOT
HETATM    1  O1  UNK     1      31.956  -3.876  36.789  1.00  0.00    -0.274 OA
HETATM    2  O2  UNK     1      33.647  -3.702  35.273  1.00  0.00    -0.259 OA
HETATM    3  C1  UNK     1      30.884  -6.024  37.235  1.00  0.00     0.010 A 
HETATM    4  C2  UNK     1      29.889  -6.765  37.937  1.00  0.00    -0.013 A 
HETATM    5  C3  UNK     1      29.042  -6.072  38.848  1.00  0.00    -0.025 A 
HETATM    6  C4  UNK     1      30.993  -4.653  37.461  1.00  0.00     0.090 A 
HETATM    7  C5  UNK     1      31.824  -6.607  36.277  1.00  0.00     0.035 A 
HETATM    8  C6  UNK     1      32.748  -5.881  35.626  1.00  0.00     0.070 A 
HETATM    9  C7  UNK     1      29.194  -4.691  39.040  1.00  0.00     0.015 A 
HETATM   10  C8  UNK     1      30.165  -3.979  38.351  1.00  0.00     0.039 A 
HETATM   11  C9  UNK     1      29.677  -8.159  37.795  1.00  0.00     0.013 A 
HETATM   12  C10 UNK     1      28.049  -6.766  39.560  1.00  0.00     0.012 A 
HETATM   13  C12 UNK     1      32.840  -4.414  35.863  1.00  0.00     0.301 A 
HETATM   14  C13 UNK     1      28.684  -8.832  38.511  1.00  0.00     0.001 A 
HETATM   15  C14 UNK     1      27.871  -8.136  39.393  1.00  0.00     0.001 A 
ENDROOT
BRANCH   8  16
HETATM   16  C11 UNK     1      33.667  -6.479  34.689  1.00  0.00     0.082 A 
HETATM   17  N1  UNK     1      33.298  -6.586  33.367  1.00  0.00    -0.223 NA
HETATM   18  C16 UNK     1      34.281  -7.155  32.704  1.00  0.00     0.173 A 
HETATM   19  S1  UNK     1      35.671  -7.580  33.615  1.00  0.00    -0.061 SA
HETATM   20  C15 UNK     1      34.912  -6.957  35.020  1.00  0.00     0.086 A 
BRANCH  18  21
HETATM   21  N2  UNK     1      34.329  -7.451  31.367  1.00  0.00    -0.306 N 
HETATM   22  C17 UNK     1      35.116  -6.854  30.352  1.00  0.00     0.219 C 
HETATM   23  O3  UNK     1      35.922  -5.939  30.491  1.00  0.00    -0.274 OA
HETATM   24  C18 UNK     1      34.879  -7.473  28.996  1.00  0.00     0.117 C 
HETATM   25  H9  UNK     1      33.708  -8.204  31.085  1.00  0.00     0.171 HD
ENDBRANCH  18  21
ENDBRANCH   8  16
TORSDOF 2
ENDMDL
