MODEL 1
REMARK VINA RESULT:      -7.8      0.000      0.000
REMARK  3 active torsions:
REMARK  status: ('A' for Active; 'I' for Inactive)
REMARK    1  A    between atoms: C5_9  and  O2_2 
REMARK    2  A    between atoms: C15_19  and  O4_4 
REMARK    3  A    between atoms: C1_5  and  C4_8 
ROOT
HETATM    1  O1  UNK     1      19.092  -0.057  32.576  1.00  0.00    -0.306 OA
HETATM    2  O3  UNK     1      18.560   2.813  29.733  1.00  0.00    -0.284 OA
HETATM    3  C1  UNK     1      18.449   1.137  32.864  1.00  0.00     0.123 A 
HETATM    4  C2  UNK     1      19.388   0.674  30.280  1.00  0.00     0.051 A 
HETATM    5  C3  UNK     1      19.541  -0.265  31.298  1.00  0.00     0.090 A 
HETATM    6  C5  UNK     1      18.246   2.128  31.977  1.00  0.00     0.154 A 
HETATM    7  C6  UNK     1      18.718   1.948  30.584  1.00  0.00     0.221 A 
HETATM    8  C7  UNK     1      19.865   0.407  28.995  1.00  0.00     0.018 A 
HETATM    9  C8  UNK     1      20.174  -1.480  31.035  1.00  0.00     0.038 A 
HETATM   10  C11 UNK     1      20.499  -0.810  28.736  1.00  0.00     0.001 A 
HETATM   11  C12 UNK     1      20.653  -1.751  29.754  1.00  0.00     0.003 A 
ENDROOT
BRANCH   3  12
HETATM   12  C4  UNK     1      18.020   1.233  34.271  1.00  0.00     0.001 A 
HETATM   13  C10 UNK     1      18.787   1.953  35.187  1.00  0.00     0.017 A 
HETATM   14  C14 UNK     1      18.381   2.045  36.518  1.00  0.00     0.037 A 
HETATM   15  C15 UNK     1      17.207   1.416  36.934  1.00  0.00     0.068 A 
HETATM   16  C13 UNK     1      16.439   0.696  36.018  1.00  0.00     0.037 A 
HETATM   17  C9  UNK     1      16.846   0.605  34.687  1.00  0.00     0.017 A 
BRANCH  15  18
HETATM   18  O4  UNK     1      16.809   1.506  38.232  1.00  0.00    -0.356 OA
HETATM   19  C17 UNK     1      17.822   1.384  39.230  1.00  0.00     0.210 C 
ENDBRANCH  15  18
ENDBRANCH   3  12
BRANCH   6  20
HETATM   20  O2  UNK     1      17.631   3.316  32.305  1.00  0.00    -0.350 OA
HETATM   21  C16 UNK     1      18.578   4.362  32.409  1.00  0.00     0.210 C 
ENDBRANCH   6  20
TORSDOF 3
ENDMDL
MODEL 2
REMARK VINA RESULT:      -7.6      3.085      5.823
REMARK  3 active torsions:
REMARK  status: ('A' for Active; 'I' for Inactive)
REMARK    1  A    between atoms: C5_9  and  O2_2 
REMARK    2  A    between atoms: C15_19  and  O4_4 
REMARK    3  A    between atoms: C1_5  and  C4_8 
ROOT
HETATM    1  O1  UNK     1      18.336   3.951  34.537  1.00  0.00    -0.306 OA
HETATM    2  O3  UNK     1      18.260   1.813  31.071  1.00  0.00    -0.284 OA
HETATM    3  C1  UNK     1      18.270   4.577  33.303  1.00  0.00     0.123 A 
HETATM    4  C2  UNK     1      18.336   1.793  33.427  1.00  0.00     0.051 A 
HETATM    5  C3  UNK     1      18.363   2.582  34.575  1.00  0.00     0.090 A 
HETATM    6  C5  UNK     1      18.248   3.934  32.121  1.00  0.00     0.154 A 
HETATM    7  C6  UNK     1      18.279   2.452  32.113  1.00  0.00     0.221 A 
HETATM    8  C7  UNK     1      18.365   0.400  33.527  1.00  0.00     0.018 A 
HETATM    9  C8  UNK     1      18.419   1.980  35.833  1.00  0.00     0.038 A 
HETATM   10  C11 UNK     1      18.422  -0.199  34.787  1.00  0.00     0.001 A 
HETATM   11  C12 UNK     1      18.448   0.590  35.937  1.00  0.00     0.003 A 
ENDROOT
BRANCH   3  12
HETATM   12  C4  UNK     1      18.249   6.048  33.404  1.00  0.00     0.001 A 
HETATM   13  C10 UNK     1      19.396   6.737  33.798  1.00  0.00     0.017 A 
HETATM   14  C14 UNK     1      19.377   8.127  33.893  1.00  0.00     0.037 A 
HETATM   15  C15 UNK     1      18.210   8.831  33.596  1.00  0.00     0.068 A 
HETATM   16  C13 UNK     1      17.062   8.143  33.202  1.00  0.00     0.037 A 
HETATM   17  C9  UNK     1      17.082   6.752  33.106  1.00  0.00     0.017 A 
BRANCH  15  18
HETATM   18  O4  UNK     1      18.191  10.188  33.688  1.00  0.00    -0.356 OA
HETATM   19  C17 UNK     1      16.974  10.791  34.129  1.00  0.00     0.210 C 
ENDBRANCH  15  18
ENDBRANCH   3  12
BRANCH   6  20
HETATM   20  O2  UNK     1      18.214   4.589  30.909  1.00  0.00    -0.350 OA
HETATM   21  C16 UNK     1      19.522   4.896  30.465  1.00  0.00     0.210 C 
ENDBRANCH   6  20
TORSDOF 3
ENDMDL
MODEL 3
REMARK VINA RESULT:      -7.6     23.829     26.208
REMARK  3 active torsions:
REMARK  status: ('A' for Active; 'I' for Inactive)
REMARK    1  A    between atoms: C5_9  and  O2_2 
REMARK    2  A    between atoms: C15_19  and  O4_4 
REMARK    3  A    between atoms: C1_5  and  C4_8 
ROOT
HETATM    1  O1  UNK     1      14.286   9.235   8.217  1.00  0.00    -0.306 OA
HETATM    2  O3  UNK     1      16.673   7.773  11.177  1.00  0.00    -0.284 OA
HETATM    3  C1  UNK     1      13.976   8.059   8.882  1.00  0.00     0.123 A 
HETATM    4  C2  UNK     1      16.274   9.470   9.590  1.00  0.00     0.051 A 
HETATM    5  C3  UNK     1      15.418   9.915   8.584  1.00  0.00     0.090 A 
HETATM    6  C5  UNK     1      14.721   7.518   9.863  1.00  0.00     0.154 A 
HETATM    7  C6  UNK     1      15.956   8.216  10.291  1.00  0.00     0.221 A 
HETATM    8  C7  UNK     1      17.414  10.205   9.923  1.00  0.00     0.018 A 
HETATM    9  C8  UNK     1      15.698  11.100   7.904  1.00  0.00     0.038 A 
HETATM   10  C11 UNK     1      17.692  11.390   9.240  1.00  0.00     0.001 A 
HETATM   11  C12 UNK     1      16.836  11.837   8.233  1.00  0.00     0.003 A 
ENDROOT
BRANCH   3  12
HETATM   12  C4  UNK     1      12.737   7.430   8.390  1.00  0.00     0.001 A 
HETATM   13  C10 UNK     1      11.514   7.736   8.988  1.00  0.00     0.017 A 
HETATM   14  C14 UNK     1      10.342   7.141   8.522  1.00  0.00     0.037 A 
HETATM   15  C15 UNK     1      10.391   6.241   7.458  1.00  0.00     0.068 A 
HETATM   16  C13 UNK     1      11.614   5.935   6.859  1.00  0.00     0.037 A 
HETATM   17  C9  UNK     1      12.786   6.530   7.326  1.00  0.00     0.017 A 
BRANCH  15  18
HETATM   18  O4  UNK     1       9.248   5.661   7.002  1.00  0.00    -0.356 OA
HETATM   19  C17 UNK     1       8.098   5.745   7.843  1.00  0.00     0.210 C 
ENDBRANCH  15  18
ENDBRANCH   3  12
BRANCH   6  20
HETATM   20  O2  UNK     1      14.400   6.329  10.482  1.00  0.00    -0.350 OA
HETATM   21  C16 UNK     1      15.121   5.253   9.913  1.00  0.00     0.210 C 
ENDBRANCH   6  20
TORSDOF 3
ENDMDL
MODEL 4
REMARK VINA RESULT:      -7.5      3.529      7.743
REMARK  3 active torsions:
REMARK  status: ('A' for Active; 'I' for Inactive)
REMARK    1  A    between atoms: C5_9  and  O2_2 
REMARK    2  A    between atoms: C15_19  and  O4_4 
REMARK    3  A    between atoms: C1_5  and  C4_8 
ROOT
HETATM    1  O1  UNK     1      16.464   5.998  32.392  1.00  0.00    -0.306 OA
HETATM    2  O3  UNK     1      18.834   7.851  35.140  1.00  0.00    -0.284 OA
HETATM    3  C1  UNK     1      17.760   5.570  32.636  1.00  0.00     0.123 A 
HETATM    4  C2  UNK     1      16.739   7.736  34.064  1.00  0.00     0.051 A 
HETATM    5  C3  UNK     1      15.981   7.062  33.109  1.00  0.00     0.090 A 
HETATM    6  C5  UNK     1      18.597   6.138  33.523  1.00  0.00     0.154 A 
HETATM    7  C6  UNK     1      18.119   7.295  34.318  1.00  0.00     0.221 A 
HETATM    8  C7  UNK     1      16.194   8.815  34.765  1.00  0.00     0.018 A 
HETATM    9  C8  UNK     1      14.671   7.463  32.849  1.00  0.00     0.038 A 
HETATM   10  C11 UNK     1      14.883   9.215  34.502  1.00  0.00     0.001 A 
HETATM   11  C12 UNK     1      14.123   8.540  33.546  1.00  0.00     0.003 A 
ENDROOT
BRANCH   3  12
HETATM   12  C4  UNK     1      18.153   4.422  31.799  1.00  0.00     0.001 A 
HETATM   13  C10 UNK     1      18.569   4.628  30.483  1.00  0.00     0.017 A 
HETATM   14  C14 UNK     1      18.941   3.543  29.691  1.00  0.00     0.037 A 
HETATM   15  C15 UNK     1      18.898   2.251  30.214  1.00  0.00     0.068 A 
HETATM   16  C13 UNK     1      18.482   2.044  31.530  1.00  0.00     0.037 A 
HETATM   17  C9  UNK     1      18.109   3.130  32.322  1.00  0.00     0.017 A 
BRANCH  15  18
HETATM   18  O4  UNK     1      19.262   1.191  29.442  1.00  0.00    -0.356 OA
HETATM   19  C17 UNK     1      19.999   0.147  30.079  1.00  0.00     0.210 C 
ENDBRANCH  15  18
ENDBRANCH   3  12
BRANCH   6  20
HETATM   20  O2  UNK     1      19.891   5.707  33.718  1.00  0.00    -0.350 OA
HETATM   21  C16 UNK     1      20.795   6.448  32.921  1.00  0.00     0.210 C 
ENDBRANCH   6  20
TORSDOF 3
ENDMDL
MODEL 5
REMARK VINA RESULT:      -7.4     24.499     26.421
REMARK  3 active torsions:
REMARK  status: ('A' for Active; 'I' for Inactive)
REMARK    1  A    between atoms: C5_9  and  O2_2 
REMARK    2  A    between atoms: C15_19  and  O4_4 
REMARK    3  A    between atoms: C1_5  and  C4_8 
ROOT
HETATM    1  O1  UNK     1      12.724   7.600   7.599  1.00  0.00    -0.306 OA
HETATM    2  O3  UNK     1       9.558   8.312  10.063  1.00  0.00    -0.284 OA
HETATM    3  C1  UNK     1      12.876   8.286   8.794  1.00  0.00     0.123 A 
HETATM    4  C2  UNK     1      10.354   7.355   8.060  1.00  0.00     0.051 A 
HETATM    5  C3  UNK     1      11.475   7.147   7.261  1.00  0.00     0.090 A 
HETATM    6  C5  UNK     1      11.876   8.560   9.650  1.00  0.00     0.154 A 
HETATM    7  C6  UNK     1      10.507   8.093   9.323  1.00  0.00     0.221 A 
HETATM    8  C7  UNK     1       9.105   6.870   7.664  1.00  0.00     0.018 A 
HETATM    9  C8  UNK     1      11.355   6.451   6.058  1.00  0.00     0.038 A 
HETATM   10  C11 UNK     1       8.987   6.174   6.460  1.00  0.00     0.001 A 
HETATM   11  C12 UNK     1      10.110   5.965   5.658  1.00  0.00     0.003 A 
ENDROOT
BRANCH   3  12
HETATM   12  C4  UNK     1      14.266   8.717   9.035  1.00  0.00     0.001 A 
HETATM   13  C10 UNK     1      14.726   9.919   8.496  1.00  0.00     0.017 A 
HETATM   14  C14 UNK     1      16.040  10.327   8.724  1.00  0.00     0.037 A 
HETATM   15  C15 UNK     1      16.893   9.535   9.492  1.00  0.00     0.068 A 
HETATM   16  C13 UNK     1      16.433   8.333  10.031  1.00  0.00     0.037 A 
HETATM   17  C9  UNK     1      15.119   7.925   9.802  1.00  0.00     0.017 A 
BRANCH  15  18
HETATM   18  O4  UNK     1      18.175   9.933   9.716  1.00  0.00    -0.356 OA
HETATM   19  C17 UNK     1      18.413  11.338   9.798  1.00  0.00     0.210 C 
ENDBRANCH  15  18
ENDBRANCH   3  12
BRANCH   6  20
HETATM   20  O2  UNK     1      12.057   9.273  10.815  1.00  0.00    -0.350 OA
HETATM   21  C16 UNK     1      11.770  10.645  10.617  1.00  0.00     0.210 C 
ENDBRANCH   6  20
TORSDOF 3
ENDMDL
MODEL 6
REMARK VINA RESULT:      -7.4      1.943      4.862
REMARK  3 active torsions:
REMARK  status: ('A' for Active; 'I' for Inactive)
REMARK    1  A    between atoms: C5_9  and  O2_2 
REMARK    2  A    between atoms: C15_19  and  O4_4 
REMARK    3  A    between atoms: C1_5  and  C4_8 
ROOT
HETATM    1  O1  UNK     1      19.284   1.947  30.505  1.00  0.00    -0.306 OA
HETATM    2  O3  UNK     1      18.468  -0.460  33.689  1.00  0.00    -0.284 OA
HETATM    3  C1  UNK     1      18.683   2.443  31.651  1.00  0.00     0.123 A 
HETATM    4  C2  UNK     1      19.366  -0.256  31.518  1.00  0.00     0.051 A 
HETATM    5  C3  UNK     1      19.615   0.618  30.463  1.00  0.00     0.090 A 
HETATM    6  C5  UNK     1      18.381   1.705  32.735  1.00  0.00     0.154 A 
HETATM    7  C6  UNK     1      18.717   0.261  32.733  1.00  0.00     0.221 A 
HETATM    8  C7  UNK     1      19.726  -1.602  31.420  1.00  0.00     0.018 A 
HETATM    9  C8  UNK     1      20.228   0.151  29.300  1.00  0.00     0.038 A 
HETATM   10  C11 UNK     1      20.339  -2.068  30.255  1.00  0.00     0.001 A 
HETATM   11  C12 UNK     1      20.589  -1.192  29.197  1.00  0.00     0.003 A 
ENDROOT
BRANCH   3  12
HETATM   12  C4  UNK     1      18.379   3.883  31.564  1.00  0.00     0.001 A 
HETATM   13  C10 UNK     1      18.962   4.660  30.562  1.00  0.00     0.017 A 
HETATM   14  C14 UNK     1      18.674   6.021  30.479  1.00  0.00     0.037 A 
HETATM   15  C15 UNK     1      17.803   6.608  31.397  1.00  0.00     0.068 A 
HETATM   16  C13 UNK     1      17.220   5.832  32.399  1.00  0.00     0.037 A 
HETATM   17  C9  UNK     1      17.508   4.469  32.482  1.00  0.00     0.017 A 
BRANCH  15  18
HETATM   18  O4  UNK     1      17.521   7.936  31.316  1.00  0.00    -0.356 OA
HETATM   19  C17 UNK     1      16.193   8.339  31.650  1.00  0.00     0.210 C 
ENDBRANCH  15  18
ENDBRANCH   3  12
BRANCH   6  20
HETATM   20  O2  UNK     1      17.754   2.223  33.847  1.00  0.00    -0.350 OA
HETATM   21  C16 UNK     1      18.653   2.313  34.936  1.00  0.00     0.210 C 
ENDBRANCH   6  20
TORSDOF 3
ENDMDL
MODEL 7
REMARK VINA RESULT:      -7.4      1.604      4.034
REMARK  3 active torsions:
REMARK  status: ('A' for Active; 'I' for Inactive)
REMARK    1  A    between atoms: C5_9  and  O2_2 
REMARK    2  A    between atoms: C15_19  and  O4_4 
REMARK    3  A    between atoms: C1_5  and  C4_8 
ROOT
HETATM    1  O1  UNK     1      18.151   3.607  33.168  1.00  0.00    -0.306 OA
HETATM    2  O3  UNK     1      19.005   2.018  29.516  1.00  0.00    -0.284 OA
HETATM    3  C1  UNK     1      18.238   2.237  32.978  1.00  0.00     0.123 A 
HETATM    4  C2  UNK     1      18.670   3.951  30.823  1.00  0.00     0.051 A 
HETATM    5  C3  UNK     1      18.371   4.431  32.096  1.00  0.00     0.090 A 
HETATM    6  C5  UNK     1      18.510   1.646  31.801  1.00  0.00     0.154 A 
HETATM    7  C6  UNK     1      18.752   2.498  30.612  1.00  0.00     0.221 A 
HETATM    8  C7  UNK     1      18.886   4.839  29.766  1.00  0.00     0.018 A 
HETATM    9  C8  UNK     1      18.287   5.806  32.321  1.00  0.00     0.038 A 
HETATM   10  C11 UNK     1      18.800   6.214  29.994  1.00  0.00     0.001 A 
HETATM   11  C12 UNK     1      18.501   6.696  31.269  1.00  0.00     0.003 A 
ENDROOT
BRANCH   3  12
HETATM   12  C4  UNK     1      17.978   1.468  34.209  1.00  0.00     0.001 A 
HETATM   13  C10 UNK     1      17.043   0.432  34.199  1.00  0.00     0.017 A 
HETATM   14  C14 UNK     1      16.797  -0.296  35.363  1.00  0.00     0.037 A 
HETATM   15  C15 UNK     1      17.485   0.011  36.536  1.00  0.00     0.068 A 
HETATM   16  C13 UNK     1      18.420   1.047  36.547  1.00  0.00     0.037 A 
HETATM   17  C9  UNK     1      18.666   1.775  35.383  1.00  0.00     0.017 A 
BRANCH  15  18
HETATM   18  O4  UNK     1      17.246  -0.699  37.672  1.00  0.00    -0.356 OA
HETATM   19  C17 UNK     1      18.241  -1.642  38.069  1.00  0.00     0.210 C 
ENDBRANCH  15  18
ENDBRANCH   3  12
BRANCH   6  20
HETATM   20  O2  UNK     1      18.558   0.278  31.639  1.00  0.00    -0.350 OA
HETATM   21  C16 UNK     1      19.891  -0.161  31.455  1.00  0.00     0.210 C 
ENDBRANCH   6  20
TORSDOF 3
ENDMDL
MODEL 8
REMARK VINA RESULT:      -7.4      5.325      9.382
REMARK  3 active torsions:
REMARK  status: ('A' for Active; 'I' for Inactive)
REMARK    1  A    between atoms: C5_9  and  O2_2 
REMARK    2  A    between atoms: C15_19  and  O4_4 
REMARK    3  A    between atoms: C1_5  and  C4_8 
ROOT
HETATM    1  O1  UNK     1      18.034   9.083  33.236  1.00  0.00    -0.306 OA
HETATM    2  O3  UNK     1      14.208   9.513  34.569  1.00  0.00    -0.284 OA
HETATM    3  C1  UNK     1      17.095   8.076  33.077  1.00  0.00     0.123 A 
HETATM    4  C2  UNK     1      16.355  10.458  34.321  1.00  0.00     0.051 A 
HETATM    5  C3  UNK     1      17.647  10.247  33.846  1.00  0.00     0.090 A 
HETATM    6  C5  UNK     1      15.819   8.149  33.497  1.00  0.00     0.154 A 
HETATM    7  C6  UNK     1      15.357   9.388  34.166  1.00  0.00     0.221 A 
HETATM    8  C7  UNK     1      16.017  11.666  34.935  1.00  0.00     0.018 A 
HETATM    9  C8  UNK     1      18.612  11.246  33.983  1.00  0.00     0.038 A 
HETATM   10  C11 UNK     1      16.984  12.664  35.071  1.00  0.00     0.001 A 
HETATM   11  C12 UNK     1      18.279  12.454  34.595  1.00  0.00     0.003 A 
ENDROOT
BRANCH   3  12
HETATM   12  C4  UNK     1      17.642   6.881  32.408  1.00  0.00     0.001 A 
HETATM   13  C10 UNK     1      17.688   5.662  33.087  1.00  0.00     0.017 A 
HETATM   14  C14 UNK     1      18.204   4.532  32.455  1.00  0.00     0.037 A 
HETATM   15  C15 UNK     1      18.674   4.618  31.145  1.00  0.00     0.068 A 
HETATM   16  C13 UNK     1      18.628   5.836  30.466  1.00  0.00     0.037 A 
HETATM   17  C9  UNK     1      18.111   6.967  31.098  1.00  0.00     0.017 A 
BRANCH  15  18
HETATM   18  O4  UNK     1      19.177   3.515  30.528  1.00  0.00    -0.356 OA
HETATM   19  C17 UNK     1      18.237   2.548  30.059  1.00  0.00     0.210 C 
ENDBRANCH  15  18
ENDBRANCH   3  12
BRANCH   6  20
HETATM   20  O2  UNK     1      14.919   7.116  33.351  1.00  0.00    -0.350 OA
HETATM   21  C16 UNK     1      14.213   7.232  32.130  1.00  0.00     0.210 C 
ENDBRANCH   6  20
TORSDOF 3
ENDMDL
MODEL 9
REMARK VINA RESULT:      -7.0      1.879      3.381
REMARK  3 active torsions:
REMARK  status: ('A' for Active; 'I' for Inactive)
REMARK    1  A    between atoms: C5_9  and  O2_2 
REMARK    2  A    between atoms: C15_19  and  O4_4 
REMARK    3  A    between atoms: C1_5  and  C4_8 
ROOT
HETATM    1  O1  UNK     1      18.666   0.250  32.446  1.00  0.00    -0.306 OA
HETATM    2  O3  UNK     1      20.881  -3.153  32.775  1.00  0.00    -0.284 OA
HETATM    3  C1  UNK     1      18.734  -0.456  33.636  1.00  0.00     0.123 A 
HETATM    4  C2  UNK     1      20.153  -1.368  31.417  1.00  0.00     0.051 A 
HETATM    5  C3  UNK     1      19.375  -0.214  31.369  1.00  0.00     0.090 A 
HETATM    6  C5  UNK     1      19.440  -1.587  33.813  1.00  0.00     0.154 A 
HETATM    7  C6  UNK     1      20.220  -2.129  32.675  1.00  0.00     0.221 A 
HETATM    8  C7  UNK     1      20.856  -1.794  30.287  1.00  0.00     0.018 A 
HETATM    9  C8  UNK     1      19.295   0.524  30.187  1.00  0.00     0.038 A 
HETATM   10  C11 UNK     1      20.774  -1.054  29.106  1.00  0.00     0.001 A 
HETATM   11  C12 UNK     1      19.995   0.103  29.057  1.00  0.00     0.003 A 
ENDROOT
BRANCH   3  12
HETATM   12  C4  UNK     1      17.926   0.149  34.710  1.00  0.00     0.001 A 
HETATM   13  C10 UNK     1      18.502   1.077  35.579  1.00  0.00     0.017 A 
HETATM   14  C14 UNK     1      17.738   1.650  36.594  1.00  0.00     0.037 A 
HETATM   15  C15 UNK     1      16.397   1.296  36.743  1.00  0.00     0.068 A 
HETATM   16  C13 UNK     1      15.820   0.368  35.875  1.00  0.00     0.037 A 
HETATM   17  C9  UNK     1      16.585  -0.205  34.859  1.00  0.00     0.017 A 
BRANCH  15  18
HETATM   18  O4  UNK     1      15.650   1.855  37.733  1.00  0.00    -0.356 OA
HETATM   19  C17 UNK     1      14.361   2.351  37.373  1.00  0.00     0.210 C 
ENDBRANCH  15  18
ENDBRANCH   3  12
BRANCH   6  20
HETATM   20  O2  UNK     1      19.461  -2.283  35.002  1.00  0.00    -0.350 OA
HETATM   21  C16 UNK     1      20.637  -1.995  35.734  1.00  0.00     0.210 C 
ENDBRANCH   6  20
TORSDOF 3
ENDMDL
MODEL 10
REMARK VINA RESULT:      -6.8      7.334      9.303
REMARK  3 active torsions:
REMARK  status: ('A' for Active; 'I' for Inactive)
REMARK    1  A    between atoms: C5_9  and  O2_2 
REMARK    2  A    between atoms: C15_19  and  O4_4 
REMARK    3  A    between atoms: C1_5  and  C4_8 
ROOT
HETATM    1  O1  UNK     1      21.271  -5.127  37.743  1.00  0.00    -0.306 OA
HETATM    2  O3  UNK     1      18.653  -8.227  38.109  1.00  0.00    -0.284 OA
HETATM    3  C1  UNK     1      20.011  -5.081  37.168  1.00  0.00     0.123 A 
HETATM    4  C2  UNK     1      20.774  -7.333  38.622  1.00  0.00     0.051 A 
HETATM    5  C3  UNK     1      21.624  -6.242  38.457  1.00  0.00     0.090 A 
HETATM    6  C5  UNK     1      19.101  -6.069  37.244  1.00  0.00     0.154 A 
HETATM    7  C6  UNK     1      19.440  -7.296  38.004  1.00  0.00     0.221 A 
HETATM    8  C7  UNK     1      21.187  -8.444  39.362  1.00  0.00     0.018 A 
HETATM    9  C8  UNK     1      22.895  -6.254  39.033  1.00  0.00     0.038 A 
HETATM   10  C11 UNK     1      22.459  -8.454  39.936  1.00  0.00     0.001 A 
HETATM   11  C12 UNK     1      23.311  -7.361  39.772  1.00  0.00     0.003 A 
ENDROOT
BRANCH   3  12
HETATM   12  C4  UNK     1      19.761  -3.830  36.429  1.00  0.00     0.001 A 
HETATM   13  C10 UNK     1      19.030  -2.802  37.025  1.00  0.00     0.017 A 
HETATM   14  C14 UNK     1      18.794  -1.618  36.327  1.00  0.00     0.037 A 
HETATM   15  C15 UNK     1      19.289  -1.461  35.033  1.00  0.00     0.068 A 
HETATM   16  C13 UNK     1      20.021  -2.489  34.436  1.00  0.00     0.037 A 
HETATM   17  C9  UNK     1      20.256  -3.673  35.135  1.00  0.00     0.017 A 
BRANCH  15  18
HETATM   18  O4  UNK     1      19.060  -0.306  34.351  1.00  0.00    -0.356 OA
HETATM   19  C17 UNK     1      17.774   0.294  34.504  1.00  0.00     0.210 C 
ENDBRANCH  15  18
ENDBRANCH   3  12
BRANCH   6  20
HETATM   20  O2  UNK     1      17.867  -6.004  36.634  1.00  0.00    -0.350 OA
HETATM   21  C16 UNK     1      17.765  -6.965  35.600  1.00  0.00     0.210 C 
ENDBRANCH   6  20
TORSDOF 3
ENDMDL
