MODEL 1
REMARK VINA RESULT:      -9.4      0.000      0.000
REMARK  3 active torsions:
REMARK  status: ('A' for Active; 'I' for Inactive)
REMARK    1  A    between atoms: C5_10  and  N1_5 
REMARK       I    between atoms: C6_11  and  N1_5 
REMARK    2  A    between atoms: C2_7  and  C6_11 
REMARK    3  A    between atoms: C17_22  and  C9_14 
ROOT
HETATM    1  O2  UNK     1      17.593   3.203  32.811  1.00  0.00    -0.267 OA
HETATM    2  N1  UNK     1      18.725   4.686  31.373  1.00  0.00    -0.323 N 
HETATM    3  C6  UNK     1      18.280   3.451  31.821  1.00  0.00     0.262 C 
HETATM    4  H3  UNK     1      19.271   4.723  30.516  1.00  0.00     0.169 HD
ENDROOT
BRANCH   3   5
HETATM    5  C2  UNK     1      18.725   2.355  30.951  1.00  0.00     0.108 A 
HETATM    6  C4  UNK     1      19.149   1.246  31.567  1.00  0.00     0.037 A 
HETATM    7  C1  UNK     1      19.609   0.106  30.790  1.00  0.00    -0.001 A 
HETATM    8  C3  UNK     1      19.602   0.192  29.402  1.00  0.00     0.089 A 
HETATM    9  C7  UNK     1      20.060  -1.072  31.391  1.00  0.00     0.014 A 
HETATM   10  C10 UNK     1      20.031  -0.864  28.599  1.00  0.00     0.038 A 
HETATM   11  O1  UNK     1      19.155   1.362  28.759  1.00  0.00    -0.274 OA
HETATM   12  C16 UNK     1      20.479  -2.035  29.206  1.00  0.00     0.003 A 
HETATM   13  C15 UNK     1      20.494  -2.140  30.599  1.00  0.00     0.001 A 
HETATM   14  C8  UNK     1      18.708   2.468  29.476  1.00  0.00     0.304 A 
HETATM   15  O3  UNK     1      18.321   3.485  28.908  1.00  0.00    -0.259 OA
ENDBRANCH   3   5
BRANCH   2  16
HETATM   16  C5  UNK     1      18.485   5.936  31.960  1.00  0.00     0.035 A 
HETATM   17  C11 UNK     1      17.312   6.625  31.665  1.00  0.00     0.030 A 
HETATM   18  C13 UNK     1      17.074   7.870  32.249  1.00  0.00     0.017 A 
HETATM   19  C9  UNK     1      18.010   8.418  33.127  1.00  0.00     0.009 A 
HETATM   20  C14 UNK     1      19.183   7.724  33.420  1.00  0.00     0.017 A 
HETATM   21  C12 UNK     1      19.422   6.480  32.835  1.00  0.00     0.030 A 
BRANCH  19  22
HETATM   22  C17 UNK     1      17.761   9.715  33.737  1.00  0.00     0.155 C 
HETATM   23  O4  UNK     1      18.595  10.639  33.662  1.00  0.00    -0.293 OA
HETATM   24  C18 UNK     1      16.463   9.973  34.492  1.00  0.00     0.096 C 
ENDBRANCH  19  22
ENDBRANCH   2  16
TORSDOF 3
ENDMDL
MODEL 2
REMARK VINA RESULT:      -9.2      7.866     12.763
REMARK  3 active torsions:
REMARK  status: ('A' for Active; 'I' for Inactive)
REMARK    1  A    between atoms: C5_10  and  N1_5 
REMARK       I    between atoms: C6_11  and  N1_5 
REMARK    2  A    between atoms: C2_7  and  C6_11 
REMARK    3  A    between atoms: C17_22  and  C9_14 
ROOT
HETATM    1  O2  UNK     1      20.876  -4.052  37.709  1.00  0.00    -0.267 OA
HETATM    2  N1  UNK     1      19.441  -5.017  36.110  1.00  0.00    -0.323 N 
HETATM    3  C6  UNK     1      20.047  -3.980  36.804  1.00  0.00     0.262 C 
HETATM    4  H3  UNK     1      18.786  -4.787  35.368  1.00  0.00     0.169 HD
ENDROOT
BRANCH   3   5
HETATM    5  C2  UNK     1      19.588  -2.665  36.341  1.00  0.00     0.108 A 
HETATM    6  C4  UNK     1      18.879  -1.944  37.217  1.00  0.00     0.037 A 
HETATM    7  C1  UNK     1      18.380  -0.627  36.851  1.00  0.00    -0.001 A 
HETATM    8  C3  UNK     1      18.651  -0.136  35.579  1.00  0.00     0.089 A 
HETATM    9  C7  UNK     1      17.636   0.160  37.733  1.00  0.00     0.014 A 
HETATM   10  C10 UNK     1      18.202   1.117  35.164  1.00  0.00     0.038 A 
HETATM   11  O1  UNK     1      19.398  -0.899  34.660  1.00  0.00    -0.274 OA
HETATM   12  C16 UNK     1      17.461   1.895  36.050  1.00  0.00     0.003 A 
HETATM   13  C15 UNK     1      17.178   1.419  37.332  1.00  0.00     0.001 A 
HETATM   14  C8  UNK     1      19.889  -2.161  34.983  1.00  0.00     0.304 A 
HETATM   15  O3  UNK     1      20.537  -2.820  34.176  1.00  0.00    -0.259 OA
ENDBRANCH   3   5
BRANCH   2  16
HETATM   16  C5  UNK     1      19.647  -6.391  36.293  1.00  0.00     0.035 A 
HETATM   17  C11 UNK     1      20.518  -7.078  35.452  1.00  0.00     0.030 A 
HETATM   18  C13 UNK     1      20.723  -8.446  35.634  1.00  0.00     0.017 A 
HETATM   19  C9  UNK     1      20.056  -9.121  36.657  1.00  0.00     0.009 A 
HETATM   20  C14 UNK     1      19.184  -8.428  37.497  1.00  0.00     0.017 A 
HETATM   21  C12 UNK     1      18.979  -7.061  37.314  1.00  0.00     0.030 A 
BRANCH  19  22
HETATM   22  C17 UNK     1      20.270 -10.547  36.848  1.00  0.00     0.155 C 
HETATM   23  O4  UNK     1      19.374 -11.283  37.308  1.00  0.00    -0.293 OA
HETATM   24  C18 UNK     1      21.609 -11.178  36.487  1.00  0.00     0.096 C 
ENDBRANCH  19  22
ENDBRANCH   2  16
TORSDOF 3
ENDMDL
MODEL 3
REMARK VINA RESULT:      -8.9      1.202      2.264
REMARK  3 active torsions:
REMARK  status: ('A' for Active; 'I' for Inactive)
REMARK    1  A    between atoms: C5_10  and  N1_5 
REMARK       I    between atoms: C6_11  and  N1_5 
REMARK    2  A    between atoms: C2_7  and  C6_11 
REMARK    3  A    between atoms: C17_22  and  C9_14 
ROOT
HETATM    1  O2  UNK     1      18.230   4.478  30.368  1.00  0.00    -0.267 OA
HETATM    2  N1  UNK     1      18.358   4.537  32.719  1.00  0.00    -0.323 N 
HETATM    3  C6  UNK     1      18.402   3.948  31.465  1.00  0.00     0.262 C 
HETATM    4  H3  UNK     1      18.545   3.958  33.534  1.00  0.00     0.169 HD
ENDROOT
BRANCH   3   5
HETATM    5  C2  UNK     1      18.696   2.512  31.540  1.00  0.00     0.108 A 
HETATM    6  C4  UNK     1      19.287   1.972  30.468  1.00  0.00     0.037 A 
HETATM    7  C1  UNK     1      19.618   0.556  30.448  1.00  0.00    -0.001 A 
HETATM    8  C3  UNK     1      19.308  -0.223  31.557  1.00  0.00     0.089 A 
HETATM    9  C7  UNK     1      20.236  -0.049  29.351  1.00  0.00     0.014 A 
HETATM   10  C10 UNK     1      19.597  -1.586  31.602  1.00  0.00     0.038 A 
HETATM   11  O1  UNK     1      18.685   0.350  32.683  1.00  0.00    -0.274 OA
HETATM   12  C16 UNK     1      20.214  -2.181  30.504  1.00  0.00     0.003 A 
HETATM   13  C15 UNK     1      20.533  -1.416  29.381  1.00  0.00     0.001 A 
HETATM   14  C8  UNK     1      18.357   1.702  32.731  1.00  0.00     0.304 A 
HETATM   15  O3  UNK     1      17.813   2.193  33.715  1.00  0.00    -0.259 OA
ENDBRANCH   3   5
BRANCH   2  16
HETATM   16  C5  UNK     1      18.105   5.884  33.014  1.00  0.00     0.035 A 
HETATM   17  C11 UNK     1      19.132   6.692  33.494  1.00  0.00     0.030 A 
HETATM   18  C13 UNK     1      18.880   8.032  33.788  1.00  0.00     0.017 A 
HETATM   19  C9  UNK     1      17.603   8.559  33.597  1.00  0.00     0.009 A 
HETATM   20  C14 UNK     1      16.577   7.746  33.114  1.00  0.00     0.017 A 
HETATM   21  C12 UNK     1      16.829   6.406  32.822  1.00  0.00     0.030 A 
BRANCH  19  22
HETATM   22  C17 UNK     1      17.339   9.957  33.901  1.00  0.00     0.155 C 
HETATM   23  O4  UNK     1      18.147  10.854  33.588  1.00  0.00    -0.293 OA
HETATM   24  C18 UNK     1      16.057  10.359  34.620  1.00  0.00     0.096 C 
ENDBRANCH  19  22
ENDBRANCH   2  16
TORSDOF 3
ENDMDL
MODEL 4
REMARK VINA RESULT:      -8.9      1.806      8.671
REMARK  3 active torsions:
REMARK  status: ('A' for Active; 'I' for Inactive)
REMARK    1  A    between atoms: C5_10  and  N1_5 
REMARK       I    between atoms: C6_11  and  N1_5 
REMARK    2  A    between atoms: C2_7  and  C6_11 
REMARK    3  A    between atoms: C17_22  and  C9_14 
ROOT
HETATM    1  O2  UNK     1      19.712   5.452  31.101  1.00  0.00    -0.267 OA
HETATM    2  N1  UNK     1      18.040   3.883  31.640  1.00  0.00    -0.323 N 
HETATM    3  C6  UNK     1      18.681   5.112  31.680  1.00  0.00     0.262 C 
HETATM    4  H3  UNK     1      17.176   3.769  32.164  1.00  0.00     0.169 HD
ENDROOT
BRANCH   3   5
HETATM    5  C2  UNK     1      17.980   6.072  32.541  1.00  0.00     0.108 A 
HETATM    6  C4  UNK     1      16.808   6.528  32.087  1.00  0.00     0.037 A 
HETATM    7  C1  UNK     1      16.038   7.483  32.869  1.00  0.00    -0.001 A 
HETATM    8  C3  UNK     1      16.544   7.912  34.092  1.00  0.00     0.089 A 
HETATM    9  C7  UNK     1      14.810   7.986  32.434  1.00  0.00     0.014 A 
HETATM   10  C10 UNK     1      15.858   8.826  34.890  1.00  0.00     0.038 A 
HETATM   11  O1  UNK     1      17.779   7.429  34.566  1.00  0.00    -0.274 OA
HETATM   12  C16 UNK     1      14.633   9.322  34.449  1.00  0.00     0.003 A 
HETATM   13  C15 UNK     1      14.109   8.903  33.224  1.00  0.00     0.001 A 
HETATM   14  C8  UNK     1      18.536   6.514  33.839  1.00  0.00     0.304 A 
HETATM   15  O3  UNK     1      19.612   6.099  34.259  1.00  0.00    -0.259 OA
ENDBRANCH   3   5
BRANCH   2  16
HETATM   16  C5  UNK     1      18.432   2.746  30.921  1.00  0.00     0.035 A 
HETATM   17  C11 UNK     1      18.233   2.695  29.544  1.00  0.00     0.030 A 
HETATM   18  C13 UNK     1      18.624   1.563  28.829  1.00  0.00     0.017 A 
HETATM   19  C9  UNK     1      19.214   0.488  29.493  1.00  0.00     0.009 A 
HETATM   20  C14 UNK     1      19.413   0.544  30.872  1.00  0.00     0.017 A 
HETATM   21  C12 UNK     1      19.021   1.675  31.588  1.00  0.00     0.030 A 
BRANCH  19  22
HETATM   22  C17 UNK     1      19.623  -0.693  28.747  1.00  0.00     0.155 C 
HETATM   23  O4  UNK     1      19.257  -0.877  27.570  1.00  0.00    -0.293 OA
HETATM   24  C18 UNK     1      20.517  -1.741  29.399  1.00  0.00     0.096 C 
ENDBRANCH  19  22
ENDBRANCH   2  16
TORSDOF 3
ENDMDL
MODEL 5
REMARK VINA RESULT:      -8.7      8.180     10.354
REMARK  3 active torsions:
REMARK  status: ('A' for Active; 'I' for Inactive)
REMARK    1  A    between atoms: C5_10  and  N1_5 
REMARK       I    between atoms: C6_11  and  N1_5 
REMARK    2  A    between atoms: C2_7  and  C6_11 
REMARK    3  A    between atoms: C17_22  and  C9_14 
ROOT
HETATM    1  O2  UNK     1      21.287  -4.033  37.203  1.00  0.00    -0.267 OA
HETATM    2  N1  UNK     1      19.026  -3.954  36.548  1.00  0.00    -0.323 N 
HETATM    3  C6  UNK     1      20.225  -4.565  36.885  1.00  0.00     0.262 C 
HETATM    4  H3  UNK     1      18.227  -4.543  36.328  1.00  0.00     0.169 HD
ENDROOT
BRANCH   3   5
HETATM    5  C2  UNK     1      20.132  -6.029  36.833  1.00  0.00     0.108 A 
HETATM    6  C4  UNK     1      19.983  -6.655  38.006  1.00  0.00     0.037 A 
HETATM    7  C1  UNK     1      19.882  -8.105  38.057  1.00  0.00    -0.001 A 
HETATM    8  C3  UNK     1      19.945  -8.825  36.868  1.00  0.00     0.089 A 
HETATM    9  C7  UNK     1      19.726  -8.800  39.259  1.00  0.00     0.014 A 
HETATM   10  C10 UNK     1      19.855 -10.216  36.847  1.00  0.00     0.038 A 
HETATM   11  O1  UNK     1      20.101  -8.161  35.636  1.00  0.00    -0.274 OA
HETATM   12  C16 UNK     1      19.699 -10.901  38.050  1.00  0.00     0.003 A 
HETATM   13  C15 UNK     1      19.635 -10.195  39.254  1.00  0.00     0.001 A 
HETATM   14  C8  UNK     1      20.200  -6.775  35.557  1.00  0.00     0.304 A 
HETATM   15  O3  UNK     1      20.338  -6.205  34.479  1.00  0.00    -0.259 OA
ENDBRANCH   3   5
BRANCH   2  16
HETATM   16  C5  UNK     1      18.762  -2.579  36.496  1.00  0.00     0.035 A 
HETATM   17  C11 UNK     1      19.206  -1.830  35.410  1.00  0.00     0.030 A 
HETATM   18  C13 UNK     1      18.943  -0.461  35.359  1.00  0.00     0.017 A 
HETATM   19  C9  UNK     1      18.235   0.152  36.393  1.00  0.00     0.009 A 
HETATM   20  C14 UNK     1      17.791  -0.603  37.478  1.00  0.00     0.017 A 
HETATM   21  C12 UNK     1      18.055  -1.971  37.530  1.00  0.00     0.030 A 
BRANCH  19  22
HETATM   22  C17 UNK     1      17.959   1.580  36.339  1.00  0.00     0.155 C 
HETATM   23  O4  UNK     1      17.125   2.110  37.099  1.00  0.00    -0.293 OA
HETATM   24  C18 UNK     1      18.692   2.467  35.340  1.00  0.00     0.096 C 
ENDBRANCH  19  22
ENDBRANCH   2  16
TORSDOF 3
ENDMDL
MODEL 6
REMARK VINA RESULT:      -8.6     14.130     19.072
REMARK  3 active torsions:
REMARK  status: ('A' for Active; 'I' for Inactive)
REMARK    1  A    between atoms: C5_10  and  N1_5 
REMARK       I    between atoms: C6_11  and  N1_5 
REMARK    2  A    between atoms: C2_7  and  C6_11 
REMARK    3  A    between atoms: C17_22  and  C9_14 
ROOT
HETATM    1  O2  UNK     1      17.867  -3.132  15.710  1.00  0.00    -0.267 OA
HETATM    2  N1  UNK     1      20.157  -2.997  15.176  1.00  0.00    -0.323 N 
HETATM    3  C6  UNK     1      18.937  -2.530  15.642  1.00  0.00     0.262 C 
HETATM    4  H3  UNK     1      20.959  -2.373  15.206  1.00  0.00     0.169 HD
ENDROOT
BRANCH   3   5
HETATM    5  C2  UNK     1      19.016  -1.134  16.091  1.00  0.00     0.108 A 
HETATM    6  C4  UNK     1      18.832  -0.923  17.399  1.00  0.00     0.037 A 
HETATM    7  C1  UNK     1      18.891   0.426  17.940  1.00  0.00    -0.001 A 
HETATM    8  C3  UNK     1      19.140   1.486  17.075  1.00  0.00     0.089 A 
HETATM    9  C7  UNK     1      18.705   0.693  19.298  1.00  0.00     0.014 A 
HETATM   10  C10 UNK     1      19.208   2.803  17.528  1.00  0.00     0.038 A 
HETATM   11  O1  UNK     1      19.332   1.258  15.698  1.00  0.00    -0.274 OA
HETATM   12  C16 UNK     1      19.022   3.061  18.884  1.00  0.00     0.003 A 
HETATM   13  C15 UNK     1      18.772   2.009  19.768  1.00  0.00     0.001 A 
HETATM   14  C8  UNK     1      19.282  -0.021  15.153  1.00  0.00     0.304 A 
HETATM   15  O3  UNK     1      19.449  -0.211  13.952  1.00  0.00    -0.259 OA
ENDBRANCH   3   5
BRANCH   2  16
HETATM   16  C5  UNK     1      20.439  -4.275  14.676  1.00  0.00     0.035 A 
HETATM   17  C11 UNK     1      20.150  -4.578  13.348  1.00  0.00     0.030 A 
HETATM   18  C13 UNK     1      20.430  -5.851  12.851  1.00  0.00     0.017 A 
HETATM   19  C9  UNK     1      21.000  -6.815  13.683  1.00  0.00     0.009 A 
HETATM   20  C14 UNK     1      21.287  -6.507  15.012  1.00  0.00     0.017 A 
HETATM   21  C12 UNK     1      21.006  -5.235  15.510  1.00  0.00     0.030 A 
BRANCH  19  22
HETATM   22  C17 UNK     1      21.293  -8.142  13.164  1.00  0.00     0.155 C 
HETATM   23  O4  UNK     1      22.322  -8.760  13.504  1.00  0.00    -0.293 OA
HETATM   24  C18 UNK     1      20.339  -8.811  12.182  1.00  0.00     0.096 C 
ENDBRANCH  19  22
ENDBRANCH   2  16
TORSDOF 3
ENDMDL
MODEL 7
REMARK VINA RESULT:      -8.5      1.573      8.547
REMARK  3 active torsions:
REMARK  status: ('A' for Active; 'I' for Inactive)
REMARK    1  A    between atoms: C5_10  and  N1_5 
REMARK       I    between atoms: C6_11  and  N1_5 
REMARK    2  A    between atoms: C2_7  and  C6_11 
REMARK    3  A    between atoms: C17_22  and  C9_14 
ROOT
HETATM    1  O2  UNK     1      17.944   3.593  33.326  1.00  0.00    -0.267 OA
HETATM    2  N1  UNK     1      18.503   4.243  31.133  1.00  0.00    -0.323 N 
HETATM    3  C6  UNK     1      18.141   4.440  32.457  1.00  0.00     0.262 C 
HETATM    4  H3  UNK     1      18.650   5.058  30.543  1.00  0.00     0.169 HD
ENDROOT
BRANCH   3   5
HETATM    5  C2  UNK     1      17.996   5.864  32.783  1.00  0.00     0.108 A 
HETATM    6  C4  UNK     1      19.075   6.467  33.293  1.00  0.00     0.037 A 
HETATM    7  C1  UNK     1      19.029   7.877  33.648  1.00  0.00    -0.001 A 
HETATM    8  C3  UNK     1      17.847   8.582  33.449  1.00  0.00     0.089 A 
HETATM    9  C7  UNK     1      20.132   8.548  34.182  1.00  0.00     0.014 A 
HETATM   10  C10 UNK     1      17.735   9.934  33.769  1.00  0.00     0.038 A 
HETATM   11  O1  UNK     1      16.713   7.942  32.912  1.00  0.00    -0.274 OA
HETATM   12  C16 UNK     1      18.840  10.595  34.301  1.00  0.00     0.003 A 
HETATM   13  C15 UNK     1      20.036   9.905  34.508  1.00  0.00     0.001 A 
HETATM   14  C8  UNK     1      16.728   6.594  32.563  1.00  0.00     0.304 A 
HETATM   15  O3  UNK     1      15.735   6.044  32.097  1.00  0.00    -0.259 OA
ENDBRANCH   3   5
BRANCH   2  16
HETATM   16  C5  UNK     1      18.726   3.018  30.489  1.00  0.00     0.035 A 
HETATM   17  C11 UNK     1      19.425   2.009  31.146  1.00  0.00     0.030 A 
HETATM   18  C13 UNK     1      19.648   0.790  30.505  1.00  0.00     0.017 A 
HETATM   19  C9  UNK     1      19.168   0.585  29.212  1.00  0.00     0.009 A 
HETATM   20  C14 UNK     1      18.467   1.598  28.558  1.00  0.00     0.017 A 
HETATM   21  C12 UNK     1      18.246   2.818  29.198  1.00  0.00     0.030 A 
BRANCH  19  22
HETATM   22  C17 UNK     1      19.398  -0.687  28.543  1.00  0.00     0.155 C 
HETATM   23  O4  UNK     1      18.973  -0.903  27.391  1.00  0.00    -0.293 OA
HETATM   24  C18 UNK     1      20.171  -1.796  29.248  1.00  0.00     0.096 C 
ENDBRANCH  19  22
ENDBRANCH   2  16
TORSDOF 3
ENDMDL
MODEL 8
REMARK VINA RESULT:      -8.4     14.790     16.468
REMARK  3 active torsions:
REMARK  status: ('A' for Active; 'I' for Inactive)
REMARK    1  A    between atoms: C5_10  and  N1_5 
REMARK       I    between atoms: C6_11  and  N1_5 
REMARK    2  A    between atoms: C2_7  and  C6_11 
REMARK    3  A    between atoms: C17_22  and  C9_14 
ROOT
HETATM    1  O2  UNK     1      26.188  -9.100  39.418  1.00  0.00    -0.267 OA
HETATM    2  N1  UNK     1      24.814  -7.445  38.459  1.00  0.00    -0.323 N 
HETATM    3  C6  UNK     1      26.000  -7.985  38.935  1.00  0.00     0.262 C 
HETATM    4  H3  UNK     1      24.832  -6.507  38.067  1.00  0.00     0.169 HD
ENDROOT
BRANCH   3   5
HETATM    5  C2  UNK     1      27.123  -7.048  38.809  1.00  0.00     0.108 A 
HETATM    6  C4  UNK     1      28.338  -7.594  38.691  1.00  0.00     0.037 A 
HETATM    7  C1  UNK     1      29.514  -6.747  38.561  1.00  0.00    -0.001 A 
HETATM    8  C3  UNK     1      29.350  -5.366  38.564  1.00  0.00     0.089 A 
HETATM    9  C7  UNK     1      30.801  -7.274  38.434  1.00  0.00     0.014 A 
HETATM   10  C10 UNK     1      30.435  -4.498  38.445  1.00  0.00     0.038 A 
HETATM   11  O1  UNK     1      28.068  -4.796  38.690  1.00  0.00    -0.274 OA
HETATM   12  C16 UNK     1      31.715  -5.032  38.318  1.00  0.00     0.003 A 
HETATM   13  C15 UNK     1      31.900  -6.416  38.313  1.00  0.00     0.001 A 
HETATM   14  C8  UNK     1      26.926  -5.582  38.814  1.00  0.00     0.304 A 
HETATM   15  O3  UNK     1      25.813  -5.077  38.925  1.00  0.00    -0.259 OA
ENDBRANCH   3   5
BRANCH   2  16
HETATM   16  C5  UNK     1      23.556  -8.061  38.427  1.00  0.00     0.035 A 
HETATM   17  C11 UNK     1      23.146  -8.737  37.281  1.00  0.00     0.030 A 
HETATM   18  C13 UNK     1      21.893  -9.350  37.249  1.00  0.00     0.017 A 
HETATM   19  C9  UNK     1      21.057  -9.286  38.363  1.00  0.00     0.009 A 
HETATM   20  C14 UNK     1      21.472  -8.608  39.509  1.00  0.00     0.017 A 
HETATM   21  C12 UNK     1      22.724  -7.994  39.541  1.00  0.00     0.030 A 
BRANCH  19  22
HETATM   22  C17 UNK     1      19.751  -9.926  38.330  1.00  0.00     0.155 C 
HETATM   23  O4  UNK     1      19.387 -10.708  39.231  1.00  0.00    -0.293 OA
HETATM   24  C18 UNK     1      18.790  -9.653  37.179  1.00  0.00     0.096 C 
ENDBRANCH  19  22
ENDBRANCH   2  16
TORSDOF 3
ENDMDL
MODEL 9
REMARK VINA RESULT:      -8.3      6.385     10.615
REMARK  3 active torsions:
REMARK  status: ('A' for Active; 'I' for Inactive)
REMARK    1  A    between atoms: C5_10  and  N1_5 
REMARK       I    between atoms: C6_11  and  N1_5 
REMARK    2  A    between atoms: C2_7  and  C6_11 
REMARK    3  A    between atoms: C17_22  and  C9_14 
ROOT
HETATM    1  O2  UNK     1      19.125  -1.754  36.545  1.00  0.00    -0.267 OA
HETATM    2  N1  UNK     1      19.852  -3.611  35.291  1.00  0.00    -0.323 N 
HETATM    3  C6  UNK     1      19.426  -2.306  35.487  1.00  0.00     0.262 C 
HETATM    4  H3  UNK     1      20.083  -3.909  34.347  1.00  0.00     0.169 HD
ENDROOT
BRANCH   3   5
HETATM    5  C2  UNK     1      19.352  -1.554  34.228  1.00  0.00     0.108 A 
HETATM    6  C4  UNK     1      19.956  -2.110  33.171  1.00  0.00     0.037 A 
HETATM    7  C1  UNK     1      19.937  -1.441  31.880  1.00  0.00    -0.001 A 
HETATM    8  C3  UNK     1      19.284  -0.218  31.766  1.00  0.00     0.089 A 
HETATM    9  C7  UNK     1      20.553  -1.984  30.750  1.00  0.00     0.014 A 
HETATM   10  C10 UNK     1      19.230   0.475  30.558  1.00  0.00     0.038 A 
HETATM   11  O1  UNK     1      18.651   0.362  32.882  1.00  0.00    -0.274 OA
HETATM   12  C16 UNK     1      19.847  -0.074  29.436  1.00  0.00     0.003 A 
HETATM   13  C15 UNK     1      20.507  -1.301  29.531  1.00  0.00     0.001 A 
HETATM   14  C8  UNK     1      18.651  -0.255  34.129  1.00  0.00     0.304 A 
HETATM   15  O3  UNK     1      18.098   0.259  35.097  1.00  0.00    -0.259 OA
ENDBRANCH   3   5
BRANCH   2  16
HETATM   16  C5  UNK     1      20.034  -4.598  36.269  1.00  0.00     0.035 A 
HETATM   17  C11 UNK     1      19.186  -5.701  36.305  1.00  0.00     0.030 A 
HETATM   18  C13 UNK     1      19.367  -6.684  37.279  1.00  0.00     0.017 A 
HETATM   19  C9  UNK     1      20.398  -6.559  38.211  1.00  0.00     0.009 A 
HETATM   20  C14 UNK     1      21.245  -5.452  38.171  1.00  0.00     0.017 A 
HETATM   21  C12 UNK     1      21.063  -4.469  37.198  1.00  0.00     0.030 A 
BRANCH  19  22
HETATM   22  C17 UNK     1      20.588  -7.584  39.226  1.00  0.00     0.155 C 
HETATM   23  O4  UNK     1      19.631  -8.256  39.659  1.00  0.00    -0.293 OA
HETATM   24  C18 UNK     1      21.978  -7.858  39.790  1.00  0.00     0.096 C 
ENDBRANCH  19  22
ENDBRANCH   2  16
TORSDOF 3
ENDMDL
MODEL 10
REMARK VINA RESULT:      -8.1     13.644     16.650
REMARK  3 active torsions:
REMARK  status: ('A' for Active; 'I' for Inactive)
REMARK    1  A    between atoms: C5_10  and  N1_5 
REMARK       I    between atoms: C6_11  and  N1_5 
REMARK    2  A    between atoms: C2_7  and  C6_11 
REMARK    3  A    between atoms: C17_22  and  C9_14 
ROOT
HETATM    1  O2  UNK     1      17.092  -2.103  16.583  1.00  0.00    -0.267 OA
HETATM    2  N1  UNK     1      19.181  -1.038  16.363  1.00  0.00    -0.323 N 
HETATM    3  C6  UNK     1      18.144  -1.878  15.987  1.00  0.00     0.262 C 
HETATM    4  H3  UNK     1      19.981  -0.947  15.742  1.00  0.00     0.169 HD
ENDROOT
BRANCH   3   5
HETATM    5  C2  UNK     1      18.412  -2.546  14.707  1.00  0.00     0.108 A 
HETATM    6  C4  UNK     1      18.245  -3.873  14.686  1.00  0.00     0.037 A 
HETATM    7  C1  UNK     1      18.486  -4.624  13.464  1.00  0.00    -0.001 A 
HETATM    8  C3  UNK     1      18.892  -3.939  12.324  1.00  0.00     0.089 A 
HETATM    9  C7  UNK     1      18.325  -6.010  13.397  1.00  0.00     0.014 A 
HETATM   10  C10 UNK     1      19.141  -4.598  11.121  1.00  0.00     0.038 A 
HETATM   11  O1  UNK     1      19.066  -2.542  12.351  1.00  0.00    -0.274 OA
HETATM   12  C16 UNK     1      18.977  -5.980  11.062  1.00  0.00     0.003 A 
HETATM   13  C15 UNK     1      18.570  -6.686  12.197  1.00  0.00     0.001 A 
HETATM   14  C8  UNK     1      18.842  -1.797  13.505  1.00  0.00     0.304 A 
HETATM   15  O3  UNK     1      18.997  -0.580  13.521  1.00  0.00    -0.259 OA
ENDBRANCH   3   5
BRANCH   2  16
HETATM   16  C5  UNK     1      19.256  -0.251  17.520  1.00  0.00     0.035 A 
HETATM   17  C11 UNK     1      19.610  -0.835  18.733  1.00  0.00     0.030 A 
HETATM   18  C13 UNK     1      19.684  -0.051  19.884  1.00  0.00     0.017 A 
HETATM   19  C9  UNK     1      19.405   1.314  19.817  1.00  0.00     0.009 A 
HETATM   20  C14 UNK     1      19.051   1.895  18.600  1.00  0.00     0.017 A 
HETATM   21  C12 UNK     1      18.976   1.111  17.449  1.00  0.00     0.030 A 
BRANCH  19  22
HETATM   22  C17 UNK     1      19.482   2.132  21.018  1.00  0.00     0.155 C 
HETATM   23  O4  UNK     1      18.460   2.618  21.541  1.00  0.00    -0.293 OA
HETATM   24  C18 UNK     1      20.832   2.418  21.667  1.00  0.00     0.096 C 
ENDBRANCH  19  22
ENDBRANCH   2  16
TORSDOF 3
ENDMDL
