MODEL 1
REMARK VINA RESULT:      -9.6      0.000      0.000
REMARK  4 active torsions:
REMARK  status: ('A' for Active; 'I' for Inactive)
REMARK    1  A    between atoms: C17_23  and  O4_4 
REMARK    2  A    between atoms: C5_11  and  N1_6 
REMARK       I    between atoms: C6_12  and  N1_6 
REMARK    3  A    between atoms: C2_8  and  C6_12 
REMARK    4  A    between atoms: C17_23  and  C7_13 
ROOT
HETATM    1  O2  UNK     1      21.482  -4.454  37.179  1.00  0.00    -0.267 OA
HETATM    2  N1  UNK     1      19.243  -5.176  37.276  1.00  0.00    -0.322 N 
HETATM    3  C6  UNK     1      20.274  -4.280  37.029  1.00  0.00     0.262 C 
HETATM    4  H2  UNK     1      18.293  -4.857  37.116  1.00  0.00     0.169 HD
ENDROOT
BRANCH   3   5
HETATM    5  C2  UNK     1      19.780  -2.991  36.532  1.00  0.00     0.108 A 
HETATM    6  C9  UNK     1      20.045  -2.529  35.151  1.00  0.00     0.304 A 
HETATM    7  O1  UNK     1      19.524  -1.287  34.796  1.00  0.00    -0.274 OA
HETATM    8  O3  UNK     1      20.690  -3.203  34.354  1.00  0.00    -0.259 OA
HETATM    9  C3  UNK     1      18.782  -0.506  35.703  1.00  0.00     0.089 A 
HETATM   10  C1  UNK     1      18.546  -0.958  36.997  1.00  0.00    -0.001 A 
HETATM   11  C10 UNK     1      18.302   0.723  35.255  1.00  0.00     0.038 A 
HETATM   12  C8  UNK     1      17.804  -0.155  37.867  1.00  0.00     0.014 A 
HETATM   13  C4  UNK     1      19.076  -2.253  37.398  1.00  0.00     0.037 A 
HETATM   14  C12 UNK     1      17.316   1.081  37.432  1.00  0.00     0.001 A 
HETATM   15  C14 UNK     1      17.564   1.519  36.130  1.00  0.00     0.003 A 
ENDBRANCH   3   5
BRANCH   2  16
HETATM   16  C5  UNK     1      19.349  -6.503  37.759  1.00  0.00     0.051 A 
HETATM   17  C11 UNK     1      19.860  -6.701  39.032  1.00  0.00     0.030 A 
HETATM   18  C15 UNK     1      19.975  -8.000  39.528  1.00  0.00     0.002 A 
HETATM   19  C16 UNK     1      19.576  -9.083  38.745  1.00  0.00     0.001 A 
HETATM   20  C13 UNK     1      19.063  -8.868  37.466  1.00  0.00     0.020 A 
HETATM   21  C7  UNK     1      18.949  -7.569  36.969  1.00  0.00     0.066 A 
BRANCH  21  22
HETATM   22  C17 UNK     1      18.407  -7.380  35.629  1.00  0.00     0.295 C 
HETATM   23  O5  UNK     1      17.292  -7.772  35.267  1.00  0.00    -0.259 OA
BRANCH  22  24
HETATM   24  O4  UNK     1      19.287  -6.712  34.825  1.00  0.00    -0.322 OA
HETATM   25  C18 UNK     1      20.486  -7.407  34.466  1.00  0.00     0.213 C 
ENDBRANCH  22  24
ENDBRANCH  21  22
ENDBRANCH   2  16
TORSDOF 4
ENDMDL
MODEL 2
REMARK VINA RESULT:      -9.4      5.223      8.444
REMARK  4 active torsions:
REMARK  status: ('A' for Active; 'I' for Inactive)
REMARK    1  A    between atoms: C17_23  and  O4_4 
REMARK    2  A    between atoms: C5_11  and  N1_6 
REMARK       I    between atoms: C6_12  and  N1_6 
REMARK    3  A    between atoms: C2_8  and  C6_12 
REMARK    4  A    between atoms: C17_23  and  C7_13 
ROOT
HETATM    1  O2  UNK     1      17.579   2.029  30.115  1.00  0.00    -0.267 OA
HETATM    2  N1  UNK     1      19.332   1.308  31.512  1.00  0.00    -0.322 N 
HETATM    3  C6  UNK     1      18.313   2.153  31.094  1.00  0.00     0.262 C 
HETATM    4  H2  UNK     1      19.857   1.577  32.339  1.00  0.00     0.169 HD
ENDROOT
BRANCH   3   5
HETATM    5  C2  UNK     1      18.156   3.312  31.980  1.00  0.00     0.108 A 
HETATM    6  C9  UNK     1      18.193   3.184  33.455  1.00  0.00     0.304 A 
HETATM    7  O1  UNK     1      18.031   4.356  34.189  1.00  0.00    -0.274 OA
HETATM    8  O3  UNK     1      18.359   2.101  34.007  1.00  0.00    -0.259 OA
HETATM    9  C3  UNK     1      17.840   5.604  33.564  1.00  0.00     0.089 A 
HETATM   10  C1  UNK     1      17.807   5.702  32.176  1.00  0.00    -0.001 A 
HETATM   11  C10 UNK     1      17.688   6.721  34.383  1.00  0.00     0.038 A 
HETATM   12  C8  UNK     1      17.617   6.958  31.594  1.00  0.00     0.014 A 
HETATM   13  C4  UNK     1      17.974   4.495  31.381  1.00  0.00     0.037 A 
HETATM   14  C12 UNK     1      17.462   8.087  32.403  1.00  0.00     0.001 A 
HETATM   15  C14 UNK     1      17.497   7.969  33.793  1.00  0.00     0.003 A 
ENDBRANCH   3   5
BRANCH   2  16
HETATM   16  C5  UNK     1      19.760   0.104  30.903  1.00  0.00     0.051 A 
HETATM   17  C11 UNK     1      20.369   0.176  29.660  1.00  0.00     0.030 A 
HETATM   18  C15 UNK     1      20.797  -0.998  29.040  1.00  0.00     0.002 A 
HETATM   19  C16 UNK     1      20.613  -2.228  29.672  1.00  0.00     0.001 A 
HETATM   20  C13 UNK     1      19.999  -2.284  30.923  1.00  0.00     0.020 A 
HETATM   21  C7  UNK     1      19.570  -1.110  31.542  1.00  0.00     0.066 A 
BRANCH  21  22
HETATM   22  C17 UNK     1      18.933  -1.205  32.851  1.00  0.00     0.295 C 
HETATM   23  O5  UNK     1      17.742  -0.951  33.066  1.00  0.00    -0.259 OA
BRANCH  22  24
HETATM   24  O4  UNK     1      19.819  -1.611  33.809  1.00  0.00    -0.322 OA
HETATM   25  C18 UNK     1      19.357  -1.587  35.164  1.00  0.00     0.213 C 
ENDBRANCH  22  24
ENDBRANCH  21  22
ENDBRANCH   2  16
TORSDOF 4
ENDMDL
MODEL 3
REMARK VINA RESULT:      -9.1      6.052      8.979
REMARK  4 active torsions:
REMARK  status: ('A' for Active; 'I' for Inactive)
REMARK    1  A    between atoms: C17_23  and  O4_4 
REMARK    2  A    between atoms: C5_11  and  N1_6 
REMARK       I    between atoms: C6_12  and  N1_6 
REMARK    3  A    between atoms: C2_8  and  C6_12 
REMARK    4  A    between atoms: C17_23  and  C7_13 
ROOT
HETATM    1  O2  UNK     1      17.205   2.454  30.460  1.00  0.00    -0.267 OA
HETATM    2  N1  UNK     1      19.388   2.074  31.259  1.00  0.00    -0.322 N 
HETATM    3  C6  UNK     1      18.242   2.818  31.012  1.00  0.00     0.262 C 
HETATM    4  H2  UNK     1      20.166   2.543  31.711  1.00  0.00     0.169 HD
ENDROOT
BRANCH   3   5
HETATM    5  C2  UNK     1      18.362   4.197  31.499  1.00  0.00     0.108 A 
HETATM    6  C9  UNK     1      19.127   5.227  30.761  1.00  0.00     0.304 A 
HETATM    7  O1  UNK     1      19.168   6.500  31.325  1.00  0.00    -0.274 OA
HETATM    8  O3  UNK     1      19.697   4.978  29.704  1.00  0.00    -0.259 OA
HETATM    9  C3  UNK     1      18.516   6.797  32.537  1.00  0.00     0.089 A 
HETATM   10  C1  UNK     1      17.804   5.813  33.216  1.00  0.00    -0.001 A 
HETATM   11  C10 UNK     1      18.614   8.100  33.022  1.00  0.00     0.038 A 
HETATM   12  C8  UNK     1      17.170   6.147  34.416  1.00  0.00     0.014 A 
HETATM   13  C4  UNK     1      17.741   4.474  32.652  1.00  0.00     0.037 A 
HETATM   14  C12 UNK     1      17.260   7.450  34.915  1.00  0.00     0.001 A 
HETATM   15  C14 UNK     1      17.980   8.423  34.220  1.00  0.00     0.003 A 
ENDBRANCH   3   5
BRANCH   2  16
HETATM   16  C5  UNK     1      19.624   0.717  30.930  1.00  0.00     0.051 A 
HETATM   17  C11 UNK     1      20.236   0.431  29.719  1.00  0.00     0.030 A 
HETATM   18  C15 UNK     1      20.476  -0.899  29.373  1.00  0.00     0.002 A 
HETATM   19  C16 UNK     1      20.105  -1.924  30.242  1.00  0.00     0.001 A 
HETATM   20  C13 UNK     1      19.490  -1.620  31.457  1.00  0.00     0.020 A 
HETATM   21  C7  UNK     1      19.248  -0.291  31.803  1.00  0.00     0.066 A 
BRANCH  21  22
HETATM   22  C17 UNK     1      18.606  -0.008  33.081  1.00  0.00     0.295 C 
HETATM   23  O5  UNK     1      18.949   0.899  33.848  1.00  0.00    -0.259 OA
BRANCH  22  24
HETATM   24  O4  UNK     1      17.575  -0.872  33.323  1.00  0.00    -0.322 OA
HETATM   25  C18 UNK     1      16.954  -0.788  34.611  1.00  0.00     0.213 C 
ENDBRANCH  22  24
ENDBRANCH  21  22
ENDBRANCH   2  16
TORSDOF 4
ENDMDL
MODEL 4
REMARK VINA RESULT:      -9.0      1.355      6.968
REMARK  4 active torsions:
REMARK  status: ('A' for Active; 'I' for Inactive)
REMARK    1  A    between atoms: C17_23  and  O4_4 
REMARK    2  A    between atoms: C5_11  and  N1_6 
REMARK       I    between atoms: C6_12  and  N1_6 
REMARK    3  A    between atoms: C2_8  and  C6_12 
REMARK    4  A    between atoms: C17_23  and  C7_13 
ROOT
HETATM    1  O2  UNK     1      20.991  -3.533  37.723  1.00  0.00    -0.267 OA
HETATM    2  N1  UNK     1      18.934  -3.480  36.577  1.00  0.00    -0.322 N 
HETATM    3  C6  UNK     1      20.050  -4.077  37.146  1.00  0.00     0.262 C 
HETATM    4  H2  UNK     1      18.259  -4.085  36.119  1.00  0.00     0.169 HD
ENDROOT
BRANCH   3   5
HETATM    5  C2  UNK     1      20.033  -5.537  37.001  1.00  0.00     0.108 A 
HETATM    6  C9  UNK     1      20.131  -6.196  35.680  1.00  0.00     0.304 A 
HETATM    7  O1  UNK     1      20.103  -7.589  35.671  1.00  0.00    -0.274 OA
HETATM    8  O3  UNK     1      20.235  -5.553  34.640  1.00  0.00    -0.259 OA
HETATM    9  C3  UNK     1      19.985  -8.337  36.859  1.00  0.00     0.089 A 
HETATM   10  C1  UNK     1      19.892  -7.697  38.091  1.00  0.00    -0.001 A 
HETATM   11  C10 UNK     1      19.966  -9.726  36.749  1.00  0.00     0.038 A 
HETATM   12  C8  UNK     1      19.777  -8.474  39.247  1.00  0.00     0.014 A 
HETATM   13  C4  UNK     1      19.920  -6.243  38.133  1.00  0.00     0.037 A 
HETATM   14  C12 UNK     1      19.756  -9.869  39.152  1.00  0.00     0.001 A 
HETATM   15  C14 UNK     1      19.849 -10.492  37.907  1.00  0.00     0.003 A 
ENDBRANCH   3   5
BRANCH   2  16
HETATM   16  C5  UNK     1      18.622  -2.100  36.531  1.00  0.00     0.051 A 
HETATM   17  C11 UNK     1      17.898  -1.553  37.578  1.00  0.00     0.030 A 
HETATM   18  C15 UNK     1      17.578  -0.196  37.552  1.00  0.00     0.002 A 
HETATM   19  C16 UNK     1      17.988   0.597  36.481  1.00  0.00     0.001 A 
HETATM   20  C13 UNK     1      18.717   0.033  35.435  1.00  0.00     0.020 A 
HETATM   21  C7  UNK     1      19.036  -1.325  35.459  1.00  0.00     0.066 A 
BRANCH  21  22
HETATM   22  C17 UNK     1      19.800  -1.882  34.350  1.00  0.00     0.295 C 
HETATM   23  O5  UNK     1      20.910  -2.415  34.467  1.00  0.00    -0.259 OA
BRANCH  22  24
HETATM   24  O4  UNK     1      19.134  -1.743  33.165  1.00  0.00    -0.322 OA
HETATM   25  C18 UNK     1      19.931  -1.736  31.976  1.00  0.00     0.213 C 
ENDBRANCH  22  24
ENDBRANCH  21  22
ENDBRANCH   2  16
TORSDOF 4
ENDMDL
MODEL 5
REMARK VINA RESULT:      -8.7      8.325     12.220
REMARK  4 active torsions:
REMARK  status: ('A' for Active; 'I' for Inactive)
REMARK    1  A    between atoms: C17_23  and  O4_4 
REMARK    2  A    between atoms: C5_11  and  N1_6 
REMARK       I    between atoms: C6_12  and  N1_6 
REMARK    3  A    between atoms: C2_8  and  C6_12 
REMARK    4  A    between atoms: C17_23  and  C7_13 
ROOT
HETATM    1  O2  UNK     1      17.685   4.124  33.352  1.00  0.00    -0.267 OA
HETATM    2  N1  UNK     1      18.931   5.617  32.023  1.00  0.00    -0.322 N 
HETATM    3  C6  UNK     1      18.361   4.397  32.361  1.00  0.00     0.262 C 
HETATM    4  H2  UNK     1      19.481   5.659  31.171  1.00  0.00     0.169 HD
ENDROOT
BRANCH   3   5
HETATM    5  C2  UNK     1      18.645   3.358  31.365  1.00  0.00     0.108 A 
HETATM    6  C9  UNK     1      18.625   3.637  29.911  1.00  0.00     0.304 A 
HETATM    7  O1  UNK     1      18.911   2.568  29.065  1.00  0.00    -0.274 OA
HETATM    8  O3  UNK     1      18.372   4.753  29.469  1.00  0.00    -0.259 OA
HETATM    9  C3  UNK     1      19.204   1.284  29.563  1.00  0.00     0.089 A 
HETATM   10  C1  UNK     1      19.216   1.043  30.933  1.00  0.00    -0.001 A 
HETATM   11  C10 UNK     1      19.477   0.278  28.638  1.00  0.00     0.038 A 
HETATM   12  C8  UNK     1      19.512  -0.245  31.389  1.00  0.00     0.014 A 
HETATM   13  C4  UNK     1      18.922   2.139  31.844  1.00  0.00     0.037 A 
HETATM   14  C12 UNK     1      19.788  -1.264  30.472  1.00  0.00     0.001 A 
HETATM   15  C14 UNK     1      19.770  -1.003  29.101  1.00  0.00     0.003 A 
ENDBRANCH   3   5
BRANCH   2  16
HETATM   16  C5  UNK     1      18.863   6.832  32.747  1.00  0.00     0.051 A 
HETATM   17  C11 UNK     1      19.867   7.111  33.661  1.00  0.00     0.030 A 
HETATM   18  C15 UNK     1      19.819   8.301  34.386  1.00  0.00     0.002 A 
HETATM   19  C16 UNK     1      18.770   9.198  34.186  1.00  0.00     0.001 A 
HETATM   20  C13 UNK     1      17.767   8.904  33.263  1.00  0.00     0.020 A 
HETATM   21  C7  UNK     1      17.814   7.713  32.538  1.00  0.00     0.066 A 
BRANCH  21  22
HETATM   22  C17 UNK     1      16.751   7.437  31.579  1.00  0.00     0.295 C 
HETATM   23  O5  UNK     1      16.710   7.899  30.433  1.00  0.00    -0.259 OA
BRANCH  22  24
HETATM   24  O4  UNK     1      15.806   6.603  32.108  1.00  0.00    -0.322 OA
HETATM   25  C18 UNK     1      14.448   7.052  32.053  1.00  0.00     0.213 C 
ENDBRANCH  22  24
ENDBRANCH  21  22
ENDBRANCH   2  16
TORSDOF 4
ENDMDL
MODEL 6
REMARK VINA RESULT:      -8.6     19.855     21.652
REMARK  4 active torsions:
REMARK  status: ('A' for Active; 'I' for Inactive)
REMARK    1  A    between atoms: C17_23  and  O4_4 
REMARK    2  A    between atoms: C5_11  and  N1_6 
REMARK       I    between atoms: C6_12  and  N1_6 
REMARK    3  A    between atoms: C2_8  and  C6_12 
REMARK    4  A    between atoms: C17_23  and  C7_13 
ROOT
HETATM    1  O2  UNK     1      17.867  -3.156  15.895  1.00  0.00    -0.267 OA
HETATM    2  N1  UNK     1      20.086  -2.999  15.121  1.00  0.00    -0.322 N 
HETATM    3  C6  UNK     1      18.912  -2.537  15.701  1.00  0.00     0.262 C 
HETATM    4  H2  UNK     1      20.852  -2.340  15.020  1.00  0.00     0.169 HD
ENDROOT
BRANCH   3   5
HETATM    5  C2  UNK     1      19.011  -1.130  16.107  1.00  0.00     0.108 A 
HETATM    6  C9  UNK     1      19.269  -0.048  15.131  1.00  0.00     0.304 A 
HETATM    7  O1  UNK     1      19.342   1.247  15.638  1.00  0.00    -0.274 OA
HETATM    8  O3  UNK     1      19.411  -0.274  13.934  1.00  0.00    -0.259 OA
HETATM    9  C3  UNK     1      19.179   1.518  17.011  1.00  0.00     0.089 A 
HETATM   10  C1  UNK     1      18.939   0.486  17.912  1.00  0.00    -0.001 A 
HETATM   11  C10 UNK     1      19.269   2.847  17.423  1.00  0.00     0.038 A 
HETATM   12  C8  UNK     1      18.783   0.795  19.265  1.00  0.00     0.014 A 
HETATM   13  C4  UNK     1      18.857  -0.879  17.413  1.00  0.00     0.037 A 
HETATM   14  C12 UNK     1      18.870   2.123  19.693  1.00  0.00     0.001 A 
HETATM   15  C14 UNK     1      19.113   3.145  18.775  1.00  0.00     0.003 A 
ENDBRANCH   3   5
BRANCH   2  16
HETATM   16  C5  UNK     1      20.348  -4.296  14.616  1.00  0.00     0.051 A 
HETATM   17  C11 UNK     1      20.760  -5.276  15.505  1.00  0.00     0.030 A 
HETATM   18  C15 UNK     1      21.025  -6.561  15.029  1.00  0.00     0.002 A 
HETATM   19  C16 UNK     1      20.872  -6.848  13.673  1.00  0.00     0.001 A 
HETATM   20  C13 UNK     1      20.455  -5.850  12.792  1.00  0.00     0.020 A 
HETATM   21  C7  UNK     1      20.191  -4.565  13.266  1.00  0.00     0.066 A 
BRANCH  21  22
HETATM   22  C17 UNK     1      19.757  -3.547  12.319  1.00  0.00     0.295 C 
HETATM   23  O5  UNK     1      18.658  -3.547  11.752  1.00  0.00    -0.259 OA
BRANCH  22  24
HETATM   24  O4  UNK     1      20.716  -2.591  12.138  1.00  0.00    -0.322 OA
HETATM   25  C18 UNK     1      20.671  -1.858  10.908  1.00  0.00     0.213 C 
ENDBRANCH  22  24
ENDBRANCH  21  22
ENDBRANCH   2  16
TORSDOF 4
ENDMDL
MODEL 7
REMARK VINA RESULT:      -8.5      4.025      6.626
REMARK  4 active torsions:
REMARK  status: ('A' for Active; 'I' for Inactive)
REMARK    1  A    between atoms: C17_23  and  O4_4 
REMARK    2  A    between atoms: C5_11  and  N1_6 
REMARK       I    between atoms: C6_12  and  N1_6 
REMARK    3  A    between atoms: C2_8  and  C6_12 
REMARK    4  A    between atoms: C17_23  and  C7_13 
ROOT
HETATM    1  O2  UNK     1      16.560   0.773  34.233  1.00  0.00    -0.267 OA
HETATM    2  N1  UNK     1      18.851   0.473  34.689  1.00  0.00    -0.322 N 
HETATM    3  C6  UNK     1      17.751   1.004  34.030  1.00  0.00     0.262 C 
HETATM    4  H2  UNK     1      19.772   0.760  34.375  1.00  0.00     0.169 HD
ENDROOT
BRANCH   3   5
HETATM    5  C2  UNK     1      18.140   1.949  32.976  1.00  0.00     0.108 A 
HETATM    6  C9  UNK     1      18.632   1.494  31.656  1.00  0.00     0.304 A 
HETATM    7  O1  UNK     1      18.971   2.486  30.739  1.00  0.00    -0.274 OA
HETATM    8  O3  UNK     1      18.737   0.304  31.378  1.00  0.00    -0.259 OA
HETATM    9  C3  UNK     1      18.853   3.855  31.048  1.00  0.00     0.089 A 
HETATM   10  C1  UNK     1      18.390   4.261  32.296  1.00  0.00    -0.001 A 
HETATM   11  C10 UNK     1      19.216   4.773  30.065  1.00  0.00     0.038 A 
HETATM   12  C8  UNK     1      18.287   5.628  32.564  1.00  0.00     0.014 A 
HETATM   13  C4  UNK     1      18.027   3.249  33.275  1.00  0.00     0.037 A 
HETATM   14  C12 UNK     1      18.648   6.561  31.587  1.00  0.00     0.001 A 
HETATM   15  C14 UNK     1      19.112   6.135  30.342  1.00  0.00     0.003 A 
ENDBRANCH   3   5
BRANCH   2  16
HETATM   16  C5  UNK     1      18.851  -0.463  35.752  1.00  0.00     0.051 A 
HETATM   17  C11 UNK     1      18.030  -0.221  36.842  1.00  0.00     0.030 A 
HETATM   18  C15 UNK     1      18.015  -1.129  37.901  1.00  0.00     0.002 A 
HETATM   19  C16 UNK     1      18.820  -2.266  37.856  1.00  0.00     0.001 A 
HETATM   20  C13 UNK     1      19.641  -2.496  36.752  1.00  0.00     0.020 A 
HETATM   21  C7  UNK     1      19.657  -1.589  35.693  1.00  0.00     0.066 A 
BRANCH  21  22
HETATM   22  C17 UNK     1      20.525  -1.860  34.554  1.00  0.00     0.295 C 
HETATM   23  O5  UNK     1      21.751  -2.005  34.631  1.00  0.00    -0.259 OA
BRANCH  22  24
HETATM   24  O4  UNK     1      19.813  -1.937  33.390  1.00  0.00    -0.322 OA
HETATM   25  C18 UNK     1      20.540  -2.306  32.213  1.00  0.00     0.213 C 
ENDBRANCH  22  24
ENDBRANCH  21  22
ENDBRANCH   2  16
TORSDOF 4
ENDMDL
MODEL 8
REMARK VINA RESULT:      -8.4      7.999     11.776
REMARK  4 active torsions:
REMARK  status: ('A' for Active; 'I' for Inactive)
REMARK    1  A    between atoms: C17_23  and  O4_4 
REMARK    2  A    between atoms: C5_11  and  N1_6 
REMARK       I    between atoms: C6_12  and  N1_6 
REMARK    3  A    between atoms: C2_8  and  C6_12 
REMARK    4  A    between atoms: C17_23  and  C7_13 
ROOT
HETATM    1  O2  UNK     1      17.591   3.451  32.969  1.00  0.00    -0.267 OA
HETATM    2  N1  UNK     1      18.393   4.984  31.372  1.00  0.00    -0.322 N 
HETATM    3  C6  UNK     1      18.138   3.727  31.903  1.00  0.00     0.262 C 
HETATM    4  H2  UNK     1      18.878   5.029  30.481  1.00  0.00     0.169 HD
ENDROOT
BRANCH   3   5
HETATM    5  C2  UNK     1      18.607   2.649  31.025  1.00  0.00     0.108 A 
HETATM    6  C9  UNK     1      18.636   2.792  29.551  1.00  0.00     0.304 A 
HETATM    7  O1  UNK     1      19.102   1.699  28.826  1.00  0.00    -0.274 OA
HETATM    8  O3  UNK     1      18.270   3.821  28.993  1.00  0.00    -0.259 OA
HETATM    9  C3  UNK     1      19.525   0.514  29.457  1.00  0.00     0.089 A 
HETATM   10  C1  UNK     1      19.489   0.399  30.843  1.00  0.00    -0.001 A 
HETATM   11  C10 UNK     1      19.976  -0.526  28.646  1.00  0.00     0.038 A 
HETATM   12  C8  UNK     1      19.918  -0.793  31.433  1.00  0.00     0.014 A 
HETATM   13  C4  UNK     1      19.008   1.524  31.630  1.00  0.00     0.037 A 
HETATM   14  C12 UNK     1      20.373  -1.845  30.632  1.00  0.00     0.001 A 
HETATM   15  C14 UNK     1      20.401  -1.712  29.243  1.00  0.00     0.003 A 
ENDBRANCH   3   5
BRANCH   2  16
HETATM   16  C5  UNK     1      18.080   6.242  31.941  1.00  0.00     0.051 A 
HETATM   17  C11 UNK     1      16.934   6.892  31.512  1.00  0.00     0.030 A 
HETATM   18  C15 UNK     1      16.607   8.133  32.058  1.00  0.00     0.002 A 
HETATM   19  C16 UNK     1      17.429   8.706  33.028  1.00  0.00     0.001 A 
HETATM   20  C13 UNK     1      18.578   8.039  33.451  1.00  0.00     0.020 A 
HETATM   21  C7  UNK     1      18.906   6.799  32.904  1.00  0.00     0.066 A 
BRANCH  21  22
HETATM   22  C17 UNK     1      20.114   6.129  33.370  1.00  0.00     0.295 C 
HETATM   23  O5  UNK     1      20.125   5.201  34.187  1.00  0.00    -0.259 OA
BRANCH  22  24
HETATM   24  O4  UNK     1      21.233   6.654  32.787  1.00  0.00    -0.322 OA
HETATM   25  C18 UNK     1      21.935   5.812  31.867  1.00  0.00     0.213 C 
ENDBRANCH  22  24
ENDBRANCH  21  22
ENDBRANCH   2  16
TORSDOF 4
ENDMDL
MODEL 9
REMARK VINA RESULT:      -8.3      4.283      6.983
REMARK  4 active torsions:
REMARK  status: ('A' for Active; 'I' for Inactive)
REMARK    1  A    between atoms: C17_23  and  O4_4 
REMARK    2  A    between atoms: C5_11  and  N1_6 
REMARK       I    between atoms: C6_12  and  N1_6 
REMARK    3  A    between atoms: C2_8  and  C6_12 
REMARK    4  A    between atoms: C17_23  and  C7_13 
ROOT
HETATM    1  O2  UNK     1      17.868  -0.875  32.739  1.00  0.00    -0.267 OA
HETATM    2  N1  UNK     1      18.955   0.290  34.473  1.00  0.00    -0.322 N 
HETATM    3  C6  UNK     1      18.422   0.121  33.203  1.00  0.00     0.262 C 
HETATM    4  H2  UNK     1      19.398   1.178  34.683  1.00  0.00     0.169 HD
ENDROOT
BRANCH   3   5
HETATM    5  C2  UNK     1      18.577   1.321  32.372  1.00  0.00     0.108 A 
HETATM    6  C9  UNK     1      19.107   1.257  30.992  1.00  0.00     0.304 A 
HETATM    7  O1  UNK     1      19.208   2.464  30.304  1.00  0.00    -0.274 OA
HETATM    8  O3  UNK     1      19.440   0.196  30.473  1.00  0.00    -0.259 OA
HETATM    9  C3  UNK     1      18.827   3.687  30.890  1.00  0.00     0.089 A 
HETATM   10  C1  UNK     1      18.333   3.725  32.190  1.00  0.00    -0.001 A 
HETATM   11  C10 UNK     1      18.965   4.842  30.123  1.00  0.00     0.038 A 
HETATM   12  C8  UNK     1      17.965   4.957  32.736  1.00  0.00     0.014 A 
HETATM   13  C4  UNK     1      18.215   2.480  32.934  1.00  0.00     0.037 A 
HETATM   14  C12 UNK     1      18.098   6.125  31.978  1.00  0.00     0.001 A 
HETATM   15  C14 UNK     1      18.597   6.067  30.676  1.00  0.00     0.003 A 
ENDBRANCH   3   5
BRANCH   2  16
HETATM   16  C5  UNK     1      18.982  -0.652  35.530  1.00  0.00     0.051 A 
HETATM   17  C11 UNK     1      19.740  -1.801  35.369  1.00  0.00     0.030 A 
HETATM   18  C15 UNK     1      19.780  -2.743  36.397  1.00  0.00     0.002 A 
HETATM   19  C16 UNK     1      19.064  -2.523  37.573  1.00  0.00     0.001 A 
HETATM   20  C13 UNK     1      18.306  -1.361  37.721  1.00  0.00     0.020 A 
HETATM   21  C7  UNK     1      18.265  -0.419  36.693  1.00  0.00     0.066 A 
BRANCH  21  22
HETATM   22  C17 UNK     1      17.465   0.785  36.881  1.00  0.00     0.295 C 
HETATM   23  O5  UNK     1      17.936   1.920  37.015  1.00  0.00    -0.259 OA
BRANCH  22  24
HETATM   24  O4  UNK     1      16.128   0.500  36.889  1.00  0.00    -0.322 OA
HETATM   25  C18 UNK     1      15.522   0.226  35.621  1.00  0.00     0.213 C 
ENDBRANCH  22  24
ENDBRANCH  21  22
ENDBRANCH   2  16
TORSDOF 4
ENDMDL
MODEL 10
REMARK VINA RESULT:      -8.2      6.749      9.881
REMARK  4 active torsions:
REMARK  status: ('A' for Active; 'I' for Inactive)
REMARK    1  A    between atoms: C17_23  and  O4_4 
REMARK    2  A    between atoms: C5_11  and  N1_6 
REMARK       I    between atoms: C6_12  and  N1_6 
REMARK    3  A    between atoms: C2_8  and  C6_12 
REMARK    4  A    between atoms: C17_23  and  C7_13 
ROOT
HETATM    1  O2  UNK     1      19.205   4.911  30.830  1.00  0.00    -0.267 OA
HETATM    2  N1  UNK     1      18.150   3.344  32.237  1.00  0.00    -0.322 N 
HETATM    3  C6  UNK     1      18.480   4.612  31.778  1.00  0.00     0.262 C 
HETATM    4  H2  UNK     1      17.549   3.281  33.052  1.00  0.00     0.169 HD
ENDROOT
BRANCH   3   5
HETATM    5  C2  UNK     1      17.847   5.671  32.572  1.00  0.00     0.108 A 
HETATM    6  C9  UNK     1      18.477   6.217  33.796  1.00  0.00     0.304 A 
HETATM    7  O1  UNK     1      17.778   7.220  34.464  1.00  0.00    -0.274 OA
HETATM    8  O3  UNK     1      19.560   5.812  34.204  1.00  0.00    -0.259 OA
HETATM    9  C3  UNK     1      16.535   7.693  34.003  1.00  0.00     0.089 A 
HETATM   10  C1  UNK     1      15.960   7.165  32.852  1.00  0.00    -0.001 A 
HETATM   11  C10 UNK     1      15.912   8.699  34.740  1.00  0.00     0.038 A 
HETATM   12  C8  UNK     1      14.725   7.662  32.426  1.00  0.00     0.014 A 
HETATM   13  C4  UNK     1      16.665   6.117  32.130  1.00  0.00     0.037 A 
HETATM   14  C12 UNK     1      14.088   8.670  33.155  1.00  0.00     0.001 A 
HETATM   15  C14 UNK     1      14.680   9.187  34.308  1.00  0.00     0.003 A 
ENDBRANCH   3   5
BRANCH   2  16
HETATM   16  C5  UNK     1      18.576   2.099  31.714  1.00  0.00     0.051 A 
HETATM   17  C11 UNK     1      18.943   2.036  30.379  1.00  0.00     0.030 A 
HETATM   18  C15 UNK     1      19.364   0.819  29.844  1.00  0.00     0.002 A 
HETATM   19  C16 UNK     1      19.415  -0.318  30.650  1.00  0.00     0.001 A 
HETATM   20  C13 UNK     1      19.043  -0.239  31.991  1.00  0.00     0.020 A 
HETATM   21  C7  UNK     1      18.620   0.978  32.528  1.00  0.00     0.066 A 
BRANCH  21  22
HETATM   22  C17 UNK     1      18.240   1.026  33.934  1.00  0.00     0.295 C 
HETATM   23  O5  UNK     1      19.041   0.969  34.874  1.00  0.00    -0.259 OA
BRANCH  22  24
HETATM   24  O4  UNK     1      16.887   1.145  34.082  1.00  0.00    -0.322 OA
HETATM   25  C18 UNK     1      16.252   0.215  34.967  1.00  0.00     0.213 C 
ENDBRANCH  22  24
ENDBRANCH  21  22
ENDBRANCH   2  16
TORSDOF 4
ENDMDL
