MODEL 1
REMARK VINA RESULT:      -9.5      0.000      0.000
REMARK  2 active torsions:
REMARK  status: ('A' for Active; 'I' for Inactive)
REMARK       I    between atoms: C7_13  and  N1_5 
REMARK       I    between atoms: C6_12  and  N2_6 
REMARK    1  A    between atoms: C8_14  and  N2_6 
REMARK    2  A    between atoms: C1_7  and  C6_12 
ROOT
HETATM    1  O1  UNK     1      20.482  -3.649  37.156  1.00  0.00    -0.273 OA
HETATM    2  N2  UNK     1      18.694  -4.933  36.311  1.00  0.00    -0.327 N 
HETATM    3  C6  UNK     1      19.336  -3.777  36.737  1.00  0.00     0.226 C 
HETATM    4  H10 UNK     1      17.729  -4.861  35.997  1.00  0.00     0.169 HD
ENDROOT
BRANCH   2   5
HETATM    5  C8  UNK     1      19.249  -6.215  36.276  1.00  0.00     0.037 A 
HETATM    6  C10 UNK     1      18.872  -7.164  37.220  1.00  0.00     0.067 A 
HETATM    7  C13 UNK     1      19.438  -8.440  37.167  1.00  0.00     0.092 A 
HETATM    8  C12 UNK     1      20.373  -8.800  36.196  1.00  0.00     0.004 A 
HETATM    9  O3  UNK     1      19.016  -9.358  38.149  1.00  0.00    -0.275 OA
HETATM   10  C14 UNK     1      20.739  -7.828  35.254  1.00  0.00     0.017 A 
HETATM   11  C15 UNK     1      20.916 -10.164  36.215  1.00  0.00    -0.043 A 
HETATM   12  C11 UNK     1      20.181  -6.546  35.294  1.00  0.00     0.030 A 
HETATM   13  C16 UNK     1      20.497 -11.016  37.161  1.00  0.00     0.090 A 
HETATM   14  C17 UNK     1      21.923 -10.584  35.184  1.00  0.00     0.049 C 
HETATM   15  C18 UNK     1      19.512 -10.651  38.192  1.00  0.00     0.288 A 
HETATM   16  O4  UNK     1      19.152 -11.458  39.042  1.00  0.00    -0.260 OA
ENDBRANCH   2   5
BRANCH   3  17
HETATM   17  C1  UNK     1      18.426  -2.593  36.632  1.00  0.00     0.081 C 
HETATM   18  C2  UNK     1      18.746  -1.797  35.363  1.00  0.00     0.034 C 
HETATM   19  C4  UNK     1      17.922  -0.514  35.294  1.00  0.00     0.126 C 
HETATM   20  N1  UNK     1      18.087   0.277  36.520  1.00  0.00    -0.352 N 
HETATM   21  C5  UNK     1      17.763  -0.436  37.757  1.00  0.00     0.126 C 
HETATM   22  C7  UNK     1      18.479   1.614  36.571  1.00  0.00     0.215 C 
HETATM   23  C3  UNK     1      18.584  -1.717  37.878  1.00  0.00     0.034 C 
HETATM   24  O2  UNK     1      18.610   2.257  37.616  1.00  0.00    -0.274 OA
HETATM   25  C9  UNK     1      18.754   2.289  35.252  1.00  0.00     0.117 C 
ENDBRANCH   3  17
TORSDOF 2
ENDMDL
MODEL 2
REMARK VINA RESULT:      -9.2      1.954      2.791
REMARK  2 active torsions:
REMARK  status: ('A' for Active; 'I' for Inactive)
REMARK       I    between atoms: C7_13  and  N1_5 
REMARK       I    between atoms: C6_12  and  N2_6 
REMARK    1  A    between atoms: C8_14  and  N2_6 
REMARK    2  A    between atoms: C1_7  and  C6_12 
ROOT
HETATM    1  O1  UNK     1      20.450  -4.032  34.847  1.00  0.00    -0.273 OA
HETATM    2  N2  UNK     1      19.339  -4.505  36.872  1.00  0.00    -0.327 N 
HETATM    3  C6  UNK     1      19.804  -3.704  35.837  1.00  0.00     0.226 C 
HETATM    4  H10 UNK     1      18.819  -4.063  37.627  1.00  0.00     0.169 HD
ENDROOT
BRANCH   2   5
HETATM    5  C8  UNK     1      19.523  -5.885  36.990  1.00  0.00     0.037 A 
HETATM    6  C10 UNK     1      20.239  -6.578  36.021  1.00  0.00     0.067 A 
HETATM    7  C13 UNK     1      20.412  -7.957  36.158  1.00  0.00     0.092 A 
HETATM    8  C12 UNK     1      19.889  -8.670  37.237  1.00  0.00     0.004 A 
HETATM    9  O3  UNK     1      21.148  -8.604  35.145  1.00  0.00    -0.275 OA
HETATM   10  C14 UNK     1      19.169  -7.952  38.203  1.00  0.00     0.017 A 
HETATM   11  C15 UNK     1      20.120 -10.119  37.302  1.00  0.00    -0.043 A 
HETATM   12  C11 UNK     1      18.988  -6.570  38.079  1.00  0.00     0.030 A 
HETATM   13  C16 UNK     1      20.823 -10.708  36.324  1.00  0.00     0.090 A 
HETATM   14  C17 UNK     1      19.571 -10.914  38.450  1.00  0.00     0.049 C 
HETATM   15  C18 UNK     1      21.381  -9.970  35.179  1.00  0.00     0.288 A 
HETATM   16  O4  UNK     1      22.019 -10.544  34.303  1.00  0.00    -0.260 OA
ENDBRANCH   2   5
BRANCH   3  17
HETATM   17  C1  UNK     1      19.414  -2.275  36.053  1.00  0.00     0.081 C 
HETATM   18  C2  UNK     1      18.198  -2.196  36.981  1.00  0.00     0.034 C 
HETATM   19  C4  UNK     1      17.699  -0.760  37.116  1.00  0.00     0.126 C 
HETATM   20  N1  UNK     1      17.447  -0.171  35.795  1.00  0.00    -0.352 N 
HETATM   21  C5  UNK     1      18.592  -0.197  34.884  1.00  0.00     0.126 C 
HETATM   22  C7  UNK     1      16.249   0.418  35.390  1.00  0.00     0.215 C 
HETATM   23  C3  UNK     1      19.110  -1.621  34.701  1.00  0.00     0.034 C 
HETATM   24  O2  UNK     1      16.063   0.907  34.273  1.00  0.00    -0.274 OA
HETATM   25  C9  UNK     1      15.131   0.442  36.401  1.00  0.00     0.117 C 
ENDBRANCH   3  17
TORSDOF 2
ENDMDL
MODEL 3
REMARK VINA RESULT:      -9.2      1.421      2.122
REMARK  2 active torsions:
REMARK  status: ('A' for Active; 'I' for Inactive)
REMARK       I    between atoms: C7_13  and  N1_5 
REMARK       I    between atoms: C6_12  and  N2_6 
REMARK    1  A    between atoms: C8_14  and  N2_6 
REMARK    2  A    between atoms: C1_7  and  C6_12 
ROOT
HETATM    1  O1  UNK     1      20.538  -3.806  36.609  1.00  0.00    -0.273 OA
HETATM    2  N2  UNK     1      18.501  -4.986  36.472  1.00  0.00    -0.327 N 
HETATM    3  C6  UNK     1      19.323  -3.867  36.447  1.00  0.00     0.226 C 
HETATM    4  H10 UNK     1      17.503  -4.855  36.323  1.00  0.00     0.169 HD
ENDROOT
BRANCH   2   5
HETATM    5  C8  UNK     1      18.912  -6.302  36.695  1.00  0.00     0.037 A 
HETATM    6  C10 UNK     1      19.768  -6.928  35.796  1.00  0.00     0.067 A 
HETATM    7  C13 UNK     1      20.168  -8.244  36.038  1.00  0.00     0.092 A 
HETATM    8  C12 UNK     1      19.736  -8.960  37.155  1.00  0.00     0.004 A 
HETATM    9  O3  UNK     1      21.037  -8.824  35.092  1.00  0.00    -0.275 OA
HETATM   10  C14 UNK     1      18.872  -8.311  38.049  1.00  0.00     0.017 A 
HETATM   11  C15 UNK     1      20.207 -10.340  37.331  1.00  0.00    -0.043 A 
HETATM   12  C11 UNK     1      18.464  -6.993  37.820  1.00  0.00     0.030 A 
HETATM   13  C16 UNK     1      21.033 -10.866  36.416  1.00  0.00     0.090 A 
HETATM   14  C17 UNK     1      19.761 -11.137  38.522  1.00  0.00     0.049 C 
HETATM   15  C18 UNK     1      21.497 -10.124  35.232  1.00  0.00     0.288 A 
HETATM   16  O4  UNK     1      22.253 -10.637  34.415  1.00  0.00    -0.260 OA
ENDBRANCH   2   5
BRANCH   3  17
HETATM   17  C1  UNK     1      18.527  -2.627  36.180  1.00  0.00     0.081 C 
HETATM   18  C2  UNK     1      19.329  -1.669  35.294  1.00  0.00     0.034 C 
HETATM   19  C4  UNK     1      18.595  -0.343  35.111  1.00  0.00     0.126 C 
HETATM   20  N1  UNK     1      18.245   0.242  36.411  1.00  0.00    -0.352 N 
HETATM   21  C5  UNK     1      17.453  -0.629  37.281  1.00  0.00     0.126 C 
HETATM   22  C7  UNK     1      18.576   1.530  36.831  1.00  0.00     0.215 C 
HETATM   23  C3  UNK     1      18.162  -1.961  37.510  1.00  0.00     0.034 C 
HETATM   24  O2  UNK     1      18.269   1.998  37.931  1.00  0.00    -0.274 OA
HETATM   25  C9  UNK     1      19.357   2.378  35.862  1.00  0.00     0.117 C 
ENDBRANCH   3  17
TORSDOF 2
ENDMDL
MODEL 4
REMARK VINA RESULT:      -9.1      7.709     10.369
REMARK  2 active torsions:
REMARK  status: ('A' for Active; 'I' for Inactive)
REMARK       I    between atoms: C7_13  and  N1_5 
REMARK       I    between atoms: C6_12  and  N2_6 
REMARK    1  A    between atoms: C8_14  and  N2_6 
REMARK    2  A    between atoms: C1_7  and  C6_12 
ROOT
HETATM    1  O1  UNK     1      19.415   5.514  31.682  1.00  0.00    -0.273 OA
HETATM    2  N2  UNK     1      17.879   3.847  32.332  1.00  0.00    -0.327 N 
HETATM    3  C6  UNK     1      18.455   5.111  32.331  1.00  0.00     0.226 C 
HETATM    4  H10 UNK     1      17.082   3.681  32.942  1.00  0.00     0.169 HD
ENDROOT
BRANCH   2   5
HETATM    5  C8  UNK     1      18.297   2.754  31.570  1.00  0.00     0.037 A 
HETATM    6  C10 UNK     1      18.908   1.667  32.185  1.00  0.00     0.067 A 
HETATM    7  C13 UNK     1      19.317   0.583  31.404  1.00  0.00     0.092 A 
HETATM    8  C12 UNK     1      19.136   0.552  30.021  1.00  0.00     0.004 A 
HETATM    9  O3  UNK     1      19.929  -0.489  32.084  1.00  0.00    -0.275 OA
HETATM   10  C14 UNK     1      18.519   1.658  29.420  1.00  0.00     0.017 A 
HETATM   11  C15 UNK     1      19.597  -0.629  29.278  1.00  0.00    -0.043 A 
HETATM   12  C11 UNK     1      18.103   2.750  30.189  1.00  0.00     0.030 A 
HETATM   13  C16 UNK     1      20.176  -1.634  29.951  1.00  0.00     0.090 A 
HETATM   14  C17 UNK     1      19.417  -0.695  27.790  1.00  0.00     0.049 C 
HETATM   15  C18 UNK     1      20.374  -1.615  31.409  1.00  0.00     0.288 A 
HETATM   16  O4  UNK     1      20.908  -2.553  31.991  1.00  0.00    -0.260 OA
ENDBRANCH   2   5
BRANCH   3  17
HETATM   17  C1  UNK     1      17.737   6.025  33.275  1.00  0.00     0.081 C 
HETATM   18  C2  UNK     1      16.364   6.396  32.706  1.00  0.00     0.034 C 
HETATM   19  C4  UNK     1      15.662   7.427  33.585  1.00  0.00     0.126 C 
HETATM   20  N1  UNK     1      16.523   8.595  33.805  1.00  0.00    -0.352 N 
HETATM   21  C5  UNK     1      17.836   8.290  34.377  1.00  0.00     0.126 C 
HETATM   22  C7  UNK     1      16.168   9.919  33.548  1.00  0.00     0.215 C 
HETATM   23  C3  UNK     1      18.584   7.278  33.514  1.00  0.00     0.034 C 
HETATM   24  O2  UNK     1      16.911  10.885  33.742  1.00  0.00    -0.274 OA
HETATM   25  C9  UNK     1      14.784  10.153  32.998  1.00  0.00     0.117 C 
ENDBRANCH   3  17
TORSDOF 2
ENDMDL
MODEL 5
REMARK VINA RESULT:      -9.0      3.378      9.748
REMARK  2 active torsions:
REMARK  status: ('A' for Active; 'I' for Inactive)
REMARK       I    between atoms: C7_13  and  N1_5 
REMARK       I    between atoms: C6_12  and  N2_6 
REMARK    1  A    between atoms: C8_14  and  N2_6 
REMARK    2  A    between atoms: C1_7  and  C6_12 
ROOT
HETATM    1  O1  UNK     1      21.188  -2.144  35.532  1.00  0.00    -0.273 OA
HETATM    2  N2  UNK     1      18.869  -2.077  35.112  1.00  0.00    -0.327 N 
HETATM    3  C6  UNK     1      20.056  -2.611  35.599  1.00  0.00     0.226 C 
HETATM    4  H10 UNK     1      18.011  -2.606  35.251  1.00  0.00     0.169 HD
ENDROOT
BRANCH   2   5
HETATM    5  C8  UNK     1      18.732  -0.866  34.430  1.00  0.00     0.037 A 
HETATM    6  C10 UNK     1      18.863  -0.826  33.046  1.00  0.00     0.067 A 
HETATM    7  C13 UNK     1      18.721   0.396  32.384  1.00  0.00     0.092 A 
HETATM    8  C12 UNK     1      18.452   1.584  33.063  1.00  0.00     0.004 A 
HETATM    9  O3  UNK     1      18.863   0.373  30.982  1.00  0.00    -0.275 OA
HETATM   10  C14 UNK     1      18.325   1.522  34.458  1.00  0.00     0.017 A 
HETATM   11  C15 UNK     1      18.318   2.823  32.286  1.00  0.00    -0.043 A 
HETATM   12  C11 UNK     1      18.463   0.306  35.135  1.00  0.00     0.030 A 
HETATM   13  C16 UNK     1      18.459   2.772  30.954  1.00  0.00     0.090 A 
HETATM   14  C17 UNK     1      18.029   4.119  32.986  1.00  0.00     0.049 C 
HETATM   15  C18 UNK     1      18.742   1.526  30.223  1.00  0.00     0.288 A 
HETATM   16  O4  UNK     1      18.864   1.518  29.003  1.00  0.00    -0.260 OA
ENDBRANCH   2   5
BRANCH   3  17
HETATM   17  C1  UNK     1      19.812  -3.925  36.274  1.00  0.00     0.081 C 
HETATM   18  C2  UNK     1      20.736  -4.071  37.487  1.00  0.00     0.034 C 
HETATM   19  C4  UNK     1      20.601  -5.454  38.119  1.00  0.00     0.126 C 
HETATM   20  N1  UNK     1      20.805  -6.507  37.117  1.00  0.00    -0.352 N 
HETATM   21  C5  UNK     1      19.922  -6.423  35.952  1.00  0.00     0.126 C 
HETATM   22  C7  UNK     1      21.722  -7.553  37.221  1.00  0.00     0.215 C 
HETATM   23  C3  UNK     1      20.043  -5.061  35.274  1.00  0.00     0.034 C 
HETATM   24  O2  UNK     1      21.874  -8.426  36.363  1.00  0.00    -0.274 OA
HETATM   25  C9  UNK     1      22.565  -7.592  38.470  1.00  0.00     0.117 C 
ENDBRANCH   3  17
TORSDOF 2
ENDMDL
MODEL 6
REMARK VINA RESULT:      -8.9      2.180      9.275
REMARK  2 active torsions:
REMARK  status: ('A' for Active; 'I' for Inactive)
REMARK       I    between atoms: C7_13  and  N1_5 
REMARK       I    between atoms: C6_12  and  N2_6 
REMARK    1  A    between atoms: C8_14  and  N2_6 
REMARK    2  A    between atoms: C1_7  and  C6_12 
ROOT
HETATM    1  O1  UNK     1      18.161  -5.556  36.504  1.00  0.00    -0.273 OA
HETATM    2  N2  UNK     1      19.815  -4.100  37.344  1.00  0.00    -0.327 N 
HETATM    3  C6  UNK     1      19.225  -5.328  37.070  1.00  0.00     0.226 C 
HETATM    4  H10 UNK     1      20.708  -4.093  37.833  1.00  0.00     0.169 HD
ENDROOT
BRANCH   2   5
HETATM    5  C8  UNK     1      19.292  -2.847  37.018  1.00  0.00     0.037 A 
HETATM    6  C10 UNK     1      19.424  -2.350  35.726  1.00  0.00     0.067 A 
HETATM    7  C13 UNK     1      18.893  -1.095  35.421  1.00  0.00     0.092 A 
HETATM    8  C12 UNK     1      18.233  -0.315  36.371  1.00  0.00     0.004 A 
HETATM    9  O3  UNK     1      19.057  -0.646  34.096  1.00  0.00    -0.275 OA
HETATM   10  C14 UNK     1      18.111  -0.834  37.667  1.00  0.00     0.017 A 
HETATM   11  C15 UNK     1      17.705   0.993  35.962  1.00  0.00    -0.043 A 
HETATM   12  C11 UNK     1      18.637  -2.090  37.988  1.00  0.00     0.030 A 
HETATM   13  C16 UNK     1      17.875   1.395  34.695  1.00  0.00     0.090 A 
HETATM   14  C17 UNK     1      16.988   1.857  36.960  1.00  0.00     0.049 C 
HETATM   15  C18 UNK     1      18.571   0.584  33.682  1.00  0.00     0.288 A 
HETATM   16  O4  UNK     1      18.708   0.984  32.531  1.00  0.00    -0.260 OA
ENDBRANCH   2   5
BRANCH   3  17
HETATM   17  C1  UNK     1      20.078  -6.452  37.570  1.00  0.00     0.081 C 
HETATM   18  C2  UNK     1      20.880  -7.057  36.413  1.00  0.00     0.034 C 
HETATM   19  C4  UNK     1      21.661  -8.288  36.868  1.00  0.00     0.126 C 
HETATM   20  N1  UNK     1      20.771  -9.259  37.514  1.00  0.00    -0.352 N 
HETATM   21  C5  UNK     1      20.005  -8.732  38.645  1.00  0.00     0.126 C 
HETATM   22  C7  UNK     1      20.645 -10.601  37.155  1.00  0.00     0.215 C 
HETATM   23  C3  UNK     1      19.190  -7.511  38.228  1.00  0.00     0.034 C 
HETATM   24  O2  UNK     1      19.888 -11.398  37.715  1.00  0.00    -0.274 OA
HETATM   25  C9  UNK     1      21.497 -11.077  36.007  1.00  0.00     0.117 C 
ENDBRANCH   3  17
TORSDOF 2
ENDMDL
MODEL 7
REMARK VINA RESULT:      -8.9      8.007     11.043
REMARK  2 active torsions:
REMARK  status: ('A' for Active; 'I' for Inactive)
REMARK       I    between atoms: C7_13  and  N1_5 
REMARK       I    between atoms: C6_12  and  N2_6 
REMARK    1  A    between atoms: C8_14  and  N2_6 
REMARK    2  A    between atoms: C1_7  and  C6_12 
ROOT
HETATM    1  O1  UNK     1      19.929   5.890  32.766  1.00  0.00    -0.273 OA
HETATM    2  N2  UNK     1      17.967   4.947  31.859  1.00  0.00    -0.327 N 
HETATM    3  C6  UNK     1      18.788   5.968  32.322  1.00  0.00     0.226 C 
HETATM    4  H10 UNK     1      17.037   5.190  31.527  1.00  0.00     0.169 HD
ENDROOT
BRANCH   2   5
HETATM    5  C8  UNK     1      18.293   3.590  31.810  1.00  0.00     0.037 A 
HETATM    6  C10 UNK     1      18.767   3.028  30.630  1.00  0.00     0.067 A 
HETATM    7  C13 UNK     1      19.087   1.668  30.604  1.00  0.00     0.092 A 
HETATM    8  C12 UNK     1      18.948   0.848  31.723  1.00  0.00     0.004 A 
HETATM    9  O3  UNK     1      19.563   1.157  29.380  1.00  0.00    -0.275 OA
HETATM   10  C14 UNK     1      18.469   1.434  32.903  1.00  0.00     0.017 A 
HETATM   11  C15 UNK     1      19.310  -0.570  31.605  1.00  0.00    -0.043 A 
HETATM   12  C11 UNK     1      18.144   2.794  32.945  1.00  0.00     0.030 A 
HETATM   13  C16 UNK     1      19.760  -1.030  30.429  1.00  0.00     0.090 A 
HETATM   14  C17 UNK     1      19.173  -1.479  32.792  1.00  0.00     0.049 C 
HETATM   15  C18 UNK     1      19.911  -0.178  29.239  1.00  0.00     0.288 A 
HETATM   16  O4  UNK     1      20.326  -0.633  28.179  1.00  0.00    -0.260 OA
ENDBRANCH   2   5
BRANCH   3  17
HETATM   17  C1  UNK     1      18.098   7.293  32.221  1.00  0.00     0.081 C 
HETATM   18  C2  UNK     1      18.212   8.047  33.549  1.00  0.00     0.034 C 
HETATM   19  C4  UNK     1      17.409   9.345  33.518  1.00  0.00     0.126 C 
HETATM   20  N1  UNK     1      16.018   9.086  33.127  1.00  0.00    -0.352 N 
HETATM   21  C5  UNK     1      15.860   8.392  31.847  1.00  0.00     0.126 C 
HETATM   22  C7  UNK     1      14.891   9.476  33.850  1.00  0.00     0.215 C 
HETATM   23  C3  UNK     1      16.630   7.075  31.843  1.00  0.00     0.034 C 
HETATM   24  O2  UNK     1      13.731   9.246  33.499  1.00  0.00    -0.274 OA
HETATM   25  C9  UNK     1      15.137  10.222  35.136  1.00  0.00     0.117 C 
ENDBRANCH   3  17
TORSDOF 2
ENDMDL
MODEL 8
REMARK VINA RESULT:      -8.8      9.185     14.431
REMARK  2 active torsions:
REMARK  status: ('A' for Active; 'I' for Inactive)
REMARK       I    between atoms: C7_13  and  N1_5 
REMARK       I    between atoms: C6_12  and  N2_6 
REMARK    1  A    between atoms: C8_14  and  N2_6 
REMARK    2  A    between atoms: C1_7  and  C6_12 
ROOT
HETATM    1  O1  UNK     1      19.029   4.862  29.754  1.00  0.00    -0.273 OA
HETATM    2  N2  UNK     1      18.228   4.582  31.954  1.00  0.00    -0.327 N 
HETATM    3  C6  UNK     1      18.549   4.189  30.661  1.00  0.00     0.226 C 
HETATM    4  H10 UNK     1      17.828   3.889  32.583  1.00  0.00     0.169 HD
ENDROOT
BRANCH   2   5
HETATM    5  C8  UNK     1      18.395   5.861  32.489  1.00  0.00     0.037 A 
HETATM    6  C10 UNK     1      17.305   6.718  32.602  1.00  0.00     0.067 A 
HETATM    7  C13 UNK     1      17.494   7.992  33.140  1.00  0.00     0.092 A 
HETATM    8  C12 UNK     1      18.742   8.442  33.572  1.00  0.00     0.004 A 
HETATM    9  O3  UNK     1      16.353   8.815  33.230  1.00  0.00    -0.275 OA
HETATM   10  C14 UNK     1      19.827   7.563  33.449  1.00  0.00     0.017 A 
HETATM   11  C15 UNK     1      18.848   9.798  34.126  1.00  0.00    -0.043 A 
HETATM   12  C11 UNK     1      19.654   6.283  32.912  1.00  0.00     0.030 A 
HETATM   13  C16 UNK     1      17.747  10.558  34.198  1.00  0.00     0.090 A 
HETATM   14  C17 UNK     1      20.177  10.311  34.600  1.00  0.00     0.049 C 
HETATM   15  C18 UNK     1      16.423  10.098  33.747  1.00  0.00     0.288 A 
HETATM   16  O4  UNK     1      15.437  10.822  33.829  1.00  0.00    -0.260 OA
ENDBRANCH   2   5
BRANCH   3  17
HETATM   17  C1  UNK     1      18.231   2.741  30.449  1.00  0.00     0.081 C 
HETATM   18  C2  UNK     1      19.251   1.866  31.184  1.00  0.00     0.034 C 
HETATM   19  C4  UNK     1      19.029   0.387  30.881  1.00  0.00     0.126 C 
HETATM   20  N1  UNK     1      19.012   0.149  29.433  1.00  0.00    -0.352 N 
HETATM   21  C5  UNK     1      18.030   0.944  28.693  1.00  0.00     0.126 C 
HETATM   22  C7  UNK     1      19.812  -0.772  28.757  1.00  0.00     0.215 C 
HETATM   23  C3  UNK     1      18.231   2.435  28.949  1.00  0.00     0.034 C 
HETATM   24  O2  UNK     1      19.779  -0.953  27.537  1.00  0.00    -0.274 OA
HETATM   25  C9  UNK     1      20.769  -1.580  29.596  1.00  0.00     0.117 C 
ENDBRANCH   3  17
TORSDOF 2
ENDMDL
MODEL 9
REMARK VINA RESULT:      -8.8      3.557      9.019
REMARK  2 active torsions:
REMARK  status: ('A' for Active; 'I' for Inactive)
REMARK       I    between atoms: C7_13  and  N1_5 
REMARK       I    between atoms: C6_12  and  N2_6 
REMARK    1  A    between atoms: C8_14  and  N2_6 
REMARK    2  A    between atoms: C1_7  and  C6_12 
ROOT
HETATM    1  O1  UNK     1      21.388  -2.186  36.234  1.00  0.00    -0.273 OA
HETATM    2  N2  UNK     1      19.765  -3.198  34.855  1.00  0.00    -0.327 N 
HETATM    3  C6  UNK     1      20.530  -3.031  36.002  1.00  0.00     0.226 C 
HETATM    4  H10 UNK     1      19.096  -3.964  34.829  1.00  0.00     0.169 HD
ENDROOT
BRANCH   2   5
HETATM    5  C8  UNK     1      19.828  -2.409  33.704  1.00  0.00     0.037 A 
HETATM    6  C10 UNK     1      19.104  -1.224  33.630  1.00  0.00     0.067 A 
HETATM    7  C13 UNK     1      19.182  -0.450  32.470  1.00  0.00     0.092 A 
HETATM    8  C12 UNK     1      19.963  -0.823  31.376  1.00  0.00     0.004 A 
HETATM    9  O3  UNK     1      18.427   0.740  32.455  1.00  0.00    -0.275 OA
HETATM   10  C14 UNK     1      20.685  -2.021  31.471  1.00  0.00     0.017 A 
HETATM   11  C15 UNK     1      19.986   0.052  30.197  1.00  0.00    -0.043 A 
HETATM   12  C11 UNK     1      20.617  -2.807  32.626  1.00  0.00     0.030 A 
HETATM   13  C16 UNK     1      19.258   1.178  30.210  1.00  0.00     0.090 A 
HETATM   14  C17 UNK     1      20.817  -0.320  29.004  1.00  0.00     0.049 C 
HETATM   15  C18 UNK     1      18.429   1.585  31.356  1.00  0.00     0.288 A 
HETATM   16  O4  UNK     1      17.776   2.622  31.332  1.00  0.00    -0.260 OA
ENDBRANCH   2   5
BRANCH   3  17
HETATM   17  C1  UNK     1      20.185  -4.067  37.028  1.00  0.00     0.081 C 
HETATM   18  C2  UNK     1      21.462  -4.730  37.554  1.00  0.00     0.034 C 
HETATM   19  C4  UNK     1      21.135  -5.879  38.505  1.00  0.00     0.126 C 
HETATM   20  N1  UNK     1      20.216  -6.833  37.872  1.00  0.00    -0.352 N 
HETATM   21  C5  UNK     1      18.968  -6.247  37.380  1.00  0.00     0.126 C 
HETATM   22  C7  UNK     1      20.436  -8.205  37.752  1.00  0.00     0.215 C 
HETATM   23  C3  UNK     1      19.249  -5.107  36.405  1.00  0.00     0.034 C 
HETATM   24  O2  UNK     1      19.646  -8.986  37.215  1.00  0.00    -0.274 OA
HETATM   25  C9  UNK     1      21.726  -8.736  38.320  1.00  0.00     0.117 C 
ENDBRANCH   3  17
TORSDOF 2
ENDMDL
MODEL 10
REMARK VINA RESULT:      -8.7      2.144      2.701
REMARK  2 active torsions:
REMARK  status: ('A' for Active; 'I' for Inactive)
REMARK       I    between atoms: C7_13  and  N1_5 
REMARK       I    between atoms: C6_12  and  N2_6 
REMARK    1  A    between atoms: C8_14  and  N2_6 
REMARK    2  A    between atoms: C1_7  and  C6_12 
ROOT
HETATM    1  O1  UNK     1      21.313  -3.063  36.415  1.00  0.00    -0.273 OA
HETATM    2  N2  UNK     1      19.104  -3.757  36.864  1.00  0.00    -0.327 N 
HETATM    3  C6  UNK     1      20.110  -2.856  36.538  1.00  0.00     0.226 C 
HETATM    4  H10 UNK     1      18.149  -3.410  36.930  1.00  0.00     0.169 HD
ENDROOT
BRANCH   2   5
HETATM    5  C8  UNK     1      19.274  -5.118  37.123  1.00  0.00     0.037 A 
HETATM    6  C10 UNK     1      20.202  -5.538  38.070  1.00  0.00     0.067 A 
HETATM    7  C13 UNK     1      20.355  -6.904  38.315  1.00  0.00     0.092 A 
HETATM    8  C12 UNK     1      19.608  -7.871  37.640  1.00  0.00     0.004 A 
HETATM    9  O3  UNK     1      21.309  -7.268  39.285  1.00  0.00    -0.275 OA
HETATM   10  C14 UNK     1      18.678  -7.426  36.689  1.00  0.00     0.017 A 
HETATM   11  C15 UNK     1      19.834  -9.286  37.961  1.00  0.00    -0.043 A 
HETATM   12  C11 UNK     1      18.513  -6.061  36.433  1.00  0.00     0.030 A 
HETATM   13  C16 UNK     1      20.749  -9.602  38.888  1.00  0.00     0.090 A 
HETATM   14  C17 UNK     1      19.047 -10.350  37.253  1.00  0.00     0.049 C 
HETATM   15  C18 UNK     1      21.545  -8.595  39.608  1.00  0.00     0.288 A 
HETATM   16  O4  UNK     1      22.373  -8.923  40.451  1.00  0.00    -0.260 OA
ENDBRANCH   2   5
BRANCH   3  17
HETATM   17  C1  UNK     1      19.549  -1.483  36.330  1.00  0.00     0.081 C 
HETATM   18  C2  UNK     1      18.469  -1.193  37.377  1.00  0.00     0.034 C 
HETATM   19  C4  UNK     1      17.789   0.148  37.111  1.00  0.00     0.126 C 
HETATM   20  N1  UNK     1      17.280   0.210  35.736  1.00  0.00    -0.352 N 
HETATM   21  C5  UNK     1      18.286  -0.032  34.699  1.00  0.00     0.126 C 
HETATM   22  C7  UNK     1      15.967   0.508  35.373  1.00  0.00     0.215 C 
HETATM   23  C3  UNK     1      18.976  -1.377  34.914  1.00  0.00     0.034 C 
HETATM   24  O2  UNK     1      15.565   0.554  34.208  1.00  0.00    -0.274 OA
HETATM   25  C9  UNK     1      15.002   0.785  36.497  1.00  0.00     0.117 C 
ENDBRANCH   3  17
TORSDOF 2
ENDMDL
