MODEL 1
REMARK VINA RESULT:      -9.4      0.000      0.000
REMARK  2 active torsions:
REMARK  status: ('A' for Active; 'I' for Inactive)
REMARK    1  A    between atoms: C5_10  and  N1_5 
REMARK       I    between atoms: C6_11  and  N1_5 
REMARK    2  A    between atoms: C2_7  and  C6_11 
ROOT
HETATM    1  O2  UNK     1      21.279  -4.428  37.189  1.00  0.00    -0.267 OA
HETATM    2  N1  UNK     1      19.161  -5.253  36.555  1.00  0.00    -0.322 N 
HETATM    3  C6  UNK     1      20.142  -4.289  36.741  1.00  0.00     0.262 C 
HETATM    4  H2  UNK     1      18.269  -4.980  36.149  1.00  0.00     0.169 HD
ENDROOT
BRANCH   3   5
HETATM    5  C2  UNK     1      19.686  -2.957  36.325  1.00  0.00     0.108 A 
HETATM    6  C4  UNK     1      18.969  -2.272  37.223  1.00  0.00     0.037 A 
HETATM    7  C1  UNK     1      18.470  -0.942  36.903  1.00  0.00    -0.001 A 
HETATM    8  C3  UNK     1      18.753  -0.401  35.653  1.00  0.00     0.089 A 
HETATM    9  C8  UNK     1      17.719  -0.191  37.808  1.00  0.00     0.014 A 
HETATM   10  C12 UNK     1      18.305   0.866  35.284  1.00  0.00     0.038 A 
HETATM   11  O1  UNK     1      19.509  -1.128  34.712  1.00  0.00    -0.274 OA
HETATM   12  C16 UNK     1      17.556   1.608  36.193  1.00  0.00     0.003 A 
HETATM   13  C15 UNK     1      17.262   1.082  37.453  1.00  0.00     0.001 A 
HETATM   14  C9  UNK     1      19.999  -2.401  34.989  1.00  0.00     0.304 A 
HETATM   15  O3  UNK     1      20.655  -3.027  34.164  1.00  0.00    -0.259 OA
ENDBRANCH   3   5
BRANCH   2  16
HETATM   16  C5  UNK     1      19.277  -6.614  36.849  1.00  0.00     0.052 A 
HETATM   17  C10 UNK     1      19.776  -7.525  35.917  1.00  0.00     0.038 A 
HETATM   18 Br1  UNK     1      20.332  -6.978  34.186  1.00  0.00    -0.049 Br
HETATM   19  C13 UNK     1      19.878  -8.876  36.247  1.00  0.00     0.028 A 
HETATM   20  C7  UNK     1      19.481  -9.318  37.509  1.00  0.00    -0.061 A 
HETATM   21  C14 UNK     1      18.982  -8.408  38.441  1.00  0.00     0.009 A 
HETATM   22  C17 UNK     1      19.592 -10.762  37.863  1.00  0.00     0.048 C 
HETATM   23  C11 UNK     1      18.880  -7.056  38.111  1.00  0.00     0.031 A 
ENDBRANCH   2  16
TORSDOF 2
ENDMDL
MODEL 2
REMARK VINA RESULT:      -9.2      7.888     11.746
REMARK  2 active torsions:
REMARK  status: ('A' for Active; 'I' for Inactive)
REMARK    1  A    between atoms: C5_10  and  N1_5 
REMARK       I    between atoms: C6_11  and  N1_5 
REMARK    2  A    between atoms: C2_7  and  C6_11 
ROOT
HETATM    1  O2  UNK     1      17.636   3.149  33.009  1.00  0.00    -0.267 OA
HETATM    2  N1  UNK     1      18.518   4.712  31.476  1.00  0.00    -0.322 N 
HETATM    3  C6  UNK     1      18.209   3.449  31.962  1.00  0.00     0.262 C 
HETATM    4  H2  UNK     1      18.980   4.796  30.574  1.00  0.00     0.169 HD
ENDROOT
BRANCH   3   5
HETATM    5  C2  UNK     1      18.657   2.388  31.053  1.00  0.00     0.108 A 
HETATM    6  C4  UNK     1      19.090   1.260  31.629  1.00  0.00     0.037 A 
HETATM    7  C1  UNK     1      19.556   0.151  30.809  1.00  0.00    -0.001 A 
HETATM    8  C3  UNK     1      19.542   0.285  29.425  1.00  0.00     0.089 A 
HETATM    9  C8  UNK     1      20.016  -1.044  31.367  1.00  0.00     0.014 A 
HETATM   10  C12 UNK     1      19.976  -0.739  28.585  1.00  0.00     0.038 A 
HETATM   11  O1  UNK     1      19.085   1.475  28.825  1.00  0.00    -0.274 OA
HETATM   12  C16 UNK     1      20.433  -1.928  29.149  1.00  0.00     0.003 A 
HETATM   13  C15 UNK     1      20.454  -2.081  30.537  1.00  0.00     0.001 A 
HETATM   14  C9  UNK     1      18.634   2.552  29.582  1.00  0.00     0.304 A 
HETATM   15  O3  UNK     1      18.239   3.585  29.051  1.00  0.00    -0.259 OA
ENDBRANCH   3   5
BRANCH   2  16
HETATM   16  C5  UNK     1      18.229   5.929  32.099  1.00  0.00     0.052 A 
HETATM   17  C10 UNK     1      19.231   6.719  32.662  1.00  0.00     0.038 A 
HETATM   18 Br1  UNK     1      21.056   6.199  32.619  1.00  0.00    -0.049 Br
HETATM   19  C13 UNK     1      18.904   7.929  33.276  1.00  0.00     0.028 A 
HETATM   20  C7  UNK     1      17.574   8.347  33.328  1.00  0.00    -0.061 A 
HETATM   21  C14 UNK     1      16.571   7.556  32.765  1.00  0.00     0.009 A 
HETATM   22  C17 UNK     1      17.223   9.640  33.982  1.00  0.00     0.048 C 
HETATM   23  C11 UNK     1      16.899   6.347  32.151  1.00  0.00     0.031 A 
ENDBRANCH   2  16
TORSDOF 2
ENDMDL
MODEL 3
REMARK VINA RESULT:      -9.1     19.407     21.672
REMARK  2 active torsions:
REMARK  status: ('A' for Active; 'I' for Inactive)
REMARK    1  A    between atoms: C5_10  and  N1_5 
REMARK       I    between atoms: C6_11  and  N1_5 
REMARK    2  A    between atoms: C2_7  and  C6_11 
ROOT
HETATM    1  O2  UNK     1      17.127  -1.713  17.087  1.00  0.00    -0.267 OA
HETATM    2  N1  UNK     1      19.244  -0.680  16.944  1.00  0.00    -0.322 N 
HETATM    3  C6  UNK     1      18.205  -1.505  16.534  1.00  0.00     0.262 C 
HETATM    4  H2  UNK     1      20.071  -0.596  16.359  1.00  0.00     0.169 HD
ENDROOT
BRANCH   3   5
HETATM    5  C2  UNK     1      18.511  -2.180  15.267  1.00  0.00     0.108 A 
HETATM    6  C4  UNK     1      18.210  -3.482  15.204  1.00  0.00     0.037 A 
HETATM    7  C1  UNK     1      18.478  -4.239  13.990  1.00  0.00    -0.001 A 
HETATM    8  C3  UNK     1      19.049  -3.586  12.902  1.00  0.00     0.089 A 
HETATM    9  C8  UNK     1      18.180  -5.599  13.880  1.00  0.00     0.014 A 
HETATM   10  C12 UNK     1      19.331  -4.253  11.712  1.00  0.00     0.038 A 
HETATM   11  O1  UNK     1      19.363  -2.215  12.975  1.00  0.00    -0.274 OA
HETATM   12  C16 UNK     1      19.031  -5.609  11.611  1.00  0.00     0.003 A 
HETATM   13  C15 UNK     1      18.457  -6.282  12.692  1.00  0.00     0.001 A 
HETATM   14  C9  UNK     1      19.119  -1.465  14.122  1.00  0.00     0.304 A 
HETATM   15  O3  UNK     1      19.398  -0.272  14.177  1.00  0.00    -0.259 OA
ENDBRANCH   3   5
BRANCH   2  16
HETATM   16  C5  UNK     1      19.267   0.101  18.103  1.00  0.00     0.052 A 
HETATM   17  C10 UNK     1      19.300   1.495  18.046  1.00  0.00     0.038 A 
HETATM   18 Br1  UNK     1      19.316   2.427  16.393  1.00  0.00    -0.049 Br
HETATM   19  C13 UNK     1      19.322   2.241  19.225  1.00  0.00     0.028 A 
HETATM   20  C7  UNK     1      19.310   1.593  20.460  1.00  0.00    -0.061 A 
HETATM   21  C14 UNK     1      19.277   0.200  20.517  1.00  0.00     0.009 A 
HETATM   22  C17 UNK     1      19.331   2.390  21.721  1.00  0.00     0.048 C 
HETATM   23  C11 UNK     1      19.255  -0.547  19.339  1.00  0.00     0.031 A 
ENDBRANCH   2  16
TORSDOF 2
ENDMDL
MODEL 4
REMARK VINA RESULT:      -9.0      1.728      7.466
REMARK  2 active torsions:
REMARK  status: ('A' for Active; 'I' for Inactive)
REMARK    1  A    between atoms: C5_10  and  N1_5 
REMARK       I    between atoms: C6_11  and  N1_5 
REMARK    2  A    between atoms: C2_7  and  C6_11 
ROOT
HETATM    1  O2  UNK     1      21.264  -3.853  37.279  1.00  0.00    -0.267 OA
HETATM    2  N1  UNK     1      19.001  -3.771  36.615  1.00  0.00    -0.322 N 
HETATM    3  C6  UNK     1      20.201  -4.380  36.955  1.00  0.00     0.262 C 
HETATM    4  H2  UNK     1      18.197  -4.352  36.390  1.00  0.00     0.169 HD
ENDROOT
BRANCH   3   5
HETATM    5  C2  UNK     1      20.108  -5.844  36.895  1.00  0.00     0.108 A 
HETATM    6  C4  UNK     1      19.976  -6.476  38.067  1.00  0.00     0.037 A 
HETATM    7  C1  UNK     1      19.877  -7.927  38.110  1.00  0.00    -0.001 A 
HETATM    8  C3  UNK     1      19.921  -8.641  36.916  1.00  0.00     0.089 A 
HETATM    9  C8  UNK     1      19.737  -8.628  39.310  1.00  0.00     0.014 A 
HETATM   10  C12 UNK     1      19.831 -10.031  36.889  1.00  0.00     0.038 A 
HETATM   11  O1  UNK     1      20.059  -7.969  35.686  1.00  0.00    -0.274 OA
HETATM   12  C16 UNK     1      19.693 -10.722  38.090  1.00  0.00     0.003 A 
HETATM   13  C15 UNK     1      19.646 -10.023  39.299  1.00  0.00     0.001 A 
HETATM   14  C9  UNK     1      20.157  -6.583  35.613  1.00  0.00     0.304 A 
HETATM   15  O3  UNK     1      20.279  -6.007  34.537  1.00  0.00    -0.259 OA
ENDBRANCH   3   5
BRANCH   2  16
HETATM   16  C5  UNK     1      18.758  -2.395  36.575  1.00  0.00     0.052 A 
HETATM   17  C10 UNK     1      19.193  -1.606  35.510  1.00  0.00     0.038 A 
HETATM   18 Br1  UNK     1      20.143  -2.345  34.042  1.00  0.00    -0.049 Br
HETATM   19  C13 UNK     1      18.931  -0.236  35.505  1.00  0.00     0.028 A 
HETATM   20  C7  UNK     1      18.234   0.345  36.564  1.00  0.00    -0.061 A 
HETATM   21  C14 UNK     1      17.799  -0.444  37.629  1.00  0.00     0.009 A 
HETATM   22  C17 UNK     1      17.952   1.809  36.558  1.00  0.00     0.048 C 
HETATM   23  C11 UNK     1      18.061  -1.814  37.635  1.00  0.00     0.031 A 
ENDBRANCH   2  16
TORSDOF 2
ENDMDL
MODEL 5
REMARK VINA RESULT:      -8.9      7.335     11.756
REMARK  2 active torsions:
REMARK  status: ('A' for Active; 'I' for Inactive)
REMARK    1  A    between atoms: C5_10  and  N1_5 
REMARK       I    between atoms: C6_11  and  N1_5 
REMARK    2  A    between atoms: C2_7  and  C6_11 
ROOT
HETATM    1  O2  UNK     1      18.302   4.648  30.292  1.00  0.00    -0.267 OA
HETATM    2  N1  UNK     1      18.119   4.656  32.645  1.00  0.00    -0.322 N 
HETATM    3  C6  UNK     1      18.338   4.100  31.392  1.00  0.00     0.262 C 
HETATM    4  H2  UNK     1      18.209   4.069  33.471  1.00  0.00     0.169 HD
ENDROOT
BRANCH   3   5
HETATM    5  C2  UNK     1      18.649   2.668  31.477  1.00  0.00     0.108 A 
HETATM    6  C4  UNK     1      19.208   2.119  30.392  1.00  0.00     0.037 A 
HETATM    7  C1  UNK     1      19.551   0.705  30.380  1.00  0.00    -0.001 A 
HETATM    8  C3  UNK     1      19.289  -0.061  31.511  1.00  0.00     0.089 A 
HETATM    9  C8  UNK     1      20.137   0.091  29.271  1.00  0.00     0.014 A 
HETATM   10  C12 UNK     1      19.592  -1.420  31.563  1.00  0.00     0.038 A 
HETATM   11  O1  UNK     1      18.700   0.522  32.650  1.00  0.00    -0.274 OA
HETATM   12  C16 UNK     1      20.176  -2.025  30.452  1.00  0.00     0.003 A 
HETATM   13  C15 UNK     1      20.447  -1.272  29.308  1.00  0.00     0.001 A 
HETATM   14  C9  UNK     1      18.360   1.872  32.692  1.00  0.00     0.304 A 
HETATM   15  O3  UNK     1      17.846   2.370  33.687  1.00  0.00    -0.259 OA
ENDBRANCH   3   5
BRANCH   2  16
HETATM   16  C5  UNK     1      17.804   5.992  32.910  1.00  0.00     0.052 A 
HETATM   17  C10 UNK     1      18.796   6.953  33.104  1.00  0.00     0.038 A 
HETATM   18 Br1  UNK     1      20.641   6.515  33.023  1.00  0.00    -0.049 Br
HETATM   19  C13 UNK     1      18.443   8.277  33.366  1.00  0.00     0.028 A 
HETATM   20  C7  UNK     1      17.098   8.640  33.432  1.00  0.00    -0.061 A 
HETATM   21  C14 UNK     1      16.105   7.679  33.237  1.00  0.00     0.009 A 
HETATM   22  C17 UNK     1      16.719  10.056  33.709  1.00  0.00     0.048 C 
HETATM   23  C11 UNK     1      16.458   6.355  32.976  1.00  0.00     0.031 A 
ENDBRANCH   2  16
TORSDOF 2
ENDMDL
MODEL 6
REMARK VINA RESULT:      -8.6     19.610     21.846
REMARK  2 active torsions:
REMARK  status: ('A' for Active; 'I' for Inactive)
REMARK    1  A    between atoms: C5_10  and  N1_5 
REMARK       I    between atoms: C6_11  and  N1_5 
REMARK    2  A    between atoms: C2_7  and  C6_11 
ROOT
HETATM    1  O2  UNK     1      17.081  -1.802  17.003  1.00  0.00    -0.267 OA
HETATM    2  N1  UNK     1      19.204  -0.780  16.864  1.00  0.00    -0.322 N 
HETATM    3  C6  UNK     1      18.165  -1.606  16.456  1.00  0.00     0.262 C 
HETATM    4  H2  UNK     1      20.037  -0.708  16.285  1.00  0.00     0.169 HD
ENDROOT
BRANCH   3   5
HETATM    5  C2  UNK     1      18.479  -2.299  15.202  1.00  0.00     0.108 A 
HETATM    6  C4  UNK     1      19.201  -1.611  14.311  1.00  0.00     0.037 A 
HETATM    7  C1  UNK     1      19.562  -2.213  13.035  1.00  0.00    -0.001 A 
HETATM    8  C3  UNK     1      19.143  -3.512  12.763  1.00  0.00     0.089 A 
HETATM    9  C8  UNK     1      20.315  -1.532  12.077  1.00  0.00     0.014 A 
HETATM   10  C12 UNK     1      19.454  -4.145  11.561  1.00  0.00     0.038 A 
HETATM   11  O1  UNK     1      18.383  -4.232  13.706  1.00  0.00    -0.274 OA
HETATM   12  C16 UNK     1      20.206  -3.459  10.611  1.00  0.00     0.003 A 
HETATM   13  C15 UNK     1      20.635  -2.155  10.867  1.00  0.00     0.001 A 
HETATM   14  C9  UNK     1      18.023  -3.682  14.933  1.00  0.00     0.304 A 
HETATM   15  O3  UNK     1      17.359  -4.316  15.746  1.00  0.00    -0.259 OA
ENDBRANCH   3   5
BRANCH   2  16
HETATM   16  C5  UNK     1      19.221   0.016  18.013  1.00  0.00     0.052 A 
HETATM   17  C10 UNK     1      19.269   1.408  17.938  1.00  0.00     0.038 A 
HETATM   18 Br1  UNK     1      19.314   2.318  16.273  1.00  0.00    -0.049 Br
HETATM   19  C13 UNK     1      19.284   2.170  19.107  1.00  0.00     0.028 A 
HETATM   20  C7  UNK     1      19.251   1.539  20.351  1.00  0.00    -0.061 A 
HETATM   21  C14 UNK     1      19.204   0.147  20.426  1.00  0.00     0.009 A 
HETATM   22  C17 UNK     1      19.265   2.353  21.600  1.00  0.00     0.048 C 
HETATM   23  C11 UNK     1      19.188  -0.615  19.257  1.00  0.00     0.031 A 
ENDBRANCH   2  16
TORSDOF 2
ENDMDL
MODEL 7
REMARK VINA RESULT:      -8.6     19.521     20.953
REMARK  2 active torsions:
REMARK  status: ('A' for Active; 'I' for Inactive)
REMARK    1  A    between atoms: C5_10  and  N1_5 
REMARK       I    between atoms: C6_11  and  N1_5 
REMARK    2  A    between atoms: C2_7  and  C6_11 
ROOT
HETATM    1  O2  UNK     1      17.814  -3.122  15.704  1.00  0.00    -0.267 OA
HETATM    2  N1  UNK     1      20.114  -2.981  15.196  1.00  0.00    -0.322 N 
HETATM    3  C6  UNK     1      18.892  -2.530  15.675  1.00  0.00     0.262 C 
HETATM    4  H2  UNK     1      20.927  -2.374  15.263  1.00  0.00     0.169 HD
ENDROOT
BRANCH   3   5
HETATM    5  C2  UNK     1      18.981  -1.162  16.198  1.00  0.00     0.108 A 
HETATM    6  C4  UNK     1      18.785  -1.018  17.514  1.00  0.00     0.037 A 
HETATM    7  C1  UNK     1      18.852   0.301  18.126  1.00  0.00    -0.001 A 
HETATM    8  C3  UNK     1      19.123   1.403  17.320  1.00  0.00     0.089 A 
HETATM    9  C8  UNK     1      18.656   0.498  19.494  1.00  0.00     0.014 A 
HETATM   10  C12 UNK     1      19.199   2.692  17.844  1.00  0.00     0.038 A 
HETATM   11  O1  UNK     1      19.327   1.245  15.936  1.00  0.00    -0.274 OA
HETATM   12  C16 UNK     1      19.002   2.879  19.210  1.00  0.00     0.003 A 
HETATM   13  C15 UNK     1      18.730   1.785  20.034  1.00  0.00     0.001 A 
HETATM   14  C9  UNK     1      19.269  -0.003  15.322  1.00  0.00     0.304 A 
HETATM   15  O3  UNK     1      19.448  -0.131  14.116  1.00  0.00    -0.259 OA
ENDBRANCH   3   5
BRANCH   2  16
HETATM   16  C5  UNK     1      20.367  -4.236  14.635  1.00  0.00     0.052 A 
HETATM   17  C10 UNK     1      20.108  -4.503  13.290  1.00  0.00     0.038 A 
HETATM   18 Br1  UNK     1      19.395  -3.181  12.129  1.00  0.00    -0.049 Br
HETATM   19  C13 UNK     1      20.374  -5.768  12.766  1.00  0.00     0.028 A 
HETATM   20  C7  UNK     1      20.898  -6.766  13.586  1.00  0.00    -0.061 A 
HETATM   21  C14 UNK     1      21.158  -6.500  14.931  1.00  0.00     0.009 A 
HETATM   22  C17 UNK     1      21.185  -8.118  13.026  1.00  0.00     0.048 C 
HETATM   23  C11 UNK     1      20.892  -5.235  15.456  1.00  0.00     0.031 A 
ENDBRANCH   2  16
TORSDOF 2
ENDMDL
MODEL 8
REMARK VINA RESULT:      -8.5      1.440      1.817
REMARK  2 active torsions:
REMARK  status: ('A' for Active; 'I' for Inactive)
REMARK    1  A    between atoms: C5_10  and  N1_5 
REMARK       I    between atoms: C6_11  and  N1_5 
REMARK    2  A    between atoms: C2_7  and  C6_11 
ROOT
HETATM    1  O2  UNK     1      21.736  -4.435  37.180  1.00  0.00    -0.267 OA
HETATM    2  N1  UNK     1      20.003  -5.569  36.049  1.00  0.00    -0.322 N 
HETATM    3  C6  UNK     1      20.692  -4.464  36.530  1.00  0.00     0.262 C 
HETATM    4  H2  UNK     1      19.157  -5.427  35.503  1.00  0.00     0.169 HD
ENDROOT
BRANCH   3   5
HETATM    5  C2  UNK     1      20.025  -3.207  36.174  1.00  0.00     0.108 A 
HETATM    6  C4  UNK     1      19.311  -2.622  37.143  1.00  0.00     0.037 A 
HETATM    7  C1  UNK     1      18.611  -1.372  36.886  1.00  0.00    -0.001 A 
HETATM    8  C3  UNK     1      18.700  -0.799  35.621  1.00  0.00     0.089 A 
HETATM    9  C8  UNK     1      17.856  -0.727  37.867  1.00  0.00     0.014 A 
HETATM   10  C12 UNK     1      18.053   0.395  35.310  1.00  0.00     0.038 A 
HETATM   11  O1  UNK     1      19.453  -1.420  34.605  1.00  0.00    -0.274 OA
HETATM   12  C16 UNK     1      17.301   1.032  36.294  1.00  0.00     0.003 A 
HETATM   13  C15 UNK     1      17.202   0.473  37.570  1.00  0.00     0.001 A 
HETATM   14  C9  UNK     1      20.132  -2.616  34.821  1.00  0.00     0.304 A 
HETATM   15  O3  UNK     1      20.785  -3.149  33.930  1.00  0.00    -0.259 OA
ENDBRANCH   3   5
BRANCH   2  16
HETATM   16  C5  UNK     1      20.372  -6.907  36.215  1.00  0.00     0.052 A 
HETATM   17  C10 UNK     1      20.340  -7.526  37.466  1.00  0.00     0.038 A 
HETATM   18 Br1  UNK     1      19.792  -6.595  39.027  1.00  0.00    -0.049 Br
HETATM   19  C13 UNK     1      20.716  -8.863  37.592  1.00  0.00     0.028 A 
HETATM   20  C7  UNK     1      21.124  -9.582  36.469  1.00  0.00    -0.061 A 
HETATM   21  C14 UNK     1      21.156  -8.964  35.219  1.00  0.00     0.009 A 
HETATM   22  C17 UNK     1      21.523 -11.013  36.604  1.00  0.00     0.048 C 
HETATM   23  C11 UNK     1      20.781  -7.626  35.092  1.00  0.00     0.031 A 
ENDBRANCH   2  16
TORSDOF 2
ENDMDL
MODEL 9
REMARK VINA RESULT:      -8.4      2.035      7.700
REMARK  2 active torsions:
REMARK  status: ('A' for Active; 'I' for Inactive)
REMARK    1  A    between atoms: C5_10  and  N1_5 
REMARK       I    between atoms: C6_11  and  N1_5 
REMARK    2  A    between atoms: C2_7  and  C6_11 
ROOT
HETATM    1  O2  UNK     1      20.974  -3.927  37.615  1.00  0.00    -0.267 OA
HETATM    2  N1  UNK     1      18.849  -3.804  36.596  1.00  0.00    -0.322 N 
HETATM    3  C6  UNK     1      19.973  -4.434  37.112  1.00  0.00     0.262 C 
HETATM    4  H2  UNK     1      18.087  -4.369  36.231  1.00  0.00     0.169 HD
ENDROOT
BRANCH   3   5
HETATM    5  C2  UNK     1      19.877  -5.895  37.006  1.00  0.00     0.108 A 
HETATM    6  C4  UNK     1      21.033  -6.555  36.868  1.00  0.00     0.037 A 
HETATM    7  C1  UNK     1      21.041  -8.006  36.754  1.00  0.00    -0.001 A 
HETATM    8  C3  UNK     1      19.829  -8.690  36.790  1.00  0.00     0.089 A 
HETATM    9  C8  UNK     1      22.223  -8.735  36.609  1.00  0.00     0.014 A 
HETATM   10  C12 UNK     1      19.768 -10.078  36.685  1.00  0.00     0.038 A 
HETATM   11  O1  UNK     1      18.616  -7.989  36.935  1.00  0.00    -0.274 OA
HETATM   12  C16 UNK     1      20.952 -10.797  36.541  1.00  0.00     0.003 A 
HETATM   13  C15 UNK     1      22.177 -10.128  36.503  1.00  0.00     0.001 A 
HETATM   14  C9  UNK     1      18.577  -6.602  37.047  1.00  0.00     0.304 A 
HETATM   15  O3  UNK     1      17.516  -6.001  37.171  1.00  0.00    -0.259 OA
ENDBRANCH   3   5
BRANCH   2  16
HETATM   16  C5  UNK     1      18.629  -2.424  36.547  1.00  0.00     0.052 A 
HETATM   17  C10 UNK     1      19.152  -1.635  35.522  1.00  0.00     0.038 A 
HETATM   18 Br1  UNK     1      20.198  -2.379  34.123  1.00  0.00    -0.049 Br
HETATM   19  C13 UNK     1      18.910  -0.261  35.506  1.00  0.00     0.028 A 
HETATM   20  C7  UNK     1      18.145   0.324  36.515  1.00  0.00    -0.061 A 
HETATM   21  C14 UNK     1      17.622  -0.465  37.540  1.00  0.00     0.009 A 
HETATM   22  C17 UNK     1      17.884   1.792  36.497  1.00  0.00     0.048 C 
HETATM   23  C11 UNK     1      17.864  -1.839  37.556  1.00  0.00     0.031 A 
ENDBRANCH   2  16
TORSDOF 2
ENDMDL
MODEL 10
REMARK VINA RESULT:      -8.3      6.680     11.817
REMARK  2 active torsions:
REMARK  status: ('A' for Active; 'I' for Inactive)
REMARK    1  A    between atoms: C5_10  and  N1_5 
REMARK       I    between atoms: C6_11  and  N1_5 
REMARK    2  A    between atoms: C2_7  and  C6_11 
ROOT
HETATM    1  O2  UNK     1      19.177   5.223  32.221  1.00  0.00    -0.267 OA
HETATM    2  N1  UNK     1      18.132   5.908  34.223  1.00  0.00    -0.322 N 
HETATM    3  C6  UNK     1      18.593   4.999  33.280  1.00  0.00     0.262 C 
HETATM    4  H2  UNK     1      17.684   5.561  35.067  1.00  0.00     0.169 HD
ENDROOT
BRANCH   3   5
HETATM    5  C2  UNK     1      18.309   3.614  33.671  1.00  0.00     0.108 A 
HETATM    6  C4  UNK     1      18.398   3.338  34.978  1.00  0.00     0.037 A 
HETATM    7  C1  UNK     1      18.135   1.991  35.463  1.00  0.00    -0.001 A 
HETATM    8  C3  UNK     1      17.790   1.002  34.548  1.00  0.00     0.089 A 
HETATM    9  C8  UNK     1      18.216   1.659  36.817  1.00  0.00     0.014 A 
HETATM   10  C12 UNK     1      17.527  -0.307  34.948  1.00  0.00     0.038 A 
HETATM   11  O1  UNK     1      17.697   1.299  33.174  1.00  0.00    -0.274 OA
HETATM   12  C16 UNK     1      17.610  -0.629  36.300  1.00  0.00     0.003 A 
HETATM   13  C15 UNK     1      17.955   0.351  37.233  1.00  0.00     0.001 A 
HETATM   14  C9  UNK     1      17.943   2.576  32.680  1.00  0.00     0.304 A 
HETATM   15  O3  UNK     1      17.861   2.825  31.482  1.00  0.00    -0.259 OA
ENDBRANCH   3   5
BRANCH   2  16
HETATM   16  C5  UNK     1      18.246   7.299  34.151  1.00  0.00     0.052 A 
HETATM   17  C10 UNK     1      17.171   8.103  33.770  1.00  0.00     0.038 A 
HETATM   18 Br1  UNK     1      15.480   7.364  33.326  1.00  0.00    -0.049 Br
HETATM   19  C13 UNK     1      17.322   9.488  33.710  1.00  0.00     0.028 A 
HETATM   20  C7  UNK     1      18.549  10.070  34.030  1.00  0.00    -0.061 A 
HETATM   21  C14 UNK     1      19.624   9.267  34.411  1.00  0.00     0.009 A 
HETATM   22  C17 UNK     1      18.710  11.551  33.969  1.00  0.00     0.048 C 
HETATM   23  C11 UNK     1      19.473   7.881  34.471  1.00  0.00     0.031 A 
ENDBRANCH   2  16
TORSDOF 2
ENDMDL
