MODEL 1
REMARK VINA RESULT:      -7.9      0.000      0.000
REMARK  5 active torsions:
REMARK  status: ('A' for Active; 'I' for Inactive)
REMARK    1  A    between atoms: C5_10  and  O2_2 
REMARK    2  A    between atoms: C9_14  and  O2_2 
REMARK    3  A    between atoms: C15_20  and  O3_3 
REMARK    4  A    between atoms: C16_21  and  O3_3 
REMARK    5  A    between atoms: C15_20  and  C9_14 
ROOT
HETATM    1  O1  UNK     1      19.183  -0.146  32.785  1.00  0.00    -0.274 OA
HETATM    2  O4  UNK     1      19.913  -2.251  33.214  1.00  0.00    -0.259 OA
HETATM    3  C1  UNK     1      19.292   0.755  30.527  1.00  0.00     0.005 A 
HETATM    4  C2  UNK     1      18.968   0.899  31.873  1.00  0.00     0.099 A 
HETATM    5  C3  UNK     1      18.420   2.075  32.393  1.00  0.00     0.006 A 
HETATM    6  C4  UNK     1      19.867  -0.525  30.064  1.00  0.00    -0.037 A 
HETATM    7  C5  UNK     1      18.187   3.151  31.545  1.00  0.00     0.078 A 
HETATM    8  C6  UNK     1      20.101  -1.509  30.958  1.00  0.00     0.020 A 
HETATM    9  C7  UNK     1      19.054   1.856  29.691  1.00  0.00     0.017 A 
HETATM   10  C8  UNK     1      18.506   3.042  30.194  1.00  0.00     0.038 A 
HETATM   11  C10 UNK     1      18.086   2.180  33.846  1.00  0.00     0.054 C 
HETATM   12  C11 UNK     1      19.739  -1.353  32.397  1.00  0.00     0.294 A 
HETATM   13  C12 UNK     1      20.146  -0.653  28.587  1.00  0.00     0.050 C 
HETATM   14  C13 UNK     1      20.740  -2.836  30.633  1.00  0.00     0.055 C 
ENDROOT
BRANCH   7  15
HETATM   15  O2  UNK     1      17.655   4.312  32.014  1.00  0.00    -0.336 OA
BRANCH  15  16
HETATM   16  C9  UNK     1      18.511   5.453  32.045  1.00  0.00     0.224 C 
HETATM   17  C14 UNK     1      17.836   6.571  31.272  1.00  0.00     0.051 C 
BRANCH  16  18
HETATM   18  C15 UNK     1      18.746   5.843  33.491  1.00  0.00     0.288 C 
HETATM   19  O5  UNK     1      19.639   5.390  34.196  1.00  0.00    -0.262 OA
BRANCH  18  20
HETATM   20  O3  UNK     1      17.832   6.785  33.867  1.00  0.00    -0.320 OA
BRANCH  20  21
HETATM   21  C16 UNK     1      18.290   7.739  34.831  1.00  0.00     0.174 C 
HETATM   22  C17 UNK     1      18.937   8.901  34.105  1.00  0.00     0.034 C 
ENDBRANCH  20  21
ENDBRANCH  18  20
ENDBRANCH  16  18
ENDBRANCH  15  16
ENDBRANCH   7  15
TORSDOF 5
ENDMDL
MODEL 2
REMARK VINA RESULT:      -7.9      1.873      2.950
REMARK  5 active torsions:
REMARK  status: ('A' for Active; 'I' for Inactive)
REMARK    1  A    between atoms: C5_10  and  O2_2 
REMARK    2  A    between atoms: C9_14  and  O2_2 
REMARK    3  A    between atoms: C15_20  and  O3_3 
REMARK    4  A    between atoms: C16_21  and  O3_3 
REMARK    5  A    between atoms: C15_20  and  C9_14 
ROOT
HETATM    1  O1  UNK     1      19.627   0.973  29.527  1.00  0.00    -0.274 OA
HETATM    2  O4  UNK     1      20.581  -0.650  28.260  1.00  0.00    -0.259 OA
HETATM    3  C1  UNK     1      19.064   0.542  31.855  1.00  0.00     0.005 A 
HETATM    4  C2  UNK     1      19.097   1.396  30.756  1.00  0.00     0.099 A 
HETATM    5  C3  UNK     1      18.612   2.706  30.806  1.00  0.00     0.006 A 
HETATM    6  C4  UNK     1      19.601  -0.827  31.711  1.00  0.00    -0.037 A 
HETATM    7  C5  UNK     1      18.068   3.186  31.991  1.00  0.00     0.078 A 
HETATM    8  C6  UNK     1      20.075  -1.232  30.515  1.00  0.00     0.020 A 
HETATM    9  C7  UNK     1      18.505   1.046  33.040  1.00  0.00     0.017 A 
HETATM   10  C8  UNK     1      18.013   2.355  33.107  1.00  0.00     0.038 A 
HETATM   11  C10 UNK     1      18.673   3.585  29.599  1.00  0.00     0.054 C 
HETATM   12  C11 UNK     1      20.120  -0.308  29.345  1.00  0.00     0.294 A 
HETATM   13  C12 UNK     1      19.595  -1.694  32.946  1.00  0.00     0.050 C 
HETATM   14  C13 UNK     1      20.590  -2.617  30.215  1.00  0.00     0.055 C 
ENDROOT
BRANCH   7  15
HETATM   15  O2  UNK     1      17.585   4.455  32.079  1.00  0.00    -0.336 OA
BRANCH  15  16
HETATM   16  C9  UNK     1      18.081   5.266  33.142  1.00  0.00     0.224 C 
HETATM   17  C14 UNK     1      19.406   5.864  32.702  1.00  0.00     0.051 C 
BRANCH  16  18
HETATM   18  C15 UNK     1      17.060   6.345  33.445  1.00  0.00     0.288 C 
HETATM   19  O5  UNK     1      16.984   6.952  34.505  1.00  0.00    -0.262 OA
BRANCH  18  20
HETATM   20  O3  UNK     1      16.267   6.546  32.351  1.00  0.00    -0.320 OA
BRANCH  20  21
HETATM   21  C16 UNK     1      15.387   7.672  32.426  1.00  0.00     0.174 C 
HETATM   22  C17 UNK     1      13.960   7.194  32.258  1.00  0.00     0.034 C 
ENDBRANCH  20  21
ENDBRANCH  18  20
ENDBRANCH  16  18
ENDBRANCH  15  16
ENDBRANCH   7  15
TORSDOF 5
ENDMDL
MODEL 3
REMARK VINA RESULT:      -7.5      2.751      8.961
REMARK  5 active torsions:
REMARK  status: ('A' for Active; 'I' for Inactive)
REMARK    1  A    between atoms: C5_10  and  O2_2 
REMARK    2  A    between atoms: C9_14  and  O2_2 
REMARK    3  A    between atoms: C15_20  and  O3_3 
REMARK    4  A    between atoms: C16_21  and  O3_3 
REMARK    5  A    between atoms: C15_20  and  C9_14 
ROOT
HETATM    1  O1  UNK     1      18.446   9.880  33.927  1.00  0.00    -0.274 OA
HETATM    2  O4  UNK     1      18.504  12.053  34.582  1.00  0.00    -0.259 OA
HETATM    3  C1  UNK     1      16.339   8.848  33.285  1.00  0.00     0.005 A 
HETATM    4  C2  UNK     1      17.714   8.768  33.485  1.00  0.00     0.099 A 
HETATM    5  C3  UNK     1      18.440   7.594  33.265  1.00  0.00     0.006 A 
HETATM    6  C4  UNK     1      15.653  10.131  33.542  1.00  0.00    -0.037 A 
HETATM    7  C5  UNK     1      17.775   6.453  32.832  1.00  0.00     0.078 A 
HETATM    8  C6  UNK     1      16.364  11.183  34.000  1.00  0.00     0.020 A 
HETATM    9  C7  UNK     1      15.687   7.682  32.854  1.00  0.00     0.017 A 
HETATM   10  C8  UNK     1      16.398   6.497  32.629  1.00  0.00     0.038 A 
HETATM   11  C10 UNK     1      19.917   7.559  33.491  1.00  0.00     0.054 C 
HETATM   12  C11 UNK     1      17.839  11.095  34.200  1.00  0.00     0.294 A 
HETATM   13  C12 UNK     1      14.173  10.182  33.255  1.00  0.00     0.050 C 
HETATM   14  C13 UNK     1      15.781  12.525  34.363  1.00  0.00     0.055 C 
ENDROOT
BRANCH   7  15
HETATM   15  O2  UNK     1      18.446   5.291  32.607  1.00  0.00    -0.336 OA
BRANCH  15  16
HETATM   16  C9  UNK     1      18.422   4.774  31.278  1.00  0.00     0.224 C 
HETATM   17  C14 UNK     1      19.676   5.245  30.565  1.00  0.00     0.051 C 
BRANCH  16  18
HETATM   18  C15 UNK     1      18.359   3.262  31.348  1.00  0.00     0.288 C 
HETATM   19  O5  UNK     1      17.746   2.630  32.199  1.00  0.00    -0.262 OA
BRANCH  18  20
HETATM   20  O3  UNK     1      19.065   2.724  30.310  1.00  0.00    -0.320 OA
BRANCH  20  21
HETATM   21  C16 UNK     1      18.600   1.455  29.840  1.00  0.00     0.174 C 
HETATM   22  C17 UNK     1      17.872   1.652  28.526  1.00  0.00     0.034 C 
ENDBRANCH  20  21
ENDBRANCH  18  20
ENDBRANCH  16  18
ENDBRANCH  15  16
ENDBRANCH   7  15
TORSDOF 5
ENDMDL
MODEL 4
REMARK VINA RESULT:      -7.5      2.179      8.581
REMARK  5 active torsions:
REMARK  status: ('A' for Active; 'I' for Inactive)
REMARK    1  A    between atoms: C5_10  and  O2_2 
REMARK    2  A    between atoms: C9_14  and  O2_2 
REMARK    3  A    between atoms: C15_20  and  O3_3 
REMARK    4  A    between atoms: C16_21  and  O3_3 
REMARK    5  A    between atoms: C15_20  and  C9_14 
ROOT
HETATM    1  O1  UNK     1      16.446   9.116  33.342  1.00  0.00    -0.274 OA
HETATM    2  O4  UNK     1      15.925  11.261  33.870  1.00  0.00    -0.259 OA
HETATM    3  C1  UNK     1      18.725   8.305  33.606  1.00  0.00     0.005 A 
HETATM    4  C2  UNK     1      17.399   8.090  33.241  1.00  0.00     0.099 A 
HETATM    5  C3  UNK     1      16.941   6.862  32.757  1.00  0.00     0.006 A 
HETATM    6  C4  UNK     1      19.120   9.637  34.108  1.00  0.00    -0.037 A 
HETATM    7  C5  UNK     1      17.834   5.806  32.626  1.00  0.00     0.078 A 
HETATM    8  C6  UNK     1      18.201  10.624  34.168  1.00  0.00     0.020 A 
HETATM    9  C7  UNK     1      19.611   7.226  33.459  1.00  0.00     0.017 A 
HETATM   10  C8  UNK     1      19.170   5.989  32.976  1.00  0.00     0.038 A 
HETATM   11  C10 UNK     1      15.506   6.680  32.381  1.00  0.00     0.054 C 
HETATM   12  C11 UNK     1      16.779  10.383  33.788  1.00  0.00     0.294 A 
HETATM   13  C12 UNK     1      20.555   9.802  34.546  1.00  0.00     0.050 C 
HETATM   14  C13 UNK     1      18.484  12.041  34.599  1.00  0.00     0.055 C 
ENDROOT
BRANCH   7  15
HETATM   15  O2  UNK     1      17.427   4.594  32.159  1.00  0.00    -0.336 OA
BRANCH  15  16
HETATM   16  C9  UNK     1      18.437   3.613  31.930  1.00  0.00     0.224 C 
HETATM   17  C14 UNK     1      18.119   2.401  32.787  1.00  0.00     0.051 C 
BRANCH  16  18
HETATM   18  C15 UNK     1      18.446   3.262  30.456  1.00  0.00     0.288 C 
HETATM   19  O5  UNK     1      18.813   4.017  29.565  1.00  0.00    -0.262 OA
BRANCH  18  20
HETATM   20  O3  UNK     1      18.011   1.979  30.287  1.00  0.00    -0.320 OA
BRANCH  20  21
HETATM   21  C16 UNK     1      18.620   1.258  29.211  1.00  0.00     0.174 C 
HETATM   22  C17 UNK     1      19.726   0.385  29.767  1.00  0.00     0.034 C 
ENDBRANCH  20  21
ENDBRANCH  18  20
ENDBRANCH  16  18
ENDBRANCH  15  16
ENDBRANCH   7  15
TORSDOF 5
ENDMDL
MODEL 5
REMARK VINA RESULT:      -7.3     22.698     24.692
REMARK  5 active torsions:
REMARK  status: ('A' for Active; 'I' for Inactive)
REMARK    1  A    between atoms: C5_10  and  O2_2 
REMARK    2  A    between atoms: C9_14  and  O2_2 
REMARK    3  A    between atoms: C15_20  and  O3_3 
REMARK    4  A    between atoms: C16_21  and  O3_3 
REMARK    5  A    between atoms: C15_20  and  C9_14 
ROOT
HETATM    1  O1  UNK     1      14.656   5.570   8.939  1.00  0.00    -0.274 OA
HETATM    2  O4  UNK     1      16.800   4.960   9.365  1.00  0.00    -0.259 OA
HETATM    3  C1  UNK     1      13.892   7.820   9.465  1.00  0.00     0.005 A 
HETATM    4  C2  UNK     1      13.644   6.542   8.971  1.00  0.00     0.099 A 
HETATM    5  C3  UNK     1      12.393   6.153   8.486  1.00  0.00     0.006 A 
HETATM    6  C4  UNK     1      15.247   8.145   9.956  1.00  0.00    -0.037 A 
HETATM    7  C5  UNK     1      11.345   7.065   8.496  1.00  0.00     0.078 A 
HETATM    8  C6  UNK     1      16.201   7.190   9.952  1.00  0.00     0.020 A 
HETATM    9  C7  UNK     1      12.818   8.723   9.470  1.00  0.00     0.017 A 
HETATM   10  C8  UNK     1      11.557   8.350   8.990  1.00  0.00     0.038 A 
HETATM   11  C10 UNK     1      12.177   4.769   7.963  1.00  0.00     0.054 C 
HETATM   12  C11 UNK     1      15.933   5.827   9.409  1.00  0.00     0.294 A 
HETATM   13  C12 UNK     1      15.481   9.559  10.427  1.00  0.00     0.050 C 
HETATM   14  C13 UNK     1      17.602   7.368  10.482  1.00  0.00     0.055 C 
ENDROOT
BRANCH   7  15
HETATM   15  O2  UNK     1      10.111   6.723   8.033  1.00  0.00    -0.336 OA
BRANCH  15  16
HETATM   16  C9  UNK     1       9.042   6.715   8.978  1.00  0.00     0.224 C 
HETATM   17  C14 UNK     1       7.803   7.263   8.294  1.00  0.00     0.051 C 
BRANCH  16  18
HETATM   18  C15 UNK     1       8.829   5.292   9.454  1.00  0.00     0.288 C 
HETATM   19  O5  UNK     1       9.510   4.735  10.306  1.00  0.00    -0.262 OA
BRANCH  18  20
HETATM   20  O3  UNK     1       7.755   4.748   8.810  1.00  0.00    -0.320 OA
BRANCH  20  21
HETATM   21  C16 UNK     1       6.959   3.849   9.588  1.00  0.00     0.174 C 
HETATM   22  C17 UNK     1       6.009   4.653  10.451  1.00  0.00     0.034 C 
ENDBRANCH  20  21
ENDBRANCH  18  20
ENDBRANCH  16  18
ENDBRANCH  15  16
ENDBRANCH   7  15
TORSDOF 5
ENDMDL
MODEL 6
REMARK VINA RESULT:      -7.1     22.639     24.944
REMARK  5 active torsions:
REMARK  status: ('A' for Active; 'I' for Inactive)
REMARK    1  A    between atoms: C5_10  and  O2_2 
REMARK    2  A    between atoms: C9_14  and  O2_2 
REMARK    3  A    between atoms: C15_20  and  O3_3 
REMARK    4  A    between atoms: C16_21  and  O3_3 
REMARK    5  A    between atoms: C15_20  and  C9_14 
ROOT
HETATM    1  O1  UNK     1      18.061   9.929   9.739  1.00  0.00    -0.274 OA
HETATM    2  O4  UNK     1      19.785  11.388   9.511  1.00  0.00    -0.259 OA
HETATM    3  C1  UNK     1      15.915  10.391   8.691  1.00  0.00     0.005 A 
HETATM    4  C2  UNK     1      16.730   9.575   9.470  1.00  0.00     0.099 A 
HETATM    5  C3  UNK     1      16.282   8.373  10.025  1.00  0.00     0.006 A 
HETATM    6  C4  UNK     1      16.473  11.644   8.143  1.00  0.00    -0.037 A 
HETATM    7  C5  UNK     1      14.972   7.967   9.802  1.00  0.00     0.078 A 
HETATM    8  C6  UNK     1      17.744  11.990   8.439  1.00  0.00     0.020 A 
HETATM    9  C7  UNK     1      14.594   9.964   8.484  1.00  0.00     0.017 A 
HETATM   10  C8  UNK     1      14.127   8.764   9.033  1.00  0.00     0.038 A 
HETATM   11  C10 UNK     1      17.197   7.530  10.852  1.00  0.00     0.054 C 
HETATM   12  C11 UNK     1      18.617  11.104   9.263  1.00  0.00     0.294 A 
HETATM   13  C12 UNK     1      15.568  12.465   7.258  1.00  0.00     0.050 C 
HETATM   14  C13 UNK     1      18.415  13.267   8.001  1.00  0.00     0.055 C 
ENDROOT
BRANCH   7  15
HETATM   15  O2  UNK     1      14.498   6.804  10.326  1.00  0.00    -0.336 OA
BRANCH  15  16
HETATM   16  C9  UNK     1      14.273   5.727   9.418  1.00  0.00     0.224 C 
HETATM   17  C14 UNK     1      15.125   4.550   9.859  1.00  0.00     0.051 C 
BRANCH  16  18
HETATM   18  C15 UNK     1      12.798   5.380   9.435  1.00  0.00     0.288 C 
HETATM   19  O5  UNK     1      12.073   5.478  10.417  1.00  0.00    -0.262 OA
BRANCH  18  20
HETATM   20  O3  UNK     1      12.407   4.970   8.193  1.00  0.00    -0.320 OA
BRANCH  20  21
HETATM   21  C16 UNK     1      12.294   6.004   7.210  1.00  0.00     0.174 C 
HETATM   22  C17 UNK     1      10.919   5.936   6.579  1.00  0.00     0.034 C 
ENDBRANCH  20  21
ENDBRANCH  18  20
ENDBRANCH  16  18
ENDBRANCH  15  16
ENDBRANCH   7  15
TORSDOF 5
ENDMDL
MODEL 7
REMARK VINA RESULT:      -7.0     22.885     24.969
REMARK  5 active torsions:
REMARK  status: ('A' for Active; 'I' for Inactive)
REMARK    1  A    between atoms: C5_10  and  O2_2 
REMARK    2  A    between atoms: C9_14  and  O2_2 
REMARK    3  A    between atoms: C15_20  and  O3_3 
REMARK    4  A    between atoms: C16_21  and  O3_3 
REMARK    5  A    between atoms: C15_20  and  C9_14 
ROOT
HETATM    1  O1  UNK     1      14.158   8.940  10.138  1.00  0.00    -0.274 OA
HETATM    2  O4  UNK     1      16.233   9.768  10.536  1.00  0.00    -0.259 OA
HETATM    3  C1  UNK     1      13.844   6.565   9.714  1.00  0.00     0.005 A 
HETATM    4  C2  UNK     1      13.324   7.849   9.850  1.00  0.00     0.099 A 
HETATM    5  C3  UNK     1      11.962   8.128   9.709  1.00  0.00     0.006 A 
HETATM    6  C4  UNK     1      15.299   6.362   9.881  1.00  0.00    -0.037 A 
HETATM    7  C5  UNK     1      11.082   7.093   9.417  1.00  0.00     0.078 A 
HETATM    8  C6  UNK     1      16.093   7.426  10.123  1.00  0.00     0.020 A 
HETATM    9  C7  UNK     1      12.938   5.536   9.414  1.00  0.00     0.017 A 
HETATM   10  C8  UNK     1      11.571   5.797   9.268  1.00  0.00     0.038 A 
HETATM   11  C10 UNK     1      11.451   9.523   9.867  1.00  0.00     0.054 C 
HETATM   12  C11 UNK     1      15.528   8.797  10.281  1.00  0.00     0.294 A 
HETATM   13  C12 UNK     1      15.805   4.944   9.782  1.00  0.00     0.050 C 
HETATM   14  C13 UNK     1      17.595   7.370  10.250  1.00  0.00     0.055 C 
ENDROOT
BRANCH   7  15
HETATM   15  O2  UNK     1       9.749   7.324   9.272  1.00  0.00    -0.336 OA
BRANCH  15  16
HETATM   16  C9  UNK     1       8.923   6.200   8.973  1.00  0.00     0.224 C 
HETATM   17  C14 UNK     1       7.822   6.132  10.016  1.00  0.00     0.051 C 
BRANCH  16  18
HETATM   18  C15 UNK     1       8.356   6.373   7.579  1.00  0.00     0.288 C 
HETATM   19  O5  UNK     1       7.436   7.128   7.291  1.00  0.00    -0.262 OA
BRANCH  18  20
HETATM   20  O3  UNK     1       9.042   5.582   6.702  1.00  0.00    -0.320 OA
BRANCH  20  21
HETATM   21  C16 UNK     1       9.623   6.261   5.584  1.00  0.00     0.174 C 
HETATM   22  C17 UNK     1      11.080   6.545   5.882  1.00  0.00     0.034 C 
ENDBRANCH  20  21
ENDBRANCH  18  20
ENDBRANCH  16  18
ENDBRANCH  15  16
ENDBRANCH   7  15
TORSDOF 5
ENDMDL
MODEL 8
REMARK VINA RESULT:      -6.9     13.403     16.586
REMARK  5 active torsions:
REMARK  status: ('A' for Active; 'I' for Inactive)
REMARK    1  A    between atoms: C5_10  and  O2_2 
REMARK    2  A    between atoms: C9_14  and  O2_2 
REMARK    3  A    between atoms: C15_20  and  O3_3 
REMARK    4  A    between atoms: C16_21  and  O3_3 
REMARK    5  A    between atoms: C15_20  and  C9_14 
ROOT
HETATM    1  O1  UNK     1      27.554  -5.396  38.541  1.00  0.00    -0.274 OA
HETATM    2  O4  UNK     1      25.301  -5.293  38.795  1.00  0.00    -0.259 OA
HETATM    3  C1  UNK     1      28.675  -7.550  38.383  1.00  0.00     0.005 A 
HETATM    4  C2  UNK     1      28.724  -6.159  38.403  1.00  0.00     0.099 A 
HETATM    5  C3  UNK     1      29.921  -5.446  38.291  1.00  0.00     0.006 A 
HETATM    6  C4  UNK     1      27.364  -8.220  38.507  1.00  0.00    -0.037 A 
HETATM    7  C5  UNK     1      31.117  -6.141  38.159  1.00  0.00     0.078 A 
HETATM    8  C6  UNK     1      26.251  -7.474  38.673  1.00  0.00     0.020 A 
HETATM    9  C7  UNK     1      29.895  -8.231  38.255  1.00  0.00     0.017 A 
HETATM   10  C8  UNK     1      31.104  -7.534  38.143  1.00  0.00     0.038 A 
HETATM   11  C10 UNK     1      29.922  -3.952  38.315  1.00  0.00     0.054 C 
HETATM   12  C11 UNK     1      26.309  -5.984  38.680  1.00  0.00     0.294 A 
HETATM   13  C12 UNK     1      27.357  -9.726  38.421  1.00  0.00     0.050 C 
HETATM   14  C13 UNK     1      24.863  -8.029  38.875  1.00  0.00     0.055 C 
ENDROOT
BRANCH   7  15
HETATM   15  O2  UNK     1      32.303  -5.483  38.048  1.00  0.00    -0.336 OA
BRANCH  15  16
HETATM   16  C9  UNK     1      32.991  -5.591  36.803  1.00  0.00     0.224 C 
HETATM   17  C14 UNK     1      33.040  -4.212  36.170  1.00  0.00     0.051 C 
BRANCH  16  18
HETATM   18  C15 UNK     1      34.383  -6.130  37.064  1.00  0.00     0.288 C 
HETATM   19  O5  UNK     1      34.659  -6.951  37.929  1.00  0.00    -0.262 OA
BRANCH  18  20
HETATM   20  O3  UNK     1      35.263  -5.580  36.176  1.00  0.00    -0.320 OA
BRANCH  20  21
HETATM   21  C16 UNK     1      35.844  -6.493  35.239  1.00  0.00     0.174 C 
HETATM   22  C17 UNK     1      35.354  -6.149  33.847  1.00  0.00     0.034 C 
ENDBRANCH  20  21
ENDBRANCH  18  20
ENDBRANCH  16  18
ENDBRANCH  15  16
ENDBRANCH   7  15
TORSDOF 5
ENDMDL
MODEL 9
REMARK VINA RESULT:      -6.9     22.648     24.649
REMARK  5 active torsions:
REMARK  status: ('A' for Active; 'I' for Inactive)
REMARK    1  A    between atoms: C5_10  and  O2_2 
REMARK    2  A    between atoms: C9_14  and  O2_2 
REMARK    3  A    between atoms: C15_20  and  O3_3 
REMARK    4  A    between atoms: C16_21  and  O3_3 
REMARK    5  A    between atoms: C15_20  and  C9_14 
ROOT
HETATM    1  O1  UNK     1      10.186   8.278   9.820  1.00  0.00    -0.274 OA
HETATM    2  O4  UNK     1       7.998   7.676   9.858  1.00  0.00    -0.259 OA
HETATM    3  C1  UNK     1      11.630   7.541   8.006  1.00  0.00     0.005 A 
HETATM    4  C2  UNK     1      11.443   8.236   9.197  1.00  0.00     0.099 A 
HETATM    5  C3  UNK     1      12.476   8.924   9.838  1.00  0.00     0.006 A 
HETATM    6  C4  UNK     1      10.479   6.842   7.398  1.00  0.00    -0.037 A 
HETATM    7  C5  UNK     1      13.748   8.918   9.278  1.00  0.00     0.078 A 
HETATM    8  C6  UNK     1       9.284   6.862   8.025  1.00  0.00     0.020 A 
HETATM    9  C7  UNK     1      12.924   7.543   7.462  1.00  0.00     0.017 A 
HETATM   10  C8  UNK     1      13.972   8.225   8.091  1.00  0.00     0.038 A 
HETATM   11  C10 UNK     1      12.224   9.659  11.115  1.00  0.00     0.054 C 
HETATM   12  C11 UNK     1       9.086   7.620   9.295  1.00  0.00     0.294 A 
HETATM   13  C12 UNK     1      10.720   6.152   6.078  1.00  0.00     0.050 C 
HETATM   14  C13 UNK     1       8.048   6.140   7.550  1.00  0.00     0.055 C 
ENDROOT
BRANCH   7  15
HETATM   15  O2  UNK     1      14.781   9.575   9.873  1.00  0.00    -0.336 OA
BRANCH  15  16
HETATM   16  C9  UNK     1      16.045   8.913   9.895  1.00  0.00     0.224 C 
HETATM   17  C14 UNK     1      17.127   9.967  10.043  1.00  0.00     0.051 C 
BRANCH  16  18
HETATM   18  C15 UNK     1      16.059   7.938  11.055  1.00  0.00     0.288 C 
HETATM   19  O5  UNK     1      15.491   8.120  12.124  1.00  0.00    -0.262 OA
BRANCH  18  20
HETATM   20  O3  UNK     1      16.777   6.827  10.712  1.00  0.00    -0.320 OA
BRANCH  20  21
HETATM   21  C16 UNK     1      16.222   6.037   9.655  1.00  0.00     0.174 C 
HETATM   22  C17 UNK     1      14.985   5.329  10.165  1.00  0.00     0.034 C 
ENDBRANCH  20  21
ENDBRANCH  18  20
ENDBRANCH  16  18
ENDBRANCH  15  16
ENDBRANCH   7  15
TORSDOF 5
ENDMDL
MODEL 10
REMARK VINA RESULT:      -6.8      2.368      3.849
REMARK  5 active torsions:
REMARK  status: ('A' for Active; 'I' for Inactive)
REMARK    1  A    between atoms: C5_10  and  O2_2 
REMARK    2  A    between atoms: C9_14  and  O2_2 
REMARK    3  A    between atoms: C15_20  and  O3_3 
REMARK    4  A    between atoms: C16_21  and  O3_3 
REMARK    5  A    between atoms: C15_20  and  C9_14 
ROOT
HETATM    1  O1  UNK     1      19.169   2.501  30.304  1.00  0.00    -0.274 OA
HETATM    2  O4  UNK     1      19.678   0.443  29.494  1.00  0.00    -0.259 OA
HETATM    3  C1  UNK     1      18.432   2.767  32.607  1.00  0.00     0.005 A 
HETATM    4  C2  UNK     1      18.737   3.313  31.364  1.00  0.00     0.099 A 
HETATM    5  C3  UNK     1      18.633   4.681  31.097  1.00  0.00     0.006 A 
HETATM    6  C4  UNK     1      18.572   1.308  32.800  1.00  0.00    -0.037 A 
HETATM    7  C5  UNK     1      18.205   5.540  32.102  1.00  0.00     0.078 A 
HETATM    8  C6  UNK     1      18.955   0.535  31.762  1.00  0.00     0.020 A 
HETATM    9  C7  UNK     1      17.996   3.652  33.605  1.00  0.00     0.017 A 
HETATM   10  C8  UNK     1      17.884   5.025  33.355  1.00  0.00     0.038 A 
HETATM   11  C10 UNK     1      18.976   5.220  29.746  1.00  0.00     0.054 C 
HETATM   12  C11 UNK     1      19.294   1.129  30.436  1.00  0.00     0.294 A 
HETATM   13  C12 UNK     1      18.285   0.772  34.182  1.00  0.00     0.050 C 
HETATM   14  C13 UNK     1      19.076  -0.967  31.804  1.00  0.00     0.055 C 
ENDROOT
BRANCH   7  15
HETATM   15  O2  UNK     1      18.090   6.878  31.881  1.00  0.00    -0.336 OA
BRANCH  15  16
HETATM   16  C9  UNK     1      17.480   7.656  32.909  1.00  0.00     0.224 C 
HETATM   17  C14 UNK     1      18.560   8.494  33.570  1.00  0.00     0.051 C 
BRANCH  16  18
HETATM   18  C15 UNK     1      16.408   8.526  32.286  1.00  0.00     0.288 C 
HETATM   19  O5  UNK     1      16.052   8.460  31.116  1.00  0.00    -0.262 OA
BRANCH  18  20
HETATM   20  O3  UNK     1      15.891   9.366  33.231  1.00  0.00    -0.320 OA
BRANCH  20  21
HETATM   21  C16 UNK     1      14.523   9.132  33.583  1.00  0.00     0.174 C 
HETATM   22  C17 UNK     1      13.697  10.332  33.171  1.00  0.00     0.034 C 
ENDBRANCH  20  21
ENDBRANCH  18  20
ENDBRANCH  16  18
ENDBRANCH  15  16
ENDBRANCH   7  15
TORSDOF 5
ENDMDL
