MODEL 1
REMARK VINA RESULT:     -10.8      0.000      0.000
REMARK  6 active torsions:
REMARK  status: ('A' for Active; 'I' for Inactive)
REMARK    1  A    between atoms: C15_22  and  O1_1 
REMARK    2  A    between atoms: C8_15  and  O1_1 
REMARK    3  A    between atoms: C1_8  and  N1_7 
REMARK    4  A    between atoms: C1_8  and  C2_9 
REMARK    5  A    between atoms: C1_8  and  C8_15 
REMARK    6  A    between atoms: C2_9  and  C7_14 
ROOT
HETATM    1  C1  UNK     1      19.411  -3.410  36.389  1.00  0.00     0.200 C 
ENDROOT
BRANCH   1   2
HETATM    2  N1  UNK     1      19.657  -4.723  36.929  1.00  0.00    -0.265 N 
HETATM    3  C3  UNK     1      20.869  -5.127  37.462  1.00  0.00     0.262 A 
HETATM    4  O2  UNK     1      21.913  -4.512  37.578  1.00  0.00    -0.267 OA
HETATM    5  C5  UNK     1      20.676  -6.509  37.895  1.00  0.00     0.048 A 
HETATM    6  C6  UNK     1      19.371  -6.875  37.601  1.00  0.00     0.048 A 
HETATM    7  C9  UNK     1      21.561  -7.382  38.494  1.00  0.00     0.018 A 
HETATM    8  C10 UNK     1      18.882  -8.132  37.891  1.00  0.00     0.018 A 
HETATM    9  C4  UNK     1      18.709  -5.731  36.975  1.00  0.00     0.262 A 
HETATM   10  C14 UNK     1      19.760  -9.033  38.499  1.00  0.00     0.001 A 
HETATM   11  C13 UNK     1      21.087  -8.662  38.798  1.00  0.00     0.001 A 
HETATM   12  O3  UNK     1      17.552  -5.736  36.597  1.00  0.00    -0.267 OA
ENDBRANCH   1   2
BRANCH   1  13
HETATM   13  C2  UNK     1      19.116  -2.395  37.503  1.00  0.00     0.074 C 
BRANCH  13  14
HETATM   14  C7  UNK     1      18.122  -1.319  37.128  1.00  0.00    -0.056 A 
HETATM   15  C11 UNK     1      18.007  -0.194  37.929  1.00  0.00     0.007 A 
HETATM   16  C19 UNK     1      17.091   0.798  37.583  1.00  0.00     0.001 A 
HETATM   17  C24 UNK     1      16.302   0.653  36.442  1.00  0.00     0.000 A 
HETATM   18  C20 UNK     1      16.430  -0.485  35.646  1.00  0.00     0.001 A 
HETATM   19  C12 UNK     1      17.346  -1.478  35.992  1.00  0.00     0.007 A 
ENDBRANCH  13  14
ENDBRANCH   1  13
BRANCH   1  20
HETATM   20  C8  UNK     1      20.534  -2.936  35.475  1.00  0.00     0.288 C 
HETATM   21  O4  UNK     1      21.335  -2.066  35.802  1.00  0.00    -0.262 OA
BRANCH  20  22
HETATM   22  O1  UNK     1      20.524  -3.579  34.226  1.00  0.00    -0.277 OA
BRANCH  22  23
HETATM   23  C15 UNK     1      20.345  -2.747  33.165  1.00  0.00     0.082 A 
HETATM   24  C18 UNK     1      19.655  -1.550  33.325  1.00  0.00     0.075 A 
HETATM   25  C17 UNK     1      19.482  -0.711  32.223  1.00  0.00     0.092 A 
HETATM   26  C16 UNK     1      19.979  -1.030  30.958  1.00  0.00     0.004 A 
HETATM   27  O5  UNK     1      18.775   0.488  32.446  1.00  0.00    -0.275 OA
HETATM   28  C22 UNK     1      20.671  -2.240  30.817  1.00  0.00     0.017 A 
HETATM   29  C23 UNK     1      19.751  -0.088  29.854  1.00  0.00    -0.043 A 
HETATM   30  C21 UNK     1      20.852  -3.091  31.913  1.00  0.00     0.038 A 
HETATM   31  C25 UNK     1      19.075   1.045  30.097  1.00  0.00     0.090 A 
HETATM   32  C26 UNK     1      20.272  -0.401  28.482  1.00  0.00     0.049 C 
HETATM   33  C27 UNK     1      18.545   1.396  31.425  1.00  0.00     0.288 A 
HETATM   34  O6  UNK     1      17.932   2.442  31.608  1.00  0.00    -0.260 OA
ENDBRANCH  22  23
ENDBRANCH  20  22
ENDBRANCH   1  20
TORSDOF 6
ENDMDL
MODEL 2
REMARK VINA RESULT:     -10.1      2.014      7.778
REMARK  6 active torsions:
REMARK  status: ('A' for Active; 'I' for Inactive)
REMARK    1  A    between atoms: C15_22  and  O1_1 
REMARK    2  A    between atoms: C8_15  and  O1_1 
REMARK    3  A    between atoms: C1_8  and  N1_7 
REMARK    4  A    between atoms: C1_8  and  C2_9 
REMARK    5  A    between atoms: C1_8  and  C8_15 
REMARK    6  A    between atoms: C2_9  and  C7_14 
ROOT
HETATM    1  C1  UNK     1      19.224  -1.382  35.027  1.00  0.00     0.200 C 
ENDROOT
BRANCH   1   2
HETATM    2  N1  UNK     1      19.454  -1.246  33.611  1.00  0.00    -0.265 N 
HETATM    3  C3  UNK     1      19.079  -0.140  32.868  1.00  0.00     0.262 A 
HETATM    4  O2  UNK     1      18.512   0.879  33.218  1.00  0.00    -0.267 OA
HETATM    5  C5  UNK     1      19.507  -0.413  31.498  1.00  0.00     0.048 A 
HETATM    6  C6  UNK     1      20.110  -1.662  31.476  1.00  0.00     0.048 A 
HETATM    7  C9  UNK     1      19.383   0.357  30.359  1.00  0.00     0.018 A 
HETATM    8  C10 UNK     1      20.621  -2.206  30.315  1.00  0.00     0.018 A 
HETATM    9  C4  UNK     1      20.076  -2.206  32.833  1.00  0.00     0.262 A 
HETATM   10  C14 UNK     1      20.507  -1.443  29.149  1.00  0.00     0.001 A 
HETATM   11  C13 UNK     1      19.894  -0.173  29.172  1.00  0.00     0.001 A 
HETATM   12  O3  UNK     1      20.527  -3.294  33.141  1.00  0.00    -0.267 OA
ENDBRANCH   1   2
BRANCH   1  13
HETATM   13  C2  UNK     1      17.728  -1.539  35.337  1.00  0.00     0.074 C 
BRANCH  13  14
HETATM   14  C7  UNK     1      17.123  -0.396  36.120  1.00  0.00    -0.056 A 
HETATM   15  C11 UNK     1      15.847   0.040  35.805  1.00  0.00     0.007 A 
HETATM   16  C19 UNK     1      15.289   1.094  36.527  1.00  0.00     0.001 A 
HETATM   17  C24 UNK     1      16.015   1.699  37.554  1.00  0.00     0.000 A 
HETATM   18  C20 UNK     1      17.299   1.247  37.858  1.00  0.00     0.001 A 
HETATM   19  C12 UNK     1      17.858   0.193  37.136  1.00  0.00     0.007 A 
ENDBRANCH  13  14
ENDBRANCH   1  13
BRANCH   1  20
HETATM   20  C8  UNK     1      20.051  -2.502  35.647  1.00  0.00     0.288 C 
HETATM   21  O4  UNK     1      21.275  -2.459  35.727  1.00  0.00    -0.262 OA
BRANCH  20  22
HETATM   22  O1  UNK     1      19.263  -3.582  36.079  1.00  0.00    -0.277 OA
BRANCH  22  23
HETATM   23  C15 UNK     1      19.971  -4.684  36.445  1.00  0.00     0.082 A 
HETATM   24  C18 UNK     1      20.050  -5.779  35.591  1.00  0.00     0.075 A 
HETATM   25  C17 UNK     1      20.782  -6.900  35.986  1.00  0.00     0.092 A 
HETATM   26  C16 UNK     1      21.440  -6.965  37.215  1.00  0.00     0.004 A 
HETATM   27  O5  UNK     1      20.826  -7.978  35.078  1.00  0.00    -0.275 OA
HETATM   28  C22 UNK     1      21.348  -5.852  38.061  1.00  0.00     0.017 A 
HETATM   29  C23 UNK     1      22.188  -8.185  37.550  1.00  0.00    -0.043 A 
HETATM   30  C21 UNK     1      20.619  -4.721  37.678  1.00  0.00     0.038 A 
HETATM   31  C25 UNK     1      22.212  -9.193  36.666  1.00  0.00     0.090 A 
HETATM   32  C26 UNK     1      22.907  -8.286  38.863  1.00  0.00     0.049 C 
HETATM   33  C27 UNK     1      21.523  -9.141  35.366  1.00  0.00     0.288 A 
HETATM   34  O6  UNK     1      21.569 -10.083  34.584  1.00  0.00    -0.260 OA
ENDBRANCH  22  23
ENDBRANCH  20  22
ENDBRANCH   1  20
TORSDOF 6
ENDMDL
MODEL 3
REMARK VINA RESULT:      -9.9      1.193      1.964
REMARK  6 active torsions:
REMARK  status: ('A' for Active; 'I' for Inactive)
REMARK    1  A    between atoms: C15_22  and  O1_1 
REMARK    2  A    between atoms: C8_15  and  O1_1 
REMARK    3  A    between atoms: C1_8  and  N1_7 
REMARK    4  A    between atoms: C1_8  and  C2_9 
REMARK    5  A    between atoms: C1_8  and  C8_15 
REMARK    6  A    between atoms: C2_9  and  C7_14 
ROOT
HETATM    1  C1  UNK     1      19.343  -3.438  36.602  1.00  0.00     0.200 C 
ENDROOT
BRANCH   1   2
HETATM    2  N1  UNK     1      19.563  -4.755  37.144  1.00  0.00    -0.265 N 
HETATM    3  C3  UNK     1      20.710  -5.132  37.820  1.00  0.00     0.262 A 
HETATM    4  O2  UNK     1      21.709  -4.488  38.080  1.00  0.00    -0.267 OA
HETATM    5  C5  UNK     1      20.511  -6.530  38.200  1.00  0.00     0.048 A 
HETATM    6  C6  UNK     1      19.267  -6.929  37.734  1.00  0.00     0.048 A 
HETATM    7  C9  UNK     1      21.341  -7.388  38.891  1.00  0.00     0.018 A 
HETATM    8  C10 UNK     1      18.788  -8.207  37.937  1.00  0.00     0.018 A 
HETATM    9  C4  UNK     1      18.652  -5.792  37.051  1.00  0.00     0.262 A 
HETATM   10  C14 UNK     1      19.612  -9.094  38.635  1.00  0.00     0.001 A 
HETATM   11  C13 UNK     1      20.877  -8.688  39.108  1.00  0.00     0.001 A 
HETATM   12  O3  UNK     1      17.553  -5.825  36.529  1.00  0.00    -0.267 OA
ENDBRANCH   1   2
BRANCH   1  13
HETATM   13  C2  UNK     1      19.034  -2.422  37.711  1.00  0.00     0.074 C 
BRANCH  13  14
HETATM   14  C7  UNK     1      18.068  -1.329  37.313  1.00  0.00    -0.056 A 
HETATM   15  C11 UNK     1      17.207  -1.540  36.249  1.00  0.00     0.007 A 
HETATM   16  C19 UNK     1      16.317  -0.532  35.882  1.00  0.00     0.001 A 
HETATM   17  C24 UNK     1      16.300   0.674  36.583  1.00  0.00     0.000 A 
HETATM   18  C20 UNK     1      17.173   0.870  37.653  1.00  0.00     0.001 A 
HETATM   19  C12 UNK     1      18.064  -0.138  38.020  1.00  0.00     0.007 A 
ENDBRANCH  13  14
ENDBRANCH   1  13
BRANCH   1  20
HETATM   20  C8  UNK     1      20.491  -2.974  35.714  1.00  0.00     0.288 C 
HETATM   21  O4  UNK     1      21.413  -2.279  36.128  1.00  0.00    -0.262 OA
BRANCH  20  22
HETATM   22  O1  UNK     1      20.354  -3.404  34.383  1.00  0.00    -0.277 OA
BRANCH  22  23
HETATM   23  C15 UNK     1      20.078  -2.411  33.496  1.00  0.00     0.082 A 
HETATM   24  C18 UNK     1      20.615  -2.451  32.213  1.00  0.00     0.075 A 
HETATM   25  C17 UNK     1      20.319  -1.422  31.318  1.00  0.00     0.092 A 
HETATM   26  C16 UNK     1      19.498  -0.347  31.664  1.00  0.00     0.004 A 
HETATM   27  O5  UNK     1      20.892  -1.518  30.034  1.00  0.00    -0.275 OA
HETATM   28  C22 UNK     1      18.967  -0.325  32.960  1.00  0.00     0.017 A 
HETATM   29  C23 UNK     1      19.239   0.692  30.658  1.00  0.00    -0.043 A 
HETATM   30  C21 UNK     1      19.255  -1.350  33.868  1.00  0.00     0.038 A 
HETATM   31  C25 UNK     1      19.798   0.574  29.445  1.00  0.00     0.090 A 
HETATM   32  C26 UNK     1      18.361   1.861  30.998  1.00  0.00     0.049 C 
HETATM   33  C27 UNK     1      20.665  -0.553  29.064  1.00  0.00     0.288 A 
HETATM   34  O6  UNK     1      21.158  -0.627  27.945  1.00  0.00    -0.260 OA
ENDBRANCH  22  23
ENDBRANCH  20  22
ENDBRANCH   1  20
TORSDOF 6
ENDMDL
MODEL 4
REMARK VINA RESULT:      -9.7     12.353     15.339
REMARK  6 active torsions:
REMARK  status: ('A' for Active; 'I' for Inactive)
REMARK    1  A    between atoms: C15_22  and  O1_1 
REMARK    2  A    between atoms: C8_15  and  O1_1 
REMARK    3  A    between atoms: C1_8  and  N1_7 
REMARK    4  A    between atoms: C1_8  and  C2_9 
REMARK    5  A    between atoms: C1_8  and  C8_15 
REMARK    6  A    between atoms: C2_9  and  C7_14 
ROOT
HETATM    1  C1  UNK     1      33.847  -7.198  34.629  1.00  0.00     0.200 C 
ENDROOT
BRANCH   1   2
HETATM    2  N1  UNK     1      34.698  -7.989  33.777  1.00  0.00    -0.265 N 
HETATM    3  C3  UNK     1      36.055  -8.163  33.985  1.00  0.00     0.262 A 
HETATM    4  O2  UNK     1      36.774  -7.718  34.860  1.00  0.00    -0.267 OA
HETATM    5  C5  UNK     1      36.518  -9.034  32.905  1.00  0.00     0.048 A 
HETATM    6  C6  UNK     1      35.430  -9.336  32.100  1.00  0.00     0.048 A 
HETATM    7  C9  UNK     1      37.781  -9.522  32.639  1.00  0.00     0.018 A 
HETATM    8  C10 UNK     1      35.548 -10.144  30.987  1.00  0.00     0.018 A 
HETATM    9  C4  UNK     1      34.255  -8.664  32.653  1.00  0.00     0.262 A 
HETATM   10  C14 UNK     1      36.818 -10.652  30.699  1.00  0.00     0.001 A 
HETATM   11  C13 UNK     1      37.924 -10.344  31.518  1.00  0.00     0.001 A 
HETATM   12  O3  UNK     1      33.141  -8.732  32.168  1.00  0.00    -0.267 OA
ENDBRANCH   1   2
BRANCH   1  13
HETATM   13  C2  UNK     1      34.109  -7.497  36.112  1.00  0.00     0.074 C 
BRANCH  13  14
HETATM   14  C7  UNK     1      32.964  -8.174  36.830  1.00  0.00    -0.056 A 
HETATM   15  C11 UNK     1      32.598  -7.732  38.091  1.00  0.00     0.007 A 
HETATM   16  C19 UNK     1      31.542  -8.356  38.753  1.00  0.00     0.001 A 
HETATM   17  C24 UNK     1      30.866  -9.415  38.146  1.00  0.00     0.000 A 
HETATM   18  C20 UNK     1      31.247  -9.849  36.876  1.00  0.00     0.001 A 
HETATM   19  C12 UNK     1      32.303  -9.224  36.213  1.00  0.00     0.007 A 
ENDBRANCH  13  14
ENDBRANCH   1  13
BRANCH   1  20
HETATM   20  C8  UNK     1      33.944  -5.707  34.327  1.00  0.00     0.288 C 
HETATM   21  O4  UNK     1      34.994  -5.078  34.411  1.00  0.00    -0.262 OA
BRANCH  20  22
HETATM   22  O1  UNK     1      32.706  -5.144  33.977  1.00  0.00    -0.277 OA
BRANCH  22  23
HETATM   23  C15 UNK     1      31.705  -5.385  34.865  1.00  0.00     0.082 A 
HETATM   24  C18 UNK     1      31.630  -4.657  36.048  1.00  0.00     0.075 A 
HETATM   25  C17 UNK     1      30.595  -4.921  36.946  1.00  0.00     0.092 A 
HETATM   26  C16 UNK     1      29.625  -5.894  36.700  1.00  0.00     0.004 A 
HETATM   27  O5  UNK     1      30.571  -4.151  38.127  1.00  0.00    -0.275 OA
HETATM   28  C22 UNK     1      29.717  -6.616  35.503  1.00  0.00     0.017 A 
HETATM   29  C23 UNK     1      28.570  -6.105  37.701  1.00  0.00    -0.043 A 
HETATM   30  C21 UNK     1      30.750  -6.363  34.593  1.00  0.00     0.038 A 
HETATM   31  C25 UNK     1      28.573  -5.358  38.814  1.00  0.00     0.090 A 
HETATM   32  C26 UNK     1      27.512  -7.143  37.467  1.00  0.00     0.049 C 
HETATM   33  C27 UNK     1      29.589  -4.328  39.089  1.00  0.00     0.288 A 
HETATM   34  O6  UNK     1      29.559  -3.664  40.118  1.00  0.00    -0.260 OA
ENDBRANCH  22  23
ENDBRANCH  20  22
ENDBRANCH   1  20
TORSDOF 6
ENDMDL
MODEL 5
REMARK VINA RESULT:      -9.6     12.461     15.473
REMARK  6 active torsions:
REMARK  status: ('A' for Active; 'I' for Inactive)
REMARK    1  A    between atoms: C15_22  and  O1_1 
REMARK    2  A    between atoms: C8_15  and  O1_1 
REMARK    3  A    between atoms: C1_8  and  N1_7 
REMARK    4  A    between atoms: C1_8  and  C2_9 
REMARK    5  A    between atoms: C1_8  and  C8_15 
REMARK    6  A    between atoms: C2_9  and  C7_14 
ROOT
HETATM    1  C1  UNK     1      33.973  -7.217  34.540  1.00  0.00     0.200 C 
ENDROOT
BRANCH   1   2
HETATM    2  N1  UNK     1      34.815  -8.045  33.714  1.00  0.00    -0.265 N 
HETATM    3  C3  UNK     1      34.369  -8.736  32.602  1.00  0.00     0.262 A 
HETATM    4  O2  UNK     1      33.254  -8.798  32.117  1.00  0.00    -0.267 OA
HETATM    5  C5  UNK     1      35.538  -9.429  32.063  1.00  0.00     0.048 A 
HETATM    6  C6  UNK     1      36.625  -9.130  32.872  1.00  0.00     0.048 A 
HETATM    7  C9  UNK     1      35.652 -10.253  30.963  1.00  0.00     0.018 A 
HETATM    8  C10 UNK     1      37.883  -9.640  32.622  1.00  0.00     0.018 A 
HETATM    9  C4  UNK     1      36.166  -8.242  33.939  1.00  0.00     0.262 A 
HETATM   10  C14 UNK     1      38.022 -10.477  31.512  1.00  0.00     0.001 A 
HETATM   11  C13 UNK     1      36.917 -10.781  30.690  1.00  0.00     0.001 A 
HETATM   12  O3  UNK     1      36.887  -7.802  34.816  1.00  0.00    -0.267 OA
ENDBRANCH   1   2
BRANCH   1  13
HETATM   13  C2  UNK     1      34.232  -7.471  36.032  1.00  0.00     0.074 C 
BRANCH  13  14
HETATM   14  C7  UNK     1      33.057  -8.055  36.785  1.00  0.00    -0.056 A 
HETATM   15  C11 UNK     1      32.738  -7.554  38.036  1.00  0.00     0.007 A 
HETATM   16  C19 UNK     1      31.655  -8.092  38.730  1.00  0.00     0.001 A 
HETATM   17  C24 UNK     1      30.907  -9.124  38.164  1.00  0.00     0.000 A 
HETATM   18  C20 UNK     1      31.241  -9.618  36.903  1.00  0.00     0.001 A 
HETATM   19  C12 UNK     1      32.324  -9.080  36.208  1.00  0.00     0.007 A 
ENDBRANCH  13  14
ENDBRANCH   1  13
BRANCH   1  20
HETATM   20  C8  UNK     1      34.087  -5.738  34.190  1.00  0.00     0.288 C 
HETATM   21  O4  UNK     1      35.156  -5.136  34.184  1.00  0.00    -0.262 OA
BRANCH  20  22
HETATM   22  O1  UNK     1      32.842  -5.150  33.911  1.00  0.00    -0.277 OA
BRANCH  22  23
HETATM   23  C15 UNK     1      31.993  -5.096  34.972  1.00  0.00     0.082 A 
HETATM   24  C18 UNK     1      30.866  -5.912  35.006  1.00  0.00     0.075 A 
HETATM   25  C17 UNK     1      30.008  -5.841  36.105  1.00  0.00     0.092 A 
HETATM   26  C16 UNK     1      30.239  -4.977  37.177  1.00  0.00     0.004 A 
HETATM   27  O5  UNK     1      28.884  -6.691  36.083  1.00  0.00    -0.275 OA
HETATM   28  C22 UNK     1      31.378  -4.165  37.123  1.00  0.00     0.017 A 
HETATM   29  C23 UNK     1      29.283  -4.969  38.292  1.00  0.00    -0.043 A 
HETATM   30  C21 UNK     1      32.248  -4.225  36.028  1.00  0.00     0.038 A 
HETATM   31  C25 UNK     1      28.223  -5.789  38.244  1.00  0.00     0.090 A 
HETATM   32  C26 UNK     1      29.502  -4.053  39.460  1.00  0.00     0.049 C 
HETATM   33  C27 UNK     1      27.965  -6.706  37.121  1.00  0.00     0.288 A 
HETATM   34  O6  UNK     1      26.985  -7.441  37.113  1.00  0.00    -0.260 OA
ENDBRANCH  22  23
ENDBRANCH  20  22
ENDBRANCH   1  20
TORSDOF 6
ENDMDL
MODEL 6
REMARK VINA RESULT:      -9.5      8.608     12.308
REMARK  6 active torsions:
REMARK  status: ('A' for Active; 'I' for Inactive)
REMARK    1  A    between atoms: C15_22  and  O1_1 
REMARK    2  A    between atoms: C8_15  and  O1_1 
REMARK    3  A    between atoms: C1_8  and  N1_7 
REMARK    4  A    between atoms: C1_8  and  C2_9 
REMARK    5  A    between atoms: C1_8  and  C8_15 
REMARK    6  A    between atoms: C2_9  and  C7_14 
ROOT
HETATM    1  C1  UNK     1      27.377  -8.325  37.867  1.00  0.00     0.200 C 
ENDROOT
BRANCH   1   2
HETATM    2  N1  UNK     1      26.066  -8.802  37.507  1.00  0.00    -0.265 N 
HETATM    3  C3  UNK     1      24.886  -8.226  37.942  1.00  0.00     0.262 A 
HETATM    4  O2  UNK     1      24.708  -7.269  38.673  1.00  0.00    -0.267 OA
HETATM    5  C5  UNK     1      23.810  -9.009  37.337  1.00  0.00     0.048 A 
HETATM    6  C6  UNK     1      24.386 -10.016  36.576  1.00  0.00     0.048 A 
HETATM    7  C9  UNK     1      22.442  -8.864  37.439  1.00  0.00     0.018 A 
HETATM    8  C10 UNK     1      23.623 -10.929  35.877  1.00  0.00     0.018 A 
HETATM    9  C4  UNK     1      25.839  -9.891  36.683  1.00  0.00     0.262 A 
HETATM   10  C14 UNK     1      22.235 -10.800  35.964  1.00  0.00     0.001 A 
HETATM   11  C13 UNK     1      21.649  -9.777  36.738  1.00  0.00     0.001 A 
HETATM   12  O3  UNK     1      26.629 -10.632  36.129  1.00  0.00    -0.267 OA
ENDBRANCH   1   2
BRANCH   1  13
HETATM   13  C2  UNK     1      27.358  -6.822  38.180  1.00  0.00     0.074 C 
BRANCH  13  14
HETATM   14  C7  UNK     1      28.646  -6.096  37.863  1.00  0.00    -0.056 A 
HETATM   15  C11 UNK     1      29.289  -5.389  38.865  1.00  0.00     0.007 A 
HETATM   16  C19 UNK     1      30.476  -4.719  38.573  1.00  0.00     0.001 A 
HETATM   17  C24 UNK     1      31.005  -4.765  37.283  1.00  0.00     0.000 A 
HETATM   18  C20 UNK     1      30.344  -5.482  36.285  1.00  0.00     0.001 A 
HETATM   19  C12 UNK     1      29.157  -6.152  36.576  1.00  0.00     0.007 A 
ENDBRANCH  13  14
ENDBRANCH   1  13
BRANCH   1  20
HETATM   20  C8  UNK     1      27.999  -9.131  39.002  1.00  0.00     0.288 C 
HETATM   21  O4  UNK     1      27.693  -8.967  40.179  1.00  0.00    -0.262 OA
BRANCH  20  22
HETATM   22  O1  UNK     1      28.966 -10.045  38.552  1.00  0.00    -0.277 OA
BRANCH  22  23
HETATM   23  C15 UNK     1      30.085  -9.471  38.033  1.00  0.00     0.082 A 
HETATM   24  C18 UNK     1      30.392  -9.632  36.686  1.00  0.00     0.075 A 
HETATM   25  C17 UNK     1      31.545  -9.034  36.175  1.00  0.00     0.092 A 
HETATM   26  C16 UNK     1      32.408  -8.277  36.969  1.00  0.00     0.004 A 
HETATM   27  O5  UNK     1      31.804  -9.232  34.803  1.00  0.00    -0.275 OA
HETATM   28  C22 UNK     1      32.081  -8.127  38.323  1.00  0.00     0.017 A 
HETATM   29  C23 UNK     1      33.599  -7.684  36.347  1.00  0.00    -0.043 A 
HETATM   30  C21 UNK     1      30.928  -8.720  38.850  1.00  0.00     0.038 A 
HETATM   31  C25 UNK     1      33.819  -7.889  35.040  1.00  0.00     0.090 A 
HETATM   32  C26 UNK     1      34.546  -6.864  37.173  1.00  0.00     0.049 C 
HETATM   33  C27 UNK     1      32.919  -8.685  34.189  1.00  0.00     0.288 A 
HETATM   34  O6  UNK     1      33.153  -8.850  32.997  1.00  0.00    -0.260 OA
ENDBRANCH  22  23
ENDBRANCH  20  22
ENDBRANCH   1  20
TORSDOF 6
ENDMDL
MODEL 7
REMARK VINA RESULT:      -9.4     10.520     12.891
REMARK  6 active torsions:
REMARK  status: ('A' for Active; 'I' for Inactive)
REMARK    1  A    between atoms: C15_22  and  O1_1 
REMARK    2  A    between atoms: C8_15  and  O1_1 
REMARK    3  A    between atoms: C1_8  and  N1_7 
REMARK    4  A    between atoms: C1_8  and  C2_9 
REMARK    5  A    between atoms: C1_8  and  C8_15 
REMARK    6  A    between atoms: C2_9  and  C7_14 
ROOT
HETATM    1  C1  UNK     1      30.276  -7.253  34.718  1.00  0.00     0.200 C 
ENDROOT
BRANCH   1   2
HETATM    2  N1  UNK     1      29.649  -7.592  35.970  1.00  0.00    -0.265 N 
HETATM    3  C3  UNK     1      29.274  -6.663  36.925  1.00  0.00     0.262 A 
HETATM    4  O2  UNK     1      29.388  -5.451  36.920  1.00  0.00    -0.267 OA
HETATM    5  C5  UNK     1      28.675  -7.428  38.017  1.00  0.00     0.048 A 
HETATM    6  C6  UNK     1      28.722  -8.772  37.676  1.00  0.00     0.048 A 
HETATM    7  C9  UNK     1      28.136  -6.996  39.211  1.00  0.00     0.018 A 
HETATM    8  C10 UNK     1      28.229  -9.754  38.511  1.00  0.00     0.018 A 
HETATM    9  C4  UNK     1      29.351  -8.885  36.361  1.00  0.00     0.262 A 
HETATM   10  C14 UNK     1      27.677  -9.340  39.726  1.00  0.00     0.001 A 
HETATM   11  C13 UNK     1      27.630  -7.974  40.073  1.00  0.00     0.001 A 
HETATM   12  O3  UNK     1      29.539  -9.941  35.785  1.00  0.00    -0.267 OA
ENDBRANCH   1   2
BRANCH   1  13
HETATM   13  C2  UNK     1      29.503  -6.146  33.988  1.00  0.00     0.074 C 
BRANCH  13  14
HETATM   14  C7  UNK     1      28.980  -6.537  32.624  1.00  0.00    -0.056 A 
HETATM   15  C11 UNK     1      28.438  -7.798  32.442  1.00  0.00     0.007 A 
HETATM   16  C19 UNK     1      27.957  -8.158  31.184  1.00  0.00     0.001 A 
HETATM   17  C24 UNK     1      28.024  -7.253  30.125  1.00  0.00     0.000 A 
HETATM   18  C20 UNK     1      28.572  -5.986  30.325  1.00  0.00     0.001 A 
HETATM   19  C12 UNK     1      29.054  -5.625  31.583  1.00  0.00     0.007 A 
ENDBRANCH  13  14
ENDBRANCH   1  13
BRANCH   1  20
HETATM   20  C8  UNK     1      31.750  -6.900  34.881  1.00  0.00     0.288 C 
HETATM   21  O4  UNK     1      32.131  -5.866  35.421  1.00  0.00    -0.262 OA
BRANCH  20  22
HETATM   22  O1  UNK     1      32.604  -7.867  34.324  1.00  0.00    -0.277 OA
BRANCH  22  23
HETATM   23  C15 UNK     1      32.241  -8.292  33.084  1.00  0.00     0.082 A 
HETATM   24  C18 UNK     1      31.727  -9.573  32.908  1.00  0.00     0.075 A 
HETATM   25  C17 UNK     1      31.360  -9.989  31.627  1.00  0.00     0.092 A 
HETATM   26  C16 UNK     1      31.491  -9.164  30.509  1.00  0.00     0.004 A 
HETATM   27  O5  UNK     1      30.846 -11.296  31.511  1.00  0.00    -0.275 OA
HETATM   28  C22 UNK     1      32.010  -7.878  30.708  1.00  0.00     0.017 A 
HETATM   29  C23 UNK     1      31.079  -9.683  29.198  1.00  0.00    -0.043 A 
HETATM   30  C21 UNK     1      32.381  -7.446  31.986  1.00  0.00     0.038 A 
HETATM   31  C25 UNK     1      30.594 -10.931  29.118  1.00  0.00     0.090 A 
HETATM   32  C26 UNK     1      31.206  -8.821  27.976  1.00  0.00     0.049 C 
HETATM   33  C27 UNK     1      30.450 -11.814  30.288  1.00  0.00     0.288 A 
HETATM   34  O6  UNK     1      30.001 -12.949  30.175  1.00  0.00    -0.260 OA
ENDBRANCH  22  23
ENDBRANCH  20  22
ENDBRANCH   1  20
TORSDOF 6
ENDMDL
MODEL 8
REMARK VINA RESULT:      -9.4      8.481     11.379
REMARK  6 active torsions:
REMARK  status: ('A' for Active; 'I' for Inactive)
REMARK    1  A    between atoms: C15_22  and  O1_1 
REMARK    2  A    between atoms: C8_15  and  O1_1 
REMARK    3  A    between atoms: C1_8  and  N1_7 
REMARK    4  A    between atoms: C1_8  and  C2_9 
REMARK    5  A    between atoms: C1_8  and  C8_15 
REMARK    6  A    between atoms: C2_9  and  C7_14 
ROOT
HETATM    1  C1  UNK     1      28.182  -7.840  38.697  1.00  0.00     0.200 C 
ENDROOT
BRANCH   1   2
HETATM    2  N1  UNK     1      28.538  -8.288  37.375  1.00  0.00    -0.265 N 
HETATM    3  C3  UNK     1      29.463  -9.286  37.118  1.00  0.00     0.262 A 
HETATM    4  O2  UNK     1      30.130  -9.948  37.891  1.00  0.00    -0.267 OA
HETATM    5  C5  UNK     1      29.509  -9.426  35.664  1.00  0.00     0.048 A 
HETATM    6  C6  UNK     1      28.623  -8.511  35.115  1.00  0.00     0.048 A 
HETATM    7  C9  UNK     1      30.260 -10.276  34.878  1.00  0.00     0.018 A 
HETATM    8  C10 UNK     1      28.441  -8.399  33.752  1.00  0.00     0.018 A 
HETATM    9  C4  UNK     1      27.997  -7.772  36.211  1.00  0.00     0.262 A 
HETATM   10  C14 UNK     1      29.191  -9.251  32.936  1.00  0.00     0.001 A 
HETATM   11  C13 UNK     1      30.092 -10.181  33.494  1.00  0.00     0.001 A 
HETATM   12  O3  UNK     1      27.170  -6.893  36.054  1.00  0.00    -0.267 OA
ENDBRANCH   1   2
BRANCH   1  13
HETATM   13  C2  UNK     1      28.295  -6.314  38.818  1.00  0.00     0.074 C 
BRANCH  13  14
HETATM   14  C7  UNK     1      29.635  -5.747  38.406  1.00  0.00    -0.056 A 
HETATM   15  C11 UNK     1      29.682  -4.530  37.746  1.00  0.00     0.007 A 
HETATM   16  C19 UNK     1      30.917  -4.007  37.366  1.00  0.00     0.001 A 
HETATM   17  C24 UNK     1      32.089  -4.708  37.650  1.00  0.00     0.000 A 
HETATM   18  C20 UNK     1      32.025  -5.932  38.315  1.00  0.00     0.001 A 
HETATM   19  C12 UNK     1      30.789  -6.456  38.696  1.00  0.00     0.007 A 
ENDBRANCH  13  14
ENDBRANCH   1  13
BRANCH   1  20
HETATM   20  C8  UNK     1      26.810  -8.341  39.132  1.00  0.00     0.288 C 
HETATM   21  O4  UNK     1      26.619  -9.481  39.545  1.00  0.00    -0.262 OA
BRANCH  20  22
HETATM   22  O1  UNK     1      25.805  -7.372  38.980  1.00  0.00    -0.277 OA
BRANCH  22  23
HETATM   23  C15 UNK     1      24.582  -7.873  38.660  1.00  0.00     0.082 A 
HETATM   24  C18 UNK     1      24.392  -8.532  37.449  1.00  0.00     0.075 A 
HETATM   25  C17 UNK     1      23.129  -9.039  37.141  1.00  0.00     0.092 A 
HETATM   26  C16 UNK     1      22.042  -8.909  38.006  1.00  0.00     0.004 A 
HETATM   27  O5  UNK     1      22.998  -9.696  35.900  1.00  0.00    -0.275 OA
HETATM   28  C22 UNK     1      22.253  -8.243  39.220  1.00  0.00     0.017 A 
HETATM   29  C23 UNK     1      20.748  -9.474  37.601  1.00  0.00    -0.043 A 
HETATM   30  C21 UNK     1      23.514  -7.730  39.544  1.00  0.00     0.038 A 
HETATM   31  C25 UNK     1      20.653 -10.094  36.415  1.00  0.00     0.090 A 
HETATM   32  C26 UNK     1      19.559  -9.352  38.508  1.00  0.00     0.049 C 
HETATM   33  C27 UNK     1      21.790 -10.239  35.491  1.00  0.00     0.288 A 
HETATM   34  O6  UNK     1      21.666 -10.813  34.415  1.00  0.00    -0.260 OA
ENDBRANCH  22  23
ENDBRANCH  20  22
ENDBRANCH   1  20
TORSDOF 6
ENDMDL
MODEL 9
REMARK VINA RESULT:      -9.4     10.544     12.947
REMARK  6 active torsions:
REMARK  status: ('A' for Active; 'I' for Inactive)
REMARK    1  A    between atoms: C15_22  and  O1_1 
REMARK    2  A    between atoms: C8_15  and  O1_1 
REMARK    3  A    between atoms: C1_8  and  N1_7 
REMARK    4  A    between atoms: C1_8  and  C2_9 
REMARK    5  A    between atoms: C1_8  and  C8_15 
REMARK    6  A    between atoms: C2_9  and  C7_14 
ROOT
HETATM    1  C1  UNK     1      30.371  -7.228  34.711  1.00  0.00     0.200 C 
ENDROOT
BRANCH   1   2
HETATM    2  N1  UNK     1      29.713  -7.550  35.952  1.00  0.00    -0.265 N 
HETATM    3  C3  UNK     1      29.358  -8.833  36.330  1.00  0.00     0.262 A 
HETATM    4  O2  UNK     1      29.507  -9.888  35.743  1.00  0.00    -0.267 OA
HETATM    5  C5  UNK     1      28.733  -8.705  37.645  1.00  0.00     0.048 A 
HETATM    6  C6  UNK     1      28.733  -7.362  37.994  1.00  0.00     0.048 A 
HETATM    7  C9  UNK     1      28.203  -9.674  38.473  1.00  0.00     0.018 A 
HETATM    8  C10 UNK     1      28.205  -6.919  39.189  1.00  0.00     0.018 A 
HETATM    9  C4  UNK     1      29.360  -6.612  36.906  1.00  0.00     0.262 A 
HETATM   10  C14 UNK     1      27.664  -7.882  40.044  1.00  0.00     0.001 A 
HETATM   11  C13 UNK     1      27.663  -9.247  39.690  1.00  0.00     0.001 A 
HETATM   12  O3  UNK     1      29.509  -5.404  36.911  1.00  0.00    -0.267 OA
ENDBRANCH   1   2
BRANCH   1  13
HETATM   13  C2  UNK     1      29.633  -6.110  33.961  1.00  0.00     0.074 C 
BRANCH  13  14
HETATM   14  C7  UNK     1      29.059  -6.520  32.624  1.00  0.00    -0.056 A 
HETATM   15  C11 UNK     1      28.516  -7.786  32.479  1.00  0.00     0.007 A 
HETATM   16  C19 UNK     1      27.988  -8.165  31.246  1.00  0.00     0.001 A 
HETATM   17  C24 UNK     1      28.010  -7.273  30.174  1.00  0.00     0.000 A 
HETATM   18  C20 UNK     1      28.561  -6.002  30.336  1.00  0.00     0.001 A 
HETATM   19  C12 UNK     1      29.090  -5.623  31.569  1.00  0.00     0.007 A 
ENDBRANCH  13  14
ENDBRANCH   1  13
BRANCH   1  20
HETATM   20  C8  UNK     1      31.848  -6.901  34.903  1.00  0.00     0.288 C 
HETATM   21  O4  UNK     1      32.236  -5.888  35.476  1.00  0.00    -0.262 OA
BRANCH  20  22
HETATM   22  O1  UNK     1      32.694  -7.865  34.331  1.00  0.00    -0.277 OA
BRANCH  22  23
HETATM   23  C15 UNK     1      32.315  -8.286  33.094  1.00  0.00     0.082 A 
HETATM   24  C18 UNK     1      31.794  -9.564  32.921  1.00  0.00     0.075 A 
HETATM   25  C17 UNK     1      31.411  -9.976  31.644  1.00  0.00     0.092 A 
HETATM   26  C16 UNK     1      31.531  -9.149  30.526  1.00  0.00     0.004 A 
HETATM   27  O5  UNK     1      30.889 -11.281  31.531  1.00  0.00    -0.275 OA
HETATM   28  C22 UNK     1      32.058  -7.865  30.721  1.00  0.00     0.017 A 
HETATM   29  C23 UNK     1      31.102  -9.664  29.219  1.00  0.00    -0.043 A 
HETATM   30  C21 UNK     1      32.446  -7.438  31.996  1.00  0.00     0.038 A 
HETATM   31  C25 UNK     1      30.610 -10.909  29.143  1.00  0.00     0.090 A 
HETATM   32  C26 UNK     1      31.218  -8.799  27.998  1.00  0.00     0.049 C 
HETATM   33  C27 UNK     1      30.477 -11.794  30.311  1.00  0.00     0.288 A 
HETATM   34  O6  UNK     1      30.022 -12.927  30.202  1.00  0.00    -0.260 OA
ENDBRANCH  22  23
ENDBRANCH  20  22
ENDBRANCH   1  20
TORSDOF 6
ENDMDL
MODEL 10
REMARK VINA RESULT:      -9.3      8.613     12.358
REMARK  6 active torsions:
REMARK  status: ('A' for Active; 'I' for Inactive)
REMARK    1  A    between atoms: C15_22  and  O1_1 
REMARK    2  A    between atoms: C8_15  and  O1_1 
REMARK    3  A    between atoms: C1_8  and  N1_7 
REMARK    4  A    between atoms: C1_8  and  C2_9 
REMARK    5  A    between atoms: C1_8  and  C8_15 
REMARK    6  A    between atoms: C2_9  and  C7_14 
ROOT
HETATM    1  C1  UNK     1      27.496  -8.371  37.777  1.00  0.00     0.200 C 
ENDROOT
BRANCH   1   2
HETATM    2  N1  UNK     1      26.157  -8.804  37.466  1.00  0.00    -0.265 N 
HETATM    3  C3  UNK     1      25.862  -9.888  36.658  1.00  0.00     0.262 A 
HETATM    4  O2  UNK     1      26.609 -10.652  36.075  1.00  0.00    -0.267 OA
HETATM    5  C5  UNK     1      24.404  -9.975  36.619  1.00  0.00     0.048 A 
HETATM    6  C6  UNK     1      23.891  -8.944  37.393  1.00  0.00     0.048 A 
HETATM    7  C9  UNK     1      23.585 -10.872  35.964  1.00  0.00     0.018 A 
HETATM    8  C10 UNK     1      22.532  -8.757  37.553  1.00  0.00     0.018 A 
HETATM    9  C4  UNK     1      25.014  -8.184  37.938  1.00  0.00     0.262 A 
HETATM   10  C14 UNK     1      21.684  -9.655  36.899  1.00  0.00     0.001 A 
HETATM   11  C13 UNK     1      22.206 -10.703  36.112  1.00  0.00     0.001 A 
HETATM   12  O3  UNK     1      24.892  -7.211  38.660  1.00  0.00    -0.267 OA
ENDBRANCH   1   2
BRANCH   1  13
HETATM   13  C2  UNK     1      27.594  -6.840  37.809  1.00  0.00     0.074 C 
BRANCH  13  14
HETATM   14  C7  UNK     1      28.794  -6.270  37.085  1.00  0.00    -0.056 A 
HETATM   15  C11 UNK     1      29.602  -5.350  37.733  1.00  0.00     0.007 A 
HETATM   16  C19 UNK     1      30.707  -4.825  37.066  1.00  0.00     0.001 A 
HETATM   17  C24 UNK     1      30.990  -5.225  35.760  1.00  0.00     0.000 A 
HETATM   18  C20 UNK     1      30.166  -6.152  35.122  1.00  0.00     0.001 A 
HETATM   19  C12 UNK     1      29.060  -6.678  35.789  1.00  0.00     0.007 A 
ENDBRANCH  13  14
ENDBRANCH   1  13
BRANCH   1  20
HETATM   20  C8  UNK     1      28.027  -8.999  39.061  1.00  0.00     0.288 C 
HETATM   21  O4  UNK     1      27.661  -8.642  40.176  1.00  0.00    -0.262 OA
BRANCH  20  22
HETATM   22  O1  UNK     1      28.989  -9.994  38.820  1.00  0.00    -0.277 OA
BRANCH  22  23
HETATM   23  C15 UNK     1      30.018  -9.602  38.022  1.00  0.00     0.082 A 
HETATM   24  C18 UNK     1      30.943  -8.671  38.482  1.00  0.00     0.075 A 
HETATM   25  C17 UNK     1      31.992  -8.282  37.647  1.00  0.00     0.092 A 
HETATM   26  C16 UNK     1      32.149  -8.796  36.359  1.00  0.00     0.004 A 
HETATM   27  O5  UNK     1      32.897  -7.336  38.169  1.00  0.00    -0.275 OA
HETATM   28  C22 UNK     1      31.208  -9.733  35.914  1.00  0.00     0.017 A 
HETATM   29  C23 UNK     1      33.283  -8.332  35.549  1.00  0.00    -0.043 A 
HETATM   30  C21 UNK     1      30.151 -10.133  36.740  1.00  0.00     0.038 A 
HETATM   31  C25 UNK     1      34.128  -7.431  36.072  1.00  0.00     0.090 A 
HETATM   32  C26 UNK     1      33.480  -8.865  34.161  1.00  0.00     0.049 C 
HETATM   33  C27 UNK     1      33.976  -6.879  37.429  1.00  0.00     0.288 A 
HETATM   34  O6  UNK     1      34.769  -6.056  37.873  1.00  0.00    -0.260 OA
ENDBRANCH  22  23
ENDBRANCH  20  22
ENDBRANCH   1  20
TORSDOF 6
ENDMDL
