MODEL 1
REMARK VINA RESULT:      -8.1      0.000      0.000
REMARK  4 active torsions:
REMARK  status: ('A' for Active; 'I' for Inactive)
REMARK    1  A    between atoms: C2_9  and  N1_5 
REMARK       I    between atoms: C6_13  and  N1_5 
REMARK    2  A    between atoms: C5_12  and  N2_6 
REMARK    3  A    between atoms: C1_8  and  C2_9 
REMARK    4  A    between atoms: C6_13  and  C7_14 
ROOT
HETATM    1  O2  UNK     1      19.778   7.172  34.187  1.00  0.00    -0.267 OA
HETATM    2  N1  UNK     1      18.748   6.915  32.114  1.00  0.00    -0.348 N 
HETATM    3  C6  UNK     1      18.863   7.446  33.403  1.00  0.00     0.259 C 
HETATM    4  C8  UNK     1      17.648   7.268  31.222  1.00  0.00     0.153 C 
ENDROOT
BRANCH   3   5
HETATM    5  C7  UNK     1      17.818   8.375  33.850  1.00  0.00     0.108 A 
HETATM    6  C11 UNK     1      18.110   9.678  33.766  1.00  0.00     0.037 A 
HETATM    7  C10 UNK     1      17.139  10.676  34.186  1.00  0.00     0.000 A 
HETATM    8  C13 UNK     1      15.907  10.252  34.674  1.00  0.00     0.089 A 
HETATM    9  C15 UNK     1      17.400  12.046  34.117  1.00  0.00     0.033 A 
HETATM   10  O1  UNK     1      15.605   8.879  34.759  1.00  0.00    -0.274 OA
HETATM   11  C16 UNK     1      14.933  11.156  35.093  1.00  0.00     0.039 A 
HETATM   12  C14 UNK     1      16.514   7.900  34.366  1.00  0.00     0.304 A 
HETATM   13  O3  UNK     1      16.243   6.708  34.444  1.00  0.00    -0.259 OA
HETATM   14  C18 UNK     1      15.202  12.521  35.020  1.00  0.00     0.022 A 
HETATM   15  C17 UNK     1      16.433  12.965  34.533  1.00  0.00     0.011 A 
HETATM   16 Br1  UNK     1      16.792  14.820  34.437  1.00  0.00    -0.051 Br
ENDBRANCH   3   5
BRANCH   2  17
HETATM   17  C2  UNK     1      19.721   5.973  31.574  1.00  0.00     0.167 C 
BRANCH  17  18
HETATM   18  C1  UNK     1      19.036   4.701  31.208  1.00  0.00     0.003 A 
HETATM   19  C3  UNK     1      18.358   3.823  32.057  1.00  0.00     0.060 A 
HETATM   20  N3  UNK     1      17.859   2.773  31.401  1.00  0.00    -0.177 NA
HETATM   21  C9  UNK     1      18.153   3.934  33.513  1.00  0.00     0.073 C 
HETATM   22  N2  UNK     1      18.230   3.002  30.129  1.00  0.00    -0.281 N 
HETATM   23  C4  UNK     1      18.943   4.154  29.964  1.00  0.00     0.123 A 
BRANCH  22  24
HETATM   24  C5  UNK     1      17.865   2.065  29.095  1.00  0.00     0.146 C 
HETATM   25  C12 UNK     1      18.888   0.952  28.940  1.00  0.00     0.028 C 
ENDBRANCH  22  24
ENDBRANCH  17  18
ENDBRANCH   2  17
TORSDOF 4
ENDMDL
MODEL 2
REMARK VINA RESULT:      -8.0     17.186     20.229
REMARK  4 active torsions:
REMARK  status: ('A' for Active; 'I' for Inactive)
REMARK    1  A    between atoms: C2_9  and  N1_5 
REMARK       I    between atoms: C6_13  and  N1_5 
REMARK    2  A    between atoms: C5_12  and  N2_6 
REMARK    3  A    between atoms: C1_8  and  C2_9 
REMARK    4  A    between atoms: C6_13  and  C7_14 
ROOT
HETATM    1  O2  UNK     1      17.859  -3.636  14.001  1.00  0.00    -0.267 OA
HETATM    2  N1  UNK     1      19.779  -4.239  15.172  1.00  0.00    -0.348 N 
HETATM    3  C6  UNK     1      18.816  -3.331  14.721  1.00  0.00     0.259 C 
HETATM    4  C8  UNK     1      20.895  -3.832  16.022  1.00  0.00     0.153 C 
ENDROOT
BRANCH   3   5
HETATM    5  C7  UNK     1      18.968  -1.926  15.117  1.00  0.00     0.108 A 
HETATM    6  C11 UNK     1      18.766  -1.652  16.411  1.00  0.00     0.037 A 
HETATM    7  C10 UNK     1      18.893  -0.288  16.901  1.00  0.00     0.000 A 
HETATM    8  C13 UNK     1      19.228   0.720  16.004  1.00  0.00     0.089 A 
HETATM    9  C15 UNK     1      18.690   0.044  18.243  1.00  0.00     0.033 A 
HETATM   10  O1  UNK     1      19.441   0.425  14.643  1.00  0.00    -0.274 OA
HETATM   11  C16 UNK     1      19.366   2.047  16.408  1.00  0.00     0.039 A 
HETATM   12  C14 UNK     1      19.326  -0.869  14.144  1.00  0.00     0.304 A 
HETATM   13  O3  UNK     1      19.512  -1.116  12.959  1.00  0.00    -0.259 OA
HETATM   14  C18 UNK     1      19.161   2.369  17.748  1.00  0.00     0.022 A 
HETATM   15  C17 UNK     1      18.825   1.370  18.663  1.00  0.00     0.011 A 
HETATM   16 Br1  UNK     1      18.549   1.814  20.481  1.00  0.00    -0.051 Br
ENDBRANCH   3   5
BRANCH   2  17
HETATM   17  C2  UNK     1      19.734  -5.655  14.826  1.00  0.00     0.167 C 
BRANCH  17  18
HETATM   18  C1  UNK     1      18.376  -6.196  15.114  1.00  0.00     0.003 A 
HETATM   19  C3  UNK     1      17.504  -6.828  14.224  1.00  0.00     0.060 A 
HETATM   20  N3  UNK     1      16.362  -7.192  14.811  1.00  0.00    -0.177 NA
HETATM   21  C9  UNK     1      17.707  -7.114  12.792  1.00  0.00     0.073 C 
HETATM   22  N2  UNK     1      16.526  -6.782  16.081  1.00  0.00    -0.281 N 
HETATM   23  C4  UNK     1      17.726  -6.175  16.312  1.00  0.00     0.123 A 
BRANCH  22  24
HETATM   24  C5  UNK     1      15.479  -7.004  17.049  1.00  0.00     0.146 C 
HETATM   25  C12 UNK     1      15.943  -6.733  18.470  1.00  0.00     0.028 C 
ENDBRANCH  22  24
ENDBRANCH  17  18
ENDBRANCH   2  17
TORSDOF 4
ENDMDL
MODEL 3
REMARK VINA RESULT:      -7.9     16.752     20.714
REMARK  4 active torsions:
REMARK  status: ('A' for Active; 'I' for Inactive)
REMARK    1  A    between atoms: C2_9  and  N1_5 
REMARK       I    between atoms: C6_13  and  N1_5 
REMARK    2  A    between atoms: C5_12  and  N2_6 
REMARK    3  A    between atoms: C1_8  and  C2_9 
REMARK    4  A    between atoms: C6_13  and  C7_14 
ROOT
HETATM    1  O2  UNK     1      17.569  -3.449  15.047  1.00  0.00    -0.267 OA
HETATM    2  N1  UNK     1      19.875  -3.759  14.951  1.00  0.00    -0.348 N 
HETATM    3  C6  UNK     1      18.717  -3.008  15.172  1.00  0.00     0.259 C 
HETATM    4  C8  UNK     1      21.212  -3.194  15.110  1.00  0.00     0.153 C 
ENDROOT
BRANCH   3   5
HETATM    5  C7  UNK     1      18.883  -1.602  15.560  1.00  0.00     0.108 A 
HETATM    6  C11 UNK     1      18.834  -1.341  16.871  1.00  0.00     0.037 A 
HETATM    7  C10 UNK     1      18.988   0.022  17.355  1.00  0.00     0.000 A 
HETATM    8  C13 UNK     1      19.187   1.045  16.432  1.00  0.00     0.089 A 
HETATM    9  C15 UNK     1      18.944   0.341  18.714  1.00  0.00     0.033 A 
HETATM   10  O1  UNK     1      19.237   0.764  15.053  1.00  0.00    -0.274 OA
HETATM   11  C16 UNK     1      19.341   2.371  16.828  1.00  0.00     0.039 A 
HETATM   12  C14 UNK     1      19.092  -0.530  14.560  1.00  0.00     0.304 A 
HETATM   13  O3  UNK     1      19.138  -0.765  13.358  1.00  0.00    -0.259 OA
HETATM   14  C18 UNK     1      19.295   2.680  18.186  1.00  0.00     0.022 A 
HETATM   15  C17 UNK     1      19.098   1.667  19.127  1.00  0.00     0.011 A 
HETATM   16 Br1  UNK     1      19.037   2.093  20.969  1.00  0.00    -0.051 Br
ENDBRANCH   3   5
BRANCH   2  17
HETATM   17  C2  UNK     1      19.827  -5.160  14.548  1.00  0.00     0.167 C 
BRANCH  17  18
HETATM   18  C1  UNK     1      19.367  -5.257  13.134  1.00  0.00     0.003 A 
HETATM   19  C3  UNK     1      18.313  -6.025  12.631  1.00  0.00     0.060 A 
HETATM   20  N3  UNK     1      18.171  -5.881  11.311  1.00  0.00    -0.177 NA
HETATM   21  C9  UNK     1      17.402  -6.921  13.366  1.00  0.00     0.073 C 
HETATM   22  N2  UNK     1      19.147  -5.013  10.992  1.00  0.00    -0.281 N 
HETATM   23  C4  UNK     1      19.895  -4.609  12.058  1.00  0.00     0.123 A 
BRANCH  22  24
HETATM   24  C5  UNK     1      19.317  -4.598   9.620  1.00  0.00     0.146 C 
HETATM   25  C12 UNK     1      19.937  -3.215   9.510  1.00  0.00     0.028 C 
ENDBRANCH  22  24
ENDBRANCH  17  18
ENDBRANCH   2  17
TORSDOF 4
ENDMDL
MODEL 4
REMARK VINA RESULT:      -7.7     23.464     24.875
REMARK  4 active torsions:
REMARK  status: ('A' for Active; 'I' for Inactive)
REMARK    1  A    between atoms: C2_9  and  N1_5 
REMARK       I    between atoms: C6_13  and  N1_5 
REMARK    2  A    between atoms: C5_12  and  N2_6 
REMARK    3  A    between atoms: C1_8  and  C2_9 
REMARK    4  A    between atoms: C6_13  and  C7_14 
ROOT
HETATM    1  O2  UNK     1      11.235   7.671   6.936  1.00  0.00    -0.267 OA
HETATM    2  N1  UNK     1      11.730   5.946   8.421  1.00  0.00    -0.348 N 
HETATM    3  C6  UNK     1      10.903   6.929   7.867  1.00  0.00     0.259 C 
HETATM    4  C8  UNK     1      11.295   5.092   9.522  1.00  0.00     0.153 C 
ENDROOT
BRANCH   3   5
HETATM    5  C7  UNK     1       9.564   7.094   8.445  1.00  0.00     0.108 A 
HETATM    6  C11 UNK     1       9.428   8.069   9.351  1.00  0.00     0.037 A 
HETATM    7  C10 UNK     1       8.139   8.310   9.981  1.00  0.00     0.000 A 
HETATM    8  C13 UNK     1       7.056   7.514   9.623  1.00  0.00     0.089 A 
HETATM    9  C15 UNK     1       7.950   9.316  10.932  1.00  0.00     0.033 A 
HETATM   10  O1  UNK     1       7.206   6.490   8.668  1.00  0.00    -0.274 OA
HETATM   11  C16 UNK     1       5.795   7.692  10.189  1.00  0.00     0.039 A 
HETATM   12  C14 UNK     1       8.426   6.234   8.049  1.00  0.00     0.304 A 
HETATM   13  O3  UNK     1       8.547   5.340   7.219  1.00  0.00    -0.259 OA
HETATM   14  C18 UNK     1       5.616   8.697  11.137  1.00  0.00     0.022 A 
HETATM   15  C17 UNK     1       6.691   9.508  11.507  1.00  0.00     0.011 A 
HETATM   16 Br1  UNK     1       6.442  10.871  12.795  1.00  0.00    -0.051 Br
ENDBRANCH   3   5
BRANCH   2  17
HETATM   17  C2  UNK     1      13.084   5.707   7.935  1.00  0.00     0.167 C 
BRANCH  17  18
HETATM   18  C1  UNK     1      14.060   6.428   8.799  1.00  0.00     0.003 A 
HETATM   19  C3  UNK     1      15.002   5.872   9.669  1.00  0.00     0.060 A 
HETATM   20  N3  UNK     1      15.721   6.807  10.295  1.00  0.00    -0.177 NA
HETATM   21  C9  UNK     1      15.262   4.449   9.947  1.00  0.00     0.073 C 
HETATM   22  N2  UNK     1      15.221   7.956   9.807  1.00  0.00    -0.281 N 
HETATM   23  C4  UNK     1      14.217   7.778   8.901  1.00  0.00     0.123 A 
BRANCH  22  24
HETATM   24  C5  UNK     1      15.758   9.219  10.253  1.00  0.00     0.146 C 
HETATM   25  C12 UNK     1      17.175   9.449   9.756  1.00  0.00     0.028 C 
ENDBRANCH  22  24
ENDBRANCH  17  18
ENDBRANCH   2  17
TORSDOF 4
ENDMDL
MODEL 5
REMARK VINA RESULT:      -7.6     22.601     24.048
REMARK  4 active torsions:
REMARK  status: ('A' for Active; 'I' for Inactive)
REMARK    1  A    between atoms: C2_9  and  N1_5 
REMARK       I    between atoms: C6_13  and  N1_5 
REMARK    2  A    between atoms: C5_12  and  N2_6 
REMARK    3  A    between atoms: C1_8  and  C2_9 
REMARK    4  A    between atoms: C6_13  and  C7_14 
ROOT
HETATM    1  O2  UNK     1      14.528   5.845  10.576  1.00  0.00    -0.267 OA
HETATM    2  N1  UNK     1      13.574   6.725   8.642  1.00  0.00    -0.348 N 
HETATM    3  C6  UNK     1      14.281   6.811   9.846  1.00  0.00     0.259 C 
HETATM    4  C8  UNK     1      13.305   7.895   7.811  1.00  0.00     0.153 C 
ENDROOT
BRANCH   3   5
HETATM    5  C7  UNK     1      14.740   8.139  10.270  1.00  0.00     0.108 A 
HETATM    6  C11 UNK     1      15.935   8.526   9.809  1.00  0.00     0.037 A 
HETATM    7  C10 UNK     1      16.476   9.826  10.174  1.00  0.00     0.000 A 
HETATM    8  C13 UNK     1      15.731  10.655  11.006  1.00  0.00     0.089 A 
HETATM    9  C15 UNK     1      17.719  10.271   9.716  1.00  0.00     0.033 A 
HETATM   10  O1  UNK     1      14.474  10.243  11.487  1.00  0.00    -0.274 OA
HETATM   11  C16 UNK     1      16.192  11.912  11.394  1.00  0.00     0.039 A 
HETATM   12  C14 UNK     1      13.930   9.004  11.156  1.00  0.00     0.304 A 
HETATM   13  O3  UNK     1      12.835   8.654  11.580  1.00  0.00    -0.259 OA
HETATM   14  C18 UNK     1      17.433  12.347  10.933  1.00  0.00     0.022 A 
HETATM   15  C17 UNK     1      18.194  11.530  10.096  1.00  0.00     0.011 A 
HETATM   16 Br1  UNK     1      19.878  12.127   9.474  1.00  0.00    -0.051 Br
ENDBRANCH   3   5
BRANCH   2  17
HETATM   17  C2  UNK     1      13.059   5.459   8.134  1.00  0.00     0.167 C 
BRANCH  17  18
HETATM   18  C1  UNK     1      11.588   5.392   8.357  1.00  0.00     0.003 A 
HETATM   19  C3  UNK     1      10.573   5.716   7.453  1.00  0.00     0.060 A 
HETATM   20  N3  UNK     1       9.357   5.542   7.978  1.00  0.00    -0.177 NA
HETATM   21  C9  UNK     1      10.702   6.200   6.067  1.00  0.00     0.073 C 
HETATM   22  N2  UNK     1       9.621   5.104   9.221  1.00  0.00    -0.281 N 
HETATM   23  C4  UNK     1      10.953   4.997   9.496  1.00  0.00     0.123 A 
BRANCH  22  24
HETATM   24  C5  UNK     1       8.534   4.796  10.119  1.00  0.00     0.146 C 
HETATM   25  C12 UNK     1       7.470   5.880  10.127  1.00  0.00     0.028 C 
ENDBRANCH  22  24
ENDBRANCH  17  18
ENDBRANCH   2  17
TORSDOF 4
ENDMDL
MODEL 6
REMARK VINA RESULT:      -7.6     23.171     24.666
REMARK  4 active torsions:
REMARK  status: ('A' for Active; 'I' for Inactive)
REMARK    1  A    between atoms: C2_9  and  N1_5 
REMARK       I    between atoms: C6_13  and  N1_5 
REMARK    2  A    between atoms: C5_12  and  N2_6 
REMARK    3  A    between atoms: C1_8  and  C2_9 
REMARK    4  A    between atoms: C6_13  and  C7_14 
ROOT
HETATM    1  O2  UNK     1      12.739   5.557  10.523  1.00  0.00    -0.267 OA
HETATM    2  N1  UNK     1      12.607   6.036   8.248  1.00  0.00    -0.348 N 
HETATM    3  C6  UNK     1      13.148   6.170   9.531  1.00  0.00     0.259 C 
HETATM    4  C8  UNK     1      13.122   6.782   7.104  1.00  0.00     0.153 C 
ENDROOT
BRANCH   3   5
HETATM    5  C7  UNK     1      14.259   7.112   9.704  1.00  0.00     0.108 A 
HETATM    6  C11 UNK     1      13.926   8.368  10.023  1.00  0.00     0.037 A 
HETATM    7  C10 UNK     1      14.957   9.375  10.216  1.00  0.00     0.000 A 
HETATM    8  C13 UNK     1      16.291   9.009  10.065  1.00  0.00     0.089 A 
HETATM    9  C15 UNK     1      14.655  10.698  10.549  1.00  0.00     0.033 A 
HETATM   10  O1  UNK     1      16.636   7.685   9.730  1.00  0.00    -0.274 OA
HETATM   11  C16 UNK     1      17.327   9.925  10.235  1.00  0.00     0.039 A 
HETATM   12  C14 UNK     1      15.672   6.700   9.538  1.00  0.00     0.304 A 
HETATM   13  O3  UNK     1      15.981   5.551   9.247  1.00  0.00    -0.259 OA
HETATM   14  C18 UNK     1      17.016  11.242  10.566  1.00  0.00     0.022 A 
HETATM   15  C17 UNK     1      15.684  11.628  10.723  1.00  0.00     0.011 A 
HETATM   16 Br1  UNK     1      15.269  13.417  11.173  1.00  0.00    -0.051 Br
ENDBRANCH   3   5
BRANCH   2  17
HETATM   17  C2  UNK     1      11.491   5.141   7.965  1.00  0.00     0.167 C 
BRANCH  17  18
HETATM   18  C1  UNK     1      10.211   5.899   8.038  1.00  0.00     0.003 A 
HETATM   19  C3  UNK     1       9.428   6.353   6.974  1.00  0.00     0.060 A 
HETATM   20  N3  UNK     1       8.338   7.002   7.392  1.00  0.00    -0.177 NA
HETATM   21  C9  UNK     1       9.670   6.199   5.528  1.00  0.00     0.073 C 
HETATM   22  N2  UNK     1       8.446   6.949   8.731  1.00  0.00    -0.281 N 
HETATM   23  C4  UNK     1       9.559   6.293   9.168  1.00  0.00     0.123 A 
BRANCH  22  24
HETATM   24  C5  UNK     1       7.430   7.554   9.558  1.00  0.00     0.146 C 
HETATM   25  C12 UNK     1       7.011   6.653  10.707  1.00  0.00     0.028 C 
ENDBRANCH  22  24
ENDBRANCH  17  18
ENDBRANCH   2  17
TORSDOF 4
ENDMDL
MODEL 7
REMARK VINA RESULT:      -7.5      0.970      2.146
REMARK  4 active torsions:
REMARK  status: ('A' for Active; 'I' for Inactive)
REMARK    1  A    between atoms: C2_9  and  N1_5 
REMARK       I    between atoms: C6_13  and  N1_5 
REMARK    2  A    between atoms: C5_12  and  N2_6 
REMARK    3  A    between atoms: C1_8  and  C2_9 
REMARK    4  A    between atoms: C6_13  and  C7_14 
ROOT
HETATM    1  O2  UNK     1      19.770   7.546  33.972  1.00  0.00    -0.267 OA
HETATM    2  N1  UNK     1      18.300   7.048  32.236  1.00  0.00    -0.348 N 
HETATM    3  C6  UNK     1      18.699   7.736  33.386  1.00  0.00     0.259 C 
HETATM    4  C8  UNK     1      17.023   7.306  31.577  1.00  0.00     0.153 C 
ENDROOT
BRANCH   3   5
HETATM    5  C7  UNK     1      17.774   8.734  33.935  1.00  0.00     0.108 A 
HETATM    6  C11 UNK     1      18.076  10.015  33.696  1.00  0.00     0.037 A 
HETATM    7  C10 UNK     1      17.220  11.078  34.199  1.00  0.00     0.000 A 
HETATM    8  C13 UNK     1      16.086  10.738  34.930  1.00  0.00     0.089 A 
HETATM    9  C15 UNK     1      17.496  12.428  33.974  1.00  0.00     0.033 A 
HETATM   10  O1  UNK     1      15.772   9.388  35.178  1.00  0.00    -0.274 OA
HETATM   11  C16 UNK     1      15.224  11.707  35.441  1.00  0.00     0.039 A 
HETATM   12  C14 UNK     1      16.573   8.349  34.711  1.00  0.00     0.304 A 
HETATM   13  O3  UNK     1      16.292   7.177  34.932  1.00  0.00    -0.259 OA
HETATM   14  C18 UNK     1      15.508  13.052  35.211  1.00  0.00     0.022 A 
HETATM   15  C17 UNK     1      16.641  13.412  34.479  1.00  0.00     0.011 A 
HETATM   16 Br1  UNK     1      17.021  15.239  34.171  1.00  0.00    -0.051 Br
ENDBRANCH   3   5
BRANCH   2  17
HETATM   17  C2  UNK     1      19.135   6.025  31.615  1.00  0.00     0.167 C 
BRANCH  17  18
HETATM   18  C1  UNK     1      18.702   4.677  32.078  1.00  0.00     0.003 A 
HETATM   19  C3  UNK     1      18.438   3.550  31.296  1.00  0.00     0.060 A 
HETATM   20  N3  UNK     1      18.069   2.500  32.033  1.00  0.00    -0.177 NA
HETATM   21  C9  UNK     1      18.520   3.415  29.831  1.00  0.00     0.073 C 
HETATM   22  N2  UNK     1      18.104   2.981  33.289  1.00  0.00    -0.281 N 
HETATM   23  C4  UNK     1      18.481   4.290  33.366  1.00  0.00     0.123 A 
BRANCH  22  24
HETATM   24  C5  UNK     1      17.763   2.121  34.396  1.00  0.00     0.146 C 
HETATM   25  C12 UNK     1      18.829   2.126  35.478  1.00  0.00     0.028 C 
ENDBRANCH  22  24
ENDBRANCH  17  18
ENDBRANCH   2  17
TORSDOF 4
ENDMDL
MODEL 8
REMARK VINA RESULT:      -7.4     23.253     25.079
REMARK  4 active torsions:
REMARK  status: ('A' for Active; 'I' for Inactive)
REMARK    1  A    between atoms: C2_9  and  N1_5 
REMARK       I    between atoms: C6_13  and  N1_5 
REMARK    2  A    between atoms: C5_12  and  N2_6 
REMARK    3  A    between atoms: C1_8  and  C2_9 
REMARK    4  A    between atoms: C6_13  and  C7_14 
ROOT
HETATM    1  O2  UNK     1      10.872   5.986   7.210  1.00  0.00    -0.267 OA
HETATM    2  N1  UNK     1       9.731   7.510   8.550  1.00  0.00    -0.348 N 
HETATM    3  C6  UNK     1      10.872   6.832   8.110  1.00  0.00     0.259 C 
HETATM    4  C8  UNK     1       9.778   8.503   9.619  1.00  0.00     0.153 C 
ENDROOT
BRANCH   3   5
HETATM    5  C7  UNK     1      12.143   7.139   8.777  1.00  0.00     0.108 A 
HETATM    6  C11 UNK     1      12.821   8.190   8.302  1.00  0.00     0.037 A 
HETATM    7  C10 UNK     1      14.092   8.573   8.897  1.00  0.00     0.000 A 
HETATM    8  C13 UNK     1      14.586   7.830   9.964  1.00  0.00     0.089 A 
HETATM    9  C15 UNK     1      14.834   9.662   8.434  1.00  0.00     0.033 A 
HETATM   10  O1  UNK     1      13.867   6.725  10.461  1.00  0.00    -0.274 OA
HETATM   11  C16 UNK     1      15.797   8.143  10.579  1.00  0.00     0.039 A 
HETATM   12  C14 UNK     1      12.649   6.334   9.912  1.00  0.00     0.304 A 
HETATM   13  O3  UNK     1      12.031   5.371  10.350  1.00  0.00    -0.259 OA
HETATM   14  C18 UNK     1      16.530   9.231  10.110  1.00  0.00     0.022 A 
HETATM   15  C17 UNK     1      16.050   9.989   9.040  1.00  0.00     0.011 A 
HETATM   16 Br1  UNK     1      17.051  11.464   8.409  1.00  0.00    -0.051 Br
ENDBRANCH   3   5
BRANCH   2  17
HETATM   17  C2  UNK     1       8.415   7.273   7.968  1.00  0.00     0.167 C 
BRANCH  17  18
HETATM   18  C1  UNK     1       7.639   6.353   8.846  1.00  0.00     0.003 A 
HETATM   19  C3  UNK     1       6.670   6.694   9.794  1.00  0.00     0.060 A 
HETATM   20  N3  UNK     1       6.169   5.620  10.410  1.00  0.00    -0.177 NA
HETATM   21  C9  UNK     1       6.178   8.035  10.158  1.00  0.00     0.073 C 
HETATM   22  N2  UNK     1       6.834   4.601   9.838  1.00  0.00    -0.281 N 
HETATM   23  C4  UNK     1       7.731   4.994   8.889  1.00  0.00     0.123 A 
BRANCH  22  24
HETATM   24  C5  UNK     1       6.560   3.245  10.248  1.00  0.00     0.146 C 
HETATM   25  C12 UNK     1       5.332   3.150  11.138  1.00  0.00     0.028 C 
ENDBRANCH  22  24
ENDBRANCH  17  18
ENDBRANCH   2  17
TORSDOF 4
ENDMDL
MODEL 9
REMARK VINA RESULT:      -7.3     18.241     22.186
REMARK  4 active torsions:
REMARK  status: ('A' for Active; 'I' for Inactive)
REMARK    1  A    between atoms: C2_9  and  N1_5 
REMARK       I    between atoms: C6_13  and  N1_5 
REMARK    2  A    between atoms: C5_12  and  N2_6 
REMARK    3  A    between atoms: C1_8  and  C2_9 
REMARK    4  A    between atoms: C6_13  and  C7_14 
ROOT
HETATM    1  O2  UNK     1      32.978  -6.580  28.961  1.00  0.00    -0.267 OA
HETATM    2  N1  UNK     1      32.322  -8.763  29.439  1.00  0.00    -0.348 N 
HETATM    3  C6  UNK     1      33.088  -7.610  29.636  1.00  0.00     0.259 C 
HETATM    4  C8  UNK     1      32.487  -9.958  30.262  1.00  0.00     0.153 C 
ENDROOT
BRANCH   3   5
HETATM    5  C7  UNK     1      34.096  -7.638  30.702  1.00  0.00     0.108 A 
HETATM    6  C11 UNK     1      33.706  -7.179  31.897  1.00  0.00     0.037 A 
HETATM    7  C10 UNK     1      34.634  -7.165  33.017  1.00  0.00     0.000 A 
HETATM    8  C13 UNK     1      35.928  -7.638  32.823  1.00  0.00     0.089 A 
HETATM    9  C15 UNK     1      34.271  -6.695  34.281  1.00  0.00     0.033 A 
HETATM   10  O1  UNK     1      36.333  -8.120  31.563  1.00  0.00    -0.274 OA
HETATM   11  C16 UNK     1      36.866  -7.652  33.854  1.00  0.00     0.039 A 
HETATM   12  C14 UNK     1      35.468  -8.145  30.473  1.00  0.00     0.304 A 
HETATM   13  O3  UNK     1      35.829  -8.567  29.380  1.00  0.00    -0.259 OA
HETATM   14  C18 UNK     1      36.495  -7.181  35.111  1.00  0.00     0.022 A 
HETATM   15  C17 UNK     1      35.200  -6.704  35.325  1.00  0.00     0.011 A 
HETATM   16 Br1  UNK     1      34.703  -6.066  37.034  1.00  0.00    -0.051 Br
ENDBRANCH   3   5
BRANCH   2  17
HETATM   17  C2  UNK     1      31.303  -8.850  28.400  1.00  0.00     0.167 C 
BRANCH  17  18
HETATM   18  C1  UNK     1      29.967  -8.539  28.981  1.00  0.00     0.003 A 
HETATM   19  C3  UNK     1      28.820  -9.336  28.956  1.00  0.00     0.060 A 
HETATM   20  N3  UNK     1      27.789  -8.754  29.573  1.00  0.00    -0.177 NA
HETATM   21  C9  UNK     1      28.646 -10.671  28.355  1.00  0.00     0.073 C 
HETATM   22  N2  UNK     1      28.302  -7.582  29.986  1.00  0.00    -0.281 N 
HETATM   23  C4  UNK     1      29.613  -7.407  29.652  1.00  0.00     0.123 A 
BRANCH  22  24
HETATM   24  C5  UNK     1      27.472  -6.651  30.713  1.00  0.00     0.146 C 
HETATM   25  C12 UNK     1      26.035  -6.657  30.221  1.00  0.00     0.028 C 
ENDBRANCH  22  24
ENDBRANCH  17  18
ENDBRANCH   2  17
TORSDOF 4
ENDMDL
MODEL 10
REMARK VINA RESULT:      -7.3     11.730     14.497
REMARK  4 active torsions:
REMARK  status: ('A' for Active; 'I' for Inactive)
REMARK    1  A    between atoms: C2_9  and  N1_5 
REMARK       I    between atoms: C6_13  and  N1_5 
REMARK    2  A    between atoms: C5_12  and  N2_6 
REMARK    3  A    between atoms: C1_8  and  C2_9 
REMARK    4  A    between atoms: C6_13  and  C7_14 
ROOT
HETATM    1  O2  UNK     1      18.726  -7.092  37.552  1.00  0.00    -0.267 OA
HETATM    2  N1  UNK     1      20.903  -6.628  38.236  1.00  0.00    -0.348 N 
HETATM    3  C6  UNK     1      19.709  -6.343  37.567  1.00  0.00     0.259 C 
HETATM    4  C8  UNK     1      22.040  -5.711  38.226  1.00  0.00     0.153 C 
ENDROOT
BRANCH   3   5
HETATM    5  C7  UNK     1      19.631  -5.079  36.825  1.00  0.00     0.108 A 
HETATM    6  C11 UNK     1      19.097  -4.041  37.480  1.00  0.00     0.037 A 
HETATM    7  C10 UNK     1      18.976  -2.746  36.829  1.00  0.00     0.000 A 
HETATM    8  C13 UNK     1      19.424  -2.607  35.519  1.00  0.00     0.089 A 
HETATM    9  C15 UNK     1      18.426  -1.636  37.474  1.00  0.00     0.033 A 
HETATM   10  O1  UNK     1      19.986  -3.703  34.835  1.00  0.00    -0.274 OA
HETATM   11  C16 UNK     1      19.337  -1.395  34.838  1.00  0.00     0.039 A 
HETATM   12  C14 UNK     1      20.114  -4.955  35.432  1.00  0.00     0.304 A 
HETATM   13  O3  UNK     1      20.604  -5.902  34.828  1.00  0.00    -0.259 OA
HETATM   14  C18 UNK     1      18.787  -0.293  35.489  1.00  0.00     0.022 A 
HETATM   15  C17 UNK     1      18.332  -0.413  36.804  1.00  0.00     0.011 A 
HETATM   16 Br1  UNK     1      17.586   1.087  37.681  1.00  0.00    -0.051 Br
ENDBRANCH   3   5
BRANCH   2  17
HETATM   17  C2  UNK     1      21.095  -7.861  38.991  1.00  0.00     0.167 C 
BRANCH  17  18
HETATM   18  C1  UNK     1      21.244  -9.005  38.049  1.00  0.00     0.003 A 
HETATM   19  C3  UNK     1      20.442 -10.146  37.959  1.00  0.00     0.060 A 
HETATM   20  N3  UNK     1      20.856 -10.979  37.002  1.00  0.00    -0.177 NA
HETATM   21  C9  UNK     1      19.259 -10.498  38.766  1.00  0.00     0.073 C 
HETATM   22  N2  UNK     1      21.928 -10.348  36.491  1.00  0.00    -0.281 N 
HETATM   23  C4  UNK     1      22.201  -9.154  37.090  1.00  0.00     0.123 A 
BRANCH  22  24
HETATM   24  C5  UNK     1      22.665 -10.949  35.405  1.00  0.00     0.146 C 
HETATM   25  C12 UNK     1      23.862 -11.746  35.895  1.00  0.00     0.028 C 
ENDBRANCH  22  24
ENDBRANCH  17  18
ENDBRANCH   2  17
TORSDOF 4
ENDMDL
