MODEL 1
REMARK VINA RESULT:      -8.8      0.000      0.000
REMARK  5 active torsions:
REMARK  status: ('A' for Active; 'I' for Inactive)
REMARK    1  A    between atoms: C14_21  and  N3_6 
REMARK    2  A    between atoms: C3_10  and  N3_6 
REMARK    3  A    between atoms: C14_21  and  N4_7 
REMARK    4  A    between atoms: C7_14  and  N4_7 
REMARK    5  A    between atoms: C2_9  and  C3_10 
ROOT
HETATM    1  N4  UNK     1      19.267  -3.273  35.871  1.00  0.00    -0.333 N 
HETATM    2  H8  UNK     1      19.411  -3.435  34.879  1.00  0.00     0.168 HD
ENDROOT
BRANCH   1   3
HETATM    3  C14 UNK     1      18.893  -1.953  36.178  1.00  0.00     0.172 C 
HETATM    4  S1  UNK     1      18.154  -1.392  37.578  1.00  0.00    -0.041 SA
BRANCH   3   5
HETATM    5  N3  UNK     1      19.214  -1.005  35.214  1.00  0.00    -0.361 N 
HETATM    6  H7  UNK     1      20.187  -0.713  35.176  1.00  0.00     0.162 HD
BRANCH   5   7
HETATM    7  C3  UNK     1      18.319  -0.408  34.242  1.00  0.00     0.183 C 
BRANCH   7   8
HETATM    8  C2  UNK     1      18.892  -0.559  32.874  1.00  0.00     0.074 A 
HETATM    9  N2  UNK     1      18.879   0.480  32.050  1.00  0.00    -0.176 NA
HETATM   10  N1  UNK     1      19.460  -0.018  30.946  1.00  0.00    -0.278 N 
HETATM   11  C15 UNK     1      19.633   0.836  29.793  1.00  0.00     0.179 C 
HETATM   12  C4  UNK     1      19.832  -1.325  31.062  1.00  0.00     0.028 A 
HETATM   13  C12 UNK     1      20.486  -2.075  29.973  1.00  0.00     0.070 C 
HETATM   14  C6  UNK     1      19.467  -1.709  32.329  1.00  0.00     0.057 A 
ENDBRANCH   7   8
ENDBRANCH   5   7
ENDBRANCH   3   5
ENDBRANCH   1   3
BRANCH   1  15
HETATM   15  C7  UNK     1      19.779  -4.314  36.646  1.00  0.00     0.036 A 
HETATM   16  C11 UNK     1      20.965  -4.138  37.357  1.00  0.00     0.030 A 
HETATM   17  C10 UNK     1      21.484  -5.179  38.135  1.00  0.00     0.017 A 
HETATM   18  C1  UNK     1      20.823  -6.412  38.214  1.00  0.00     0.004 A 
HETATM   19  C5  UNK     1      19.638  -6.560  37.493  1.00  0.00     0.092 A 
HETATM   20  C8  UNK     1      21.309  -7.548  39.009  1.00  0.00    -0.043 A 
HETATM   21  O1  UNK     1      18.914  -7.768  37.519  1.00  0.00    -0.275 OA
HETATM   22  C9  UNK     1      19.108  -5.531  36.712  1.00  0.00     0.067 A 
HETATM   23  C17 UNK     1      19.348  -8.857  38.260  1.00  0.00     0.288 A 
HETATM   24  C13 UNK     1      20.600  -8.686  39.017  1.00  0.00     0.090 A 
HETATM   25  O2  UNK     1      18.726  -9.913  38.290  1.00  0.00    -0.260 OA
HETATM   26  C16 UNK     1      22.581  -7.422  39.797  1.00  0.00     0.049 C 
ENDBRANCH   1  15
TORSDOF 5
ENDMDL
MODEL 2
REMARK VINA RESULT:      -8.8      6.954     11.554
REMARK  5 active torsions:
REMARK  status: ('A' for Active; 'I' for Inactive)
REMARK    1  A    between atoms: C14_21  and  N3_6 
REMARK    2  A    between atoms: C3_10  and  N3_6 
REMARK    3  A    between atoms: C14_21  and  N4_7 
REMARK    4  A    between atoms: C7_14  and  N4_7 
REMARK    5  A    between atoms: C2_9  and  C3_10 
ROOT
HETATM    1  N4  UNK     1      19.145   3.935  30.239  1.00  0.00    -0.333 N 
HETATM    2  H8  UNK     1      19.485   4.254  29.337  1.00  0.00     0.168 HD
ENDROOT
BRANCH   1   3
HETATM    3  C14 UNK     1      18.564   2.655  30.201  1.00  0.00     0.172 C 
HETATM    4  S1  UNK     1      18.094   1.778  28.848  1.00  0.00    -0.041 SA
BRANCH   3   5
HETATM    5  N3  UNK     1      18.400   2.041  31.437  1.00  0.00    -0.361 N 
HETATM    6  H7  UNK     1      17.884   2.567  32.137  1.00  0.00     0.162 HD
BRANCH   5   7
HETATM    7  C3  UNK     1      18.860   0.722  31.827  1.00  0.00     0.183 C 
BRANCH   7   8
HETATM    8  C2  UNK     1      18.640   0.526  33.288  1.00  0.00     0.074 A 
HETATM    9  N2  UNK     1      18.934  -0.648  33.833  1.00  0.00    -0.176 NA
HETATM   10  N1  UNK     1      18.615  -0.455  35.124  1.00  0.00    -0.278 N 
HETATM   11  C15 UNK     1      18.801  -1.535  36.065  1.00  0.00     0.179 C 
HETATM   12  C4  UNK     1      18.136   0.794  35.392  1.00  0.00     0.028 A 
HETATM   13  C12 UNK     1      17.723   1.225  36.741  1.00  0.00     0.070 C 
HETATM   14  C6  UNK     1      18.142   1.464  34.194  1.00  0.00     0.057 A 
ENDBRANCH   7   8
ENDBRANCH   5   7
ENDBRANCH   3   5
ENDBRANCH   1   3
BRANCH   1  15
HETATM   15  C7  UNK     1      19.076   4.976  31.165  1.00  0.00     0.036 A 
HETATM   16  C11 UNK     1      20.240   5.625  31.573  1.00  0.00     0.030 A 
HETATM   17  C10 UNK     1      20.177   6.670  32.503  1.00  0.00     0.017 A 
HETATM   18  C1  UNK     1      18.949   7.081  33.036  1.00  0.00     0.004 A 
HETATM   19  C5  UNK     1      17.801   6.414  32.609  1.00  0.00     0.092 A 
HETATM   20  C8  UNK     1      18.807   8.168  34.015  1.00  0.00    -0.043 A 
HETATM   21  O1  UNK     1      16.527   6.766  33.098  1.00  0.00    -0.275 OA
HETATM   22  C9  UNK     1      17.846   5.370  31.682  1.00  0.00     0.067 A 
HETATM   23  C17 UNK     1      16.363   7.787  34.022  1.00  0.00     0.288 A 
HETATM   24  C13 UNK     1      17.584   8.483  34.463  1.00  0.00     0.090 A 
HETATM   25  O2  UNK     1      15.260   8.102  34.454  1.00  0.00    -0.260 OA
HETATM   26  C16 UNK     1      20.023   8.907  34.495  1.00  0.00     0.049 C 
ENDBRANCH   1  15
TORSDOF 5
ENDMDL
MODEL 3
REMARK VINA RESULT:      -8.5      2.163      2.772
REMARK  5 active torsions:
REMARK  status: ('A' for Active; 'I' for Inactive)
REMARK    1  A    between atoms: C14_21  and  N3_6 
REMARK    2  A    between atoms: C3_10  and  N3_6 
REMARK    3  A    between atoms: C14_21  and  N4_7 
REMARK    4  A    between atoms: C7_14  and  N4_7 
REMARK    5  A    between atoms: C2_9  and  C3_10 
ROOT
HETATM    1  N4  UNK     1      19.071  -4.967  35.872  1.00  0.00    -0.333 N 
HETATM    2  H8  UNK     1      18.316  -4.915  35.195  1.00  0.00     0.168 HD
ENDROOT
BRANCH   1   3
HETATM    3  C14 UNK     1      19.816  -3.780  35.979  1.00  0.00     0.172 C 
HETATM    4  S1  UNK     1      20.656  -3.209  37.317  1.00  0.00    -0.041 SA
BRANCH   3   5
HETATM    5  N3  UNK     1      19.886  -3.016  34.821  1.00  0.00    -0.361 N 
HETATM    6  H7  UNK     1      20.456  -3.392  34.067  1.00  0.00     0.162 HD
BRANCH   5   7
HETATM    7  C3  UNK     1      19.216  -1.757  34.560  1.00  0.00     0.183 C 
BRANCH   7   8
HETATM    8  C2  UNK     1      19.439  -1.355  33.142  1.00  0.00     0.074 A 
HETATM    9  N2  UNK     1      18.982  -0.181  32.725  1.00  0.00    -0.176 NA
HETATM   10  N1  UNK     1      19.359  -0.165  31.435  1.00  0.00    -0.278 N 
HETATM   11  C15 UNK     1      19.036   0.982  30.619  1.00  0.00     0.179 C 
HETATM   12  C4  UNK     1      20.031  -1.287  31.044  1.00  0.00     0.028 A 
HETATM   13  C12 UNK     1      20.535  -1.486  29.673  1.00  0.00     0.070 C 
HETATM   14  C6  UNK     1      20.097  -2.091  32.155  1.00  0.00     0.057 A 
ENDBRANCH   7   8
ENDBRANCH   5   7
ENDBRANCH   3   5
ENDBRANCH   1   3
BRANCH   1  15
HETATM   15  C7  UNK     1      19.330  -6.283  36.258  1.00  0.00     0.036 A 
HETATM   16  C11 UNK     1      18.664  -6.834  37.351  1.00  0.00     0.030 A 
HETATM   17  C10 UNK     1      18.920  -8.153  37.744  1.00  0.00     0.017 A 
HETATM   18  C1  UNK     1      19.847  -8.940  37.047  1.00  0.00     0.004 A 
HETATM   19  C5  UNK     1      20.498  -8.362  35.957  1.00  0.00     0.092 A 
HETATM   20  C8  UNK     1      20.168 -10.330  37.402  1.00  0.00    -0.043 A 
HETATM   21  O1  UNK     1      21.444  -9.085  35.205  1.00  0.00    -0.275 OA
HETATM   22  C9  UNK     1      20.253  -7.048  35.553  1.00  0.00     0.067 A 
HETATM   23  C17 UNK     1      21.767 -10.398  35.516  1.00  0.00     0.288 A 
HETATM   24  C13 UNK     1      21.071 -10.995  36.668  1.00  0.00     0.090 A 
HETATM   25  O2  UNK     1      22.588 -11.037  34.868  1.00  0.00    -0.260 OA
HETATM   26  C16 UNK     1      19.484 -10.981  38.569  1.00  0.00     0.049 C 
ENDBRANCH   1  15
TORSDOF 5
ENDMDL
MODEL 4
REMARK VINA RESULT:      -8.5      1.575      2.244
REMARK  5 active torsions:
REMARK  status: ('A' for Active; 'I' for Inactive)
REMARK    1  A    between atoms: C14_21  and  N3_6 
REMARK    2  A    between atoms: C3_10  and  N3_6 
REMARK    3  A    between atoms: C14_21  and  N4_7 
REMARK    4  A    between atoms: C7_14  and  N4_7 
REMARK    5  A    between atoms: C2_9  and  C3_10 
ROOT
HETATM    1  N4  UNK     1      20.300  -3.117  36.626  1.00  0.00    -0.333 N 
HETATM    2  H8  UNK     1      21.095  -2.651  37.054  1.00  0.00     0.168 HD
ENDROOT
BRANCH   1   3
HETATM    3  C14 UNK     1      19.378  -2.233  36.039  1.00  0.00     0.172 C 
HETATM    4  S1  UNK     1      17.958  -1.634  36.709  1.00  0.00    -0.041 SA
BRANCH   3   5
HETATM    5  N3  UNK     1      19.713  -1.782  34.769  1.00  0.00    -0.361 N 
HETATM    6  H7  UNK     1      19.618  -0.783  34.606  1.00  0.00     0.162 HD
BRANCH   5   7
HETATM    7  C3  UNK     1      20.207  -2.576  33.660  1.00  0.00     0.183 C 
BRANCH   7   8
HETATM    8  C2  UNK     1      20.127  -1.782  32.401  1.00  0.00     0.074 A 
HETATM    9  N2  UNK     1      19.546  -0.589  32.426  1.00  0.00    -0.176 NA
HETATM   10  N1  UNK     1      19.658  -0.186  31.149  1.00  0.00    -0.278 N 
HETATM   11  C15 UNK     1      19.130   1.103  30.767  1.00  0.00     0.179 C 
HETATM   12  C4  UNK     1      20.288  -1.086  30.340  1.00  0.00     0.028 A 
HETATM   13  C12 UNK     1      20.520  -0.853  28.903  1.00  0.00     0.070 C 
HETATM   14  C6  UNK     1      20.609  -2.153  31.144  1.00  0.00     0.057 A 
ENDBRANCH   7   8
ENDBRANCH   5   7
ENDBRANCH   3   5
ENDBRANCH   1   3
BRANCH   1  15
HETATM   15  C7  UNK     1      20.210  -4.453  37.018  1.00  0.00     0.036 A 
HETATM   16  C11 UNK     1      19.204  -5.267  36.501  1.00  0.00     0.030 A 
HETATM   17  C10 UNK     1      19.108  -6.607  36.892  1.00  0.00     0.017 A 
HETATM   18  C1  UNK     1      20.018  -7.154  37.805  1.00  0.00     0.004 A 
HETATM   19  C5  UNK     1      21.015  -6.316  38.306  1.00  0.00     0.092 A 
HETATM   20  C8  UNK     1      19.978  -8.550  38.261  1.00  0.00    -0.043 A 
HETATM   21  O1  UNK     1      21.969  -6.788  39.229  1.00  0.00    -0.275 OA
HETATM   22  C9  UNK     1      21.124  -4.977  37.926  1.00  0.00     0.067 A 
HETATM   23  C17 UNK     1      21.956  -8.101  39.677  1.00  0.00     0.288 A 
HETATM   24  C13 UNK     1      20.898  -8.973  39.139  1.00  0.00     0.090 A 
HETATM   25  O2  UNK     1      22.781  -8.523  40.480  1.00  0.00    -0.260 OA
HETATM   26  C16 UNK     1      18.918  -9.478  37.741  1.00  0.00     0.049 C 
ENDBRANCH   1  15
TORSDOF 5
ENDMDL
MODEL 5
REMARK VINA RESULT:      -8.4      6.004     10.078
REMARK  5 active torsions:
REMARK  status: ('A' for Active; 'I' for Inactive)
REMARK    1  A    between atoms: C14_21  and  N3_6 
REMARK    2  A    between atoms: C3_10  and  N3_6 
REMARK    3  A    between atoms: C14_21  and  N4_7 
REMARK    4  A    between atoms: C7_14  and  N4_7 
REMARK    5  A    between atoms: C2_9  and  C3_10 
ROOT
HETATM    1  N4  UNK     1      18.628  -0.306  31.609  1.00  0.00    -0.333 N 
HETATM    2  H8  UNK     1      17.740  -0.641  31.973  1.00  0.00     0.168 HD
ENDROOT
BRANCH   1   3
HETATM    3  C14 UNK     1      19.659  -1.260  31.675  1.00  0.00     0.172 C 
HETATM    4  S1  UNK     1      20.314  -2.155  30.414  1.00  0.00    -0.041 SA
BRANCH   3   5
HETATM    5  N3  UNK     1      20.218  -1.444  32.933  1.00  0.00    -0.361 N 
HETATM    6  H7  UNK     1      21.137  -1.037  33.083  1.00  0.00     0.162 HD
BRANCH   5   7
HETATM    7  C3  UNK     1      19.622  -2.131  34.064  1.00  0.00     0.183 C 
BRANCH   7   8
HETATM    8  C2  UNK     1      18.779  -1.179  34.840  1.00  0.00     0.074 A 
HETATM    9  N2  UNK     1      17.496  -1.047  34.526  1.00  0.00    -0.176 NA
HETATM   10  N1  UNK     1      17.073  -0.131  35.413  1.00  0.00    -0.278 N 
HETATM   11  C15 UNK     1      15.690   0.287  35.390  1.00  0.00     0.179 C 
HETATM   12  C4  UNK     1      18.047   0.304  36.262  1.00  0.00     0.028 A 
HETATM   13  C12 UNK     1      17.807   1.309  37.315  1.00  0.00     0.070 C 
HETATM   14  C6  UNK     1      19.187  -0.373  35.905  1.00  0.00     0.057 A 
ENDBRANCH   7   8
ENDBRANCH   5   7
ENDBRANCH   3   5
ENDBRANCH   1   3
BRANCH   1  15
HETATM   15  C7  UNK     1      18.632   1.079  31.445  1.00  0.00     0.036 A 
HETATM   16  C11 UNK     1      18.996   1.637  30.221  1.00  0.00     0.030 A 
HETATM   17  C10 UNK     1      19.002   3.026  30.051  1.00  0.00     0.017 A 
HETATM   18  C1  UNK     1      18.644   3.879  31.104  1.00  0.00     0.004 A 
HETATM   19  C5  UNK     1      18.283   3.292  32.318  1.00  0.00     0.092 A 
HETATM   20  C8  UNK     1      18.628   5.344  30.999  1.00  0.00    -0.043 A 
HETATM   21  O1  UNK     1      17.910   4.078  33.425  1.00  0.00    -0.275 OA
HETATM   22  C9  UNK     1      18.272   1.908  32.503  1.00  0.00     0.067 A 
HETATM   23  C17 UNK     1      17.887   5.463  33.356  1.00  0.00     0.288 A 
HETATM   24  C13 UNK     1      18.269   6.068  32.068  1.00  0.00     0.090 A 
HETATM   25  O2  UNK     1      17.564   6.158  34.313  1.00  0.00    -0.260 OA
HETATM   26  C16 UNK     1      19.010   6.006  29.707  1.00  0.00     0.049 C 
ENDBRANCH   1  15
TORSDOF 5
ENDMDL
MODEL 6
REMARK VINA RESULT:      -8.4      1.974      2.564
REMARK  5 active torsions:
REMARK  status: ('A' for Active; 'I' for Inactive)
REMARK    1  A    between atoms: C14_21  and  N3_6 
REMARK    2  A    between atoms: C3_10  and  N3_6 
REMARK    3  A    between atoms: C14_21  and  N4_7 
REMARK    4  A    between atoms: C7_14  and  N4_7 
REMARK    5  A    between atoms: C2_9  and  C3_10 
ROOT
HETATM    1  N4  UNK     1      18.631  -5.016  36.293  1.00  0.00    -0.333 N 
HETATM    2  H8  UNK     1      17.727  -4.987  35.832  1.00  0.00     0.168 HD
ENDROOT
BRANCH   1   3
HETATM    3  C14 UNK     1      19.167  -3.745  36.567  1.00  0.00     0.172 C 
HETATM    4  S1  UNK     1      20.572  -3.381  37.411  1.00  0.00    -0.041 SA
BRANCH   3   5
HETATM    5  N3  UNK     1      18.456  -2.675  36.038  1.00  0.00    -0.361 N 
HETATM    6  H7  UNK     1      17.459  -2.818  35.902  1.00  0.00     0.162 HD
BRANCH   5   7
HETATM    7  C3  UNK     1      18.977  -1.368  35.682  1.00  0.00     0.183 C 
BRANCH   7   8
HETATM    8  C2  UNK     1      19.288  -1.333  34.225  1.00  0.00     0.074 A 
HETATM    9  N2  UNK     1      18.897  -0.287  33.507  1.00  0.00    -0.176 NA
HETATM   10  N1  UNK     1      19.340  -0.598  32.277  1.00  0.00    -0.278 N 
HETATM   11  C15 UNK     1      19.102   0.321  31.189  1.00  0.00     0.179 C 
HETATM   12  C4  UNK     1      19.990  -1.796  32.213  1.00  0.00     0.028 A 
HETATM   13  C12 UNK     1      20.557  -2.338  30.964  1.00  0.00     0.070 C 
HETATM   14  C6  UNK     1      19.969  -2.304  33.489  1.00  0.00     0.057 A 
ENDBRANCH   7   8
ENDBRANCH   5   7
ENDBRANCH   3   5
ENDBRANCH   1   3
BRANCH   1  15
HETATM   15  C7  UNK     1      19.202  -6.288  36.233  1.00  0.00     0.036 A 
HETATM   16  C11 UNK     1      20.133  -6.591  35.241  1.00  0.00     0.030 A 
HETATM   17  C10 UNK     1      20.707  -7.865  35.176  1.00  0.00     0.017 A 
HETATM   18  C1  UNK     1      20.359  -8.856  36.103  1.00  0.00     0.004 A 
HETATM   19  C5  UNK     1      19.425  -8.525  37.085  1.00  0.00     0.092 A 
HETATM   20  C8  UNK     1      20.920 -10.215  36.095  1.00  0.00    -0.043 A 
HETATM   21  O1  UNK     1      19.020  -9.465  38.053  1.00  0.00    -0.275 OA
HETATM   22  C9  UNK     1      18.843  -7.258  37.163  1.00  0.00     0.067 A 
HETATM   23  C17 UNK     1      19.532 -10.754  38.070  1.00  0.00     0.288 A 
HETATM   24  C13 UNK     1      20.518 -11.088  37.029  1.00  0.00     0.090 A 
HETATM   25  O2  UNK     1      19.188 -11.580  38.909  1.00  0.00    -0.260 OA
HETATM   26  C16 UNK     1      21.928 -10.602  35.052  1.00  0.00     0.049 C 
ENDBRANCH   1  15
TORSDOF 5
ENDMDL
MODEL 7
REMARK VINA RESULT:      -8.4      4.000      8.895
REMARK  5 active torsions:
REMARK  status: ('A' for Active; 'I' for Inactive)
REMARK    1  A    between atoms: C14_21  and  N3_6 
REMARK    2  A    between atoms: C3_10  and  N3_6 
REMARK    3  A    between atoms: C14_21  and  N4_7 
REMARK    4  A    between atoms: C7_14  and  N4_7 
REMARK    5  A    between atoms: C2_9  and  C3_10 
ROOT
HETATM    1  N4  UNK     1      18.684  -1.952  35.030  1.00  0.00    -0.333 N 
HETATM    2  H8  UNK     1      18.506  -2.920  34.777  1.00  0.00     0.168 HD
ENDROOT
BRANCH   1   3
HETATM    3  C14 UNK     1      18.477  -1.678  36.393  1.00  0.00     0.172 C 
HETATM    4  S1  UNK     1      17.744  -0.327  37.071  1.00  0.00    -0.041 SA
BRANCH   3   5
HETATM    5  N3  UNK     1      18.901  -2.669  37.269  1.00  0.00    -0.361 N 
HETATM    6  H7  UNK     1      18.172  -3.170  37.771  1.00  0.00     0.162 HD
BRANCH   5   7
HETATM    7  C3  UNK     1      20.267  -3.083  37.527  1.00  0.00     0.183 C 
BRANCH   7   8
HETATM    8  C2  UNK     1      20.455  -4.493  37.079  1.00  0.00     0.074 A 
HETATM    9  N2  UNK     1      19.972  -4.866  35.901  1.00  0.00    -0.176 NA
HETATM   10  N1  UNK     1      20.322  -6.162  35.841  1.00  0.00    -0.278 N 
HETATM   11  C15 UNK     1      19.965  -6.936  34.676  1.00  0.00     0.179 C 
HETATM   12  C4  UNK     1      21.004  -6.599  36.939  1.00  0.00     0.028 A 
HETATM   13  C12 UNK     1      21.484  -7.985  37.089  1.00  0.00     0.070 C 
HETATM   14  C6  UNK     1      21.105  -5.514  37.775  1.00  0.00     0.057 A 
ENDBRANCH   7   8
ENDBRANCH   5   7
ENDBRANCH   3   5
ENDBRANCH   1   3
BRANCH   1  15
HETATM   15  C7  UNK     1      18.776  -1.132  33.905  1.00  0.00     0.036 A 
HETATM   16  C11 UNK     1      19.324  -1.625  32.722  1.00  0.00     0.030 A 
HETATM   17  C10 UNK     1      19.420  -0.807  31.591  1.00  0.00     0.017 A 
HETATM   18  C1  UNK     1      18.967   0.518  31.626  1.00  0.00     0.004 A 
HETATM   19  C5  UNK     1      18.422   0.986  32.822  1.00  0.00     0.092 A 
HETATM   20  C8  UNK     1      19.036   1.434  30.479  1.00  0.00    -0.043 A 
HETATM   21  O1  UNK     1      17.945   2.306  32.940  1.00  0.00    -0.275 OA
HETATM   22  C9  UNK     1      18.320   0.182  33.959  1.00  0.00     0.067 A 
HETATM   23  C17 UNK     1      17.997   3.192  31.874  1.00  0.00     0.288 A 
HETATM   24  C13 UNK     1      18.574   2.685  30.618  1.00  0.00     0.090 A 
HETATM   25  O2  UNK     1      17.584   4.344  31.966  1.00  0.00    -0.260 OA
HETATM   26  C16 UNK     1      19.616   0.962  29.177  1.00  0.00     0.049 C 
ENDBRANCH   1  15
TORSDOF 5
ENDMDL
MODEL 8
REMARK VINA RESULT:      -8.4      3.744      8.786
REMARK  5 active torsions:
REMARK  status: ('A' for Active; 'I' for Inactive)
REMARK    1  A    between atoms: C14_21  and  N3_6 
REMARK    2  A    between atoms: C3_10  and  N3_6 
REMARK    3  A    between atoms: C14_21  and  N4_7 
REMARK    4  A    between atoms: C7_14  and  N4_7 
REMARK    5  A    between atoms: C2_9  and  C3_10 
ROOT
HETATM    1  N4  UNK     1      19.632  -2.667  35.032  1.00  0.00    -0.333 N 
HETATM    2  H8  UNK     1      19.634  -3.680  34.966  1.00  0.00     0.168 HD
ENDROOT
BRANCH   1   3
HETATM    3  C14 UNK     1      19.218  -2.184  36.285  1.00  0.00     0.172 C 
HETATM    4  S1  UNK     1      18.329  -0.796  36.610  1.00  0.00    -0.041 SA
BRANCH   3   5
HETATM    5  N3  UNK     1      19.559  -2.980  37.371  1.00  0.00    -0.361 N 
HETATM    6  H7  UNK     1      18.955  -2.915  38.186  1.00  0.00     0.162 HD
BRANCH   5   7
HETATM    7  C3  UNK     1      20.668  -3.911  37.459  1.00  0.00     0.183 C 
BRANCH   7   8
HETATM    8  C2  UNK     1      20.147  -5.306  37.515  1.00  0.00     0.074 A 
HETATM    9  N2  UNK     1      19.466  -5.783  36.480  1.00  0.00    -0.176 NA
HETATM   10  N1  UNK     1      19.167  -7.030  36.880  1.00  0.00    -0.278 N 
HETATM   11  C15 UNK     1      18.411  -7.891  36.000  1.00  0.00     0.179 C 
HETATM   12  C4  UNK     1      19.640  -7.339  38.122  1.00  0.00     0.028 A 
HETATM   13  C12 UNK     1      19.429  -8.651  38.761  1.00  0.00     0.070 C 
HETATM   14  C6  UNK     1      20.293  -6.214  38.565  1.00  0.00     0.057 A 
ENDBRANCH   7   8
ENDBRANCH   5   7
ENDBRANCH   3   5
ENDBRANCH   1   3
BRANCH   1  15
HETATM   15  C7  UNK     1      19.741  -2.066  33.777  1.00  0.00     0.036 A 
HETATM   16  C11 UNK     1      20.555  -2.634  32.799  1.00  0.00     0.030 A 
HETATM   17  C10 UNK     1      20.669  -2.035  31.539  1.00  0.00     0.017 A 
HETATM   18  C1  UNK     1      19.969  -0.859  31.238  1.00  0.00     0.004 A 
HETATM   19  C5  UNK     1      19.161  -0.313  32.237  1.00  0.00     0.092 A 
HETATM   20  C8  UNK     1      20.041  -0.176  29.940  1.00  0.00    -0.043 A 
HETATM   21  O1  UNK     1      18.426   0.867  32.015  1.00  0.00    -0.275 OA
HETATM   22  C9  UNK     1      19.037  -0.899  33.498  1.00  0.00     0.067 A 
HETATM   23  C17 UNK     1      18.474   1.534  30.800  1.00  0.00     0.288 A 
HETATM   24  C13 UNK     1      19.329   0.946  29.756  1.00  0.00     0.090 A 
HETATM   25  O2  UNK     1      17.837   2.562  30.596  1.00  0.00    -0.260 OA
HETATM   26  C16 UNK     1      20.900  -0.737  28.844  1.00  0.00     0.049 C 
ENDBRANCH   1  15
TORSDOF 5
ENDMDL
MODEL 9
REMARK VINA RESULT:      -8.4      6.624      9.981
REMARK  5 active torsions:
REMARK  status: ('A' for Active; 'I' for Inactive)
REMARK    1  A    between atoms: C14_21  and  N3_6 
REMARK    2  A    between atoms: C3_10  and  N3_6 
REMARK    3  A    between atoms: C14_21  and  N4_7 
REMARK    4  A    between atoms: C7_14  and  N4_7 
REMARK    5  A    between atoms: C2_9  and  C3_10 
ROOT
HETATM    1  N4  UNK     1      17.597   3.897  31.959  1.00  0.00    -0.333 N 
HETATM    2  H8  UNK     1      16.625   3.734  32.207  1.00  0.00     0.168 HD
ENDROOT
BRANCH   1   3
HETATM    3  C14 UNK     1      17.931   5.258  31.855  1.00  0.00     0.172 C 
HETATM    4  S1  UNK     1      18.883   5.996  30.684  1.00  0.00    -0.041 SA
BRANCH   3   5
HETATM    5  N3  UNK     1      17.370   6.084  32.821  1.00  0.00    -0.361 N 
HETATM    6  H7  UNK     1      17.347   5.718  33.769  1.00  0.00     0.162 HD
BRANCH   5   7
HETATM    7  C3  UNK     1      16.838   7.420  32.629  1.00  0.00     0.183 C 
BRANCH   7   8
HETATM    8  C2  UNK     1      17.769   8.420  33.225  1.00  0.00     0.074 A 
HETATM    9  N2  UNK     1      17.389   9.689  33.305  1.00  0.00    -0.176 NA
HETATM   10  N1  UNK     1      18.453  10.274  33.880  1.00  0.00    -0.278 N 
HETATM   11  C15 UNK     1      18.420  11.694  34.142  1.00  0.00     0.179 C 
HETATM   12  C4  UNK     1      19.473   9.412  34.157  1.00  0.00     0.028 A 
HETATM   13  C12 UNK     1      20.737   9.837  34.787  1.00  0.00     0.070 C 
HETATM   14  C6  UNK     1      19.047   8.177  33.733  1.00  0.00     0.057 A 
ENDBRANCH   7   8
ENDBRANCH   5   7
ENDBRANCH   3   5
ENDBRANCH   1   3
BRANCH   1  15
HETATM   15  C7  UNK     1      18.216   2.734  31.500  1.00  0.00     0.036 A 
HETATM   16  C11 UNK     1      18.565   2.612  30.156  1.00  0.00     0.030 A 
HETATM   17  C10 UNK     1      19.186   1.448  29.689  1.00  0.00     0.017 A 
HETATM   18  C1  UNK     1      19.467   0.387  30.561  1.00  0.00     0.004 A 
HETATM   19  C5  UNK     1      19.106   0.537  31.900  1.00  0.00     0.092 A 
HETATM   20  C8  UNK     1      20.114  -0.863  30.142  1.00  0.00    -0.043 A 
HETATM   21  O1  UNK     1      19.353  -0.483  32.840  1.00  0.00    -0.275 OA
HETATM   22  C9  UNK     1      18.487   1.692  32.381  1.00  0.00     0.067 A 
HETATM   23  C17 UNK     1      19.962  -1.674  32.474  1.00  0.00     0.288 A 
HETATM   24  C13 UNK     1      20.338  -1.817  31.057  1.00  0.00     0.090 A 
HETATM   25  O2  UNK     1      20.182  -2.568  33.284  1.00  0.00    -0.260 OA
HETATM   26  C16 UNK     1      20.515  -1.055  28.708  1.00  0.00     0.049 C 
ENDBRANCH   1  15
TORSDOF 5
ENDMDL
MODEL 10
REMARK VINA RESULT:      -8.3      8.828     13.138
REMARK  5 active torsions:
REMARK  status: ('A' for Active; 'I' for Inactive)
REMARK    1  A    between atoms: C14_21  and  N3_6 
REMARK    2  A    between atoms: C3_10  and  N3_6 
REMARK    3  A    between atoms: C14_21  and  N4_7 
REMARK    4  A    between atoms: C7_14  and  N4_7 
REMARK    5  A    between atoms: C2_9  and  C3_10 
ROOT
HETATM    1  N4  UNK     1      18.374   5.504  32.534  1.00  0.00    -0.333 N 
HETATM    2  H8  UNK     1      18.883   5.111  33.320  1.00  0.00     0.168 HD
ENDROOT
BRANCH   1   3
HETATM    3  C14 UNK     1      18.764   4.976  31.290  1.00  0.00     0.172 C 
HETATM    4  S1  UNK     1      19.423   5.800  29.984  1.00  0.00    -0.041 SA
BRANCH   3   5
HETATM    5  N3  UNK     1      18.613   3.601  31.155  1.00  0.00    -0.361 N 
HETATM    6  H7  UNK     1      18.433   3.081  32.010  1.00  0.00     0.162 HD
BRANCH   5   7
HETATM    7  C3  UNK     1      18.657   2.833  29.925  1.00  0.00     0.183 C 
BRANCH   7   8
HETATM    8  C2  UNK     1      19.057   1.429  30.226  1.00  0.00     0.074 A 
HETATM    9  N2  UNK     1      18.737   0.904  31.402  1.00  0.00    -0.176 NA
HETATM   10  N1  UNK     1      19.247  -0.336  31.315  1.00  0.00    -0.278 N 
HETATM   11  C15 UNK     1      19.096  -1.241  32.431  1.00  0.00     0.179 C 
HETATM   12  C4  UNK     1      19.868  -0.593  30.128  1.00  0.00     0.028 A 
HETATM   13  C12 UNK     1      20.501  -1.888  29.815  1.00  0.00     0.070 C 
HETATM   14  C6  UNK     1      19.758   0.559  29.389  1.00  0.00     0.057 A 
ENDBRANCH   7   8
ENDBRANCH   5   7
ENDBRANCH   3   5
ENDBRANCH   1   3
BRANCH   1  15
HETATM   15  C7  UNK     1      17.674   6.655  32.893  1.00  0.00     0.036 A 
HETATM   16  C11 UNK     1      16.287   6.616  33.027  1.00  0.00     0.030 A 
HETATM   17  C10 UNK     1      15.578   7.768  33.387  1.00  0.00     0.017 A 
HETATM   18  C1  UNK     1      16.247   8.978  33.618  1.00  0.00     0.004 A 
HETATM   19  C5  UNK     1      17.635   8.987  33.477  1.00  0.00     0.092 A 
HETATM   20  C8  UNK     1      15.570  10.225  33.997  1.00  0.00    -0.043 A 
HETATM   21  O1  UNK     1      18.382  10.162  33.691  1.00  0.00    -0.275 OA
HETATM   22  C9  UNK     1      18.356   7.846  33.119  1.00  0.00     0.067 A 
HETATM   23  C17 UNK     1      17.770  11.354  34.049  1.00  0.00     0.288 A 
HETATM   24  C13 UNK     1      16.306  11.329  34.195  1.00  0.00     0.090 A 
HETATM   25  O2  UNK     1      18.411  12.383  34.239  1.00  0.00    -0.260 OA
HETATM   26  C16 UNK     1      14.078  10.249  34.157  1.00  0.00     0.049 C 
ENDBRANCH   1  15
TORSDOF 5
ENDMDL
