MODEL 1
REMARK VINA RESULT:      -7.2      0.000      0.000
REMARK  1 active torsions:
REMARK  status: ('A' for Active; 'I' for Inactive)
REMARK    1  A    between atoms: C3_8  and  C8_13 
ROOT
HETATM    1 Cl1  UNK     1      17.783   4.238  31.953  1.00  0.00    -0.077 Cl
HETATM    2  O1  UNK     1      18.922   0.449  32.666  1.00  0.00    -0.307 OA
HETATM    3  O2  UNK     1      18.795   2.983  29.478  1.00  0.00    -0.286 OA
HETATM    4  C1  UNK     1      19.331   0.850  30.309  1.00  0.00     0.050 A 
HETATM    5  C2  UNK     1      19.351   0.031  31.434  1.00  0.00     0.090 A 
HETATM    6  C3  UNK     1      18.442   1.745  32.808  1.00  0.00     0.143 A 
HETATM    7  C4  UNK     1      18.828   2.227  30.441  1.00  0.00     0.209 A 
HETATM    8  C5  UNK     1      18.375   2.628  31.795  1.00  0.00     0.120 A 
HETATM    9  C6  UNK     1      19.782   0.368  29.077  1.00  0.00     0.018 A 
HETATM   10  C7  UNK     1      19.824  -1.278  31.336  1.00  0.00     0.038 A 
HETATM   11  C9  UNK     1      20.254  -0.941  28.981  1.00  0.00     0.001 A 
HETATM   12  C10 UNK     1      20.275  -1.763  30.108  1.00  0.00     0.003 A 
ENDROOT
BRANCH   6  13
HETATM   13  C8  UNK     1      18.018   2.021  34.223  1.00  0.00     0.412 C 
HETATM   14  F1  UNK     1      18.273   0.949  35.003  1.00  0.00    -0.207 F 
HETATM   15  F2  UNK     1      18.722   3.060  34.727  1.00  0.00    -0.207 F 
ENDBRANCH   6  13
TORSDOF 1
ENDMDL
MODEL 2
REMARK VINA RESULT:      -6.8      2.328      3.454
REMARK  1 active torsions:
REMARK  status: ('A' for Active; 'I' for Inactive)
REMARK    1  A    between atoms: C3_8  and  C8_13 
ROOT
HETATM    1 Cl1  UNK     1      18.892  -1.558  35.525  1.00  0.00    -0.077 Cl
HETATM    2  O1  UNK     1      18.588   0.792  32.278  1.00  0.00    -0.307 OA
HETATM    3  O2  UNK     1      20.246  -2.809  33.216  1.00  0.00    -0.286 OA
HETATM    4  C1  UNK     1      19.848  -1.162  31.587  1.00  0.00     0.050 A 
HETATM    5  C2  UNK     1      19.260   0.072  31.326  1.00  0.00     0.090 A 
HETATM    6  C3  UNK     1      18.485   0.277  33.564  1.00  0.00     0.143 A 
HETATM    7  C4  UNK     1      19.747  -1.725  32.943  1.00  0.00     0.209 A 
HETATM    8  C5  UNK     1      19.011  -0.904  33.935  1.00  0.00     0.120 A 
HETATM    9  C6  UNK     1      20.521  -1.851  30.575  1.00  0.00     0.018 A 
HETATM   10  C7  UNK     1      19.341   0.627  30.048  1.00  0.00     0.038 A 
HETATM   11  C9  UNK     1      20.601  -1.295  29.298  1.00  0.00     0.001 A 
HETATM   12  C10 UNK     1      20.012  -0.057  29.034  1.00  0.00     0.003 A 
ENDROOT
BRANCH   6  13
HETATM   13  C8  UNK     1      17.719   1.203  34.466  1.00  0.00     0.412 C 
HETATM   14  F1  UNK     1      17.745   2.460  33.973  1.00  0.00    -0.207 F 
HETATM   15  F2  UNK     1      16.423   0.824  34.531  1.00  0.00    -0.207 F 
ENDBRANCH   6  13
TORSDOF 1
ENDMDL
MODEL 3
REMARK VINA RESULT:      -6.7      1.717      2.966
REMARK  1 active torsions:
REMARK  status: ('A' for Active; 'I' for Inactive)
REMARK    1  A    between atoms: C3_8  and  C8_13 
ROOT
HETATM    1 Cl1  UNK     1      17.867   2.074  34.324  1.00  0.00    -0.077 Cl
HETATM    2  O1  UNK     1      19.032   1.933  30.478  1.00  0.00    -0.307 OA
HETATM    3  O2  UNK     1      18.889  -0.616  33.654  1.00  0.00    -0.286 OA
HETATM    4  C1  UNK     1      19.447  -0.273  31.396  1.00  0.00     0.050 A 
HETATM    5  C2  UNK     1      19.470   0.642  30.348  1.00  0.00     0.090 A 
HETATM    6  C3  UNK     1      18.543   2.358  31.708  1.00  0.00     0.143 A 
HETATM    7  C4  UNK     1      18.931   0.157  32.705  1.00  0.00     0.209 A 
HETATM    8  C5  UNK     1      18.471   1.565  32.792  1.00  0.00     0.120 A 
HETATM    9  C6  UNK     1      19.908  -1.578  31.203  1.00  0.00     0.018 A 
HETATM   10  C7  UNK     1      19.955   0.258  29.097  1.00  0.00     0.038 A 
HETATM   11  C9  UNK     1      20.393  -1.960  29.952  1.00  0.00     0.001 A 
HETATM   12  C10 UNK     1      20.416  -1.043  28.900  1.00  0.00     0.003 A 
ENDROOT
BRANCH   6  13
HETATM   13  C8  UNK     1      18.113   3.797  31.660  1.00  0.00     0.412 C 
HETATM   14  F1  UNK     1      18.676   4.484  32.677  1.00  0.00    -0.207 F 
HETATM   15  F2  UNK     1      18.529   4.370  30.509  1.00  0.00    -0.207 F 
ENDBRANCH   6  13
TORSDOF 1
ENDMDL
MODEL 4
REMARK VINA RESULT:      -6.7      5.972      6.790
REMARK  1 active torsions:
REMARK  status: ('A' for Active; 'I' for Inactive)
REMARK    1  A    between atoms: C3_8  and  C8_13 
ROOT
HETATM    1 Cl1  UNK     1      16.622   8.046  35.359  1.00  0.00    -0.077 Cl
HETATM    2  O1  UNK     1      16.987   6.978  31.500  1.00  0.00    -0.307 OA
HETATM    3  O2  UNK     1      19.389   7.183  34.784  1.00  0.00    -0.286 OA
HETATM    4  C1  UNK     1      19.175   6.668  32.501  1.00  0.00     0.050 A 
HETATM    5  C2  UNK     1      18.305   6.618  31.415  1.00  0.00     0.090 A 
HETATM    6  C3  UNK     1      16.486   7.415  32.720  1.00  0.00     0.143 A 
HETATM    7  C4  UNK     1      18.661   7.126  33.801  1.00  0.00     0.209 A 
HETATM    8  C5  UNK     1      17.227   7.506  33.838  1.00  0.00     0.120 A 
HETATM    9  C6  UNK     1      20.511   6.288  32.353  1.00  0.00     0.018 A 
HETATM   10  C7  UNK     1      18.768   6.186  30.171  1.00  0.00     0.038 A 
HETATM   11  C9  UNK     1      20.972   5.857  31.109  1.00  0.00     0.001 A 
HETATM   12  C10 UNK     1      20.102   5.805  30.019  1.00  0.00     0.003 A 
ENDROOT
BRANCH   6  13
HETATM   13  C8  UNK     1      15.028   7.766  32.620  1.00  0.00     0.412 C 
HETATM   14  F1  UNK     1      14.883   9.082  32.355  1.00  0.00    -0.207 F 
HETATM   15  F2  UNK     1      14.454   7.086  31.603  1.00  0.00    -0.207 F 
ENDBRANCH   6  13
TORSDOF 1
ENDMDL
MODEL 5
REMARK VINA RESULT:      -6.7      1.951      2.412
REMARK  1 active torsions:
REMARK  status: ('A' for Active; 'I' for Inactive)
REMARK    1  A    between atoms: C3_8  and  C8_13 
ROOT
HETATM    1 Cl1  UNK     1      17.701   1.644  34.565  1.00  0.00    -0.077 Cl
HETATM    2  O1  UNK     1      19.484  -1.579  32.953  1.00  0.00    -0.307 OA
HETATM    3  O2  UNK     1      18.366   2.143  31.730  1.00  0.00    -0.286 OA
HETATM    4  C1  UNK     1      19.353   0.080  31.188  1.00  0.00     0.050 A 
HETATM    5  C2  UNK     1      19.713  -1.178  31.664  1.00  0.00     0.090 A 
HETATM    6  C3  UNK     1      18.864  -0.699  33.832  1.00  0.00     0.143 A 
HETATM    7  C4  UNK     1      18.697   1.025  32.105  1.00  0.00     0.209 A 
HETATM    8  C5  UNK     1      18.471   0.540  33.489  1.00  0.00     0.120 A 
HETATM    9  C6  UNK     1      19.612   0.433  29.861  1.00  0.00     0.018 A 
HETATM   10  C7  UNK     1      20.337  -2.092  30.814  1.00  0.00     0.038 A 
HETATM   11  C9  UNK     1      20.235  -0.483  29.013  1.00  0.00     0.001 A 
HETATM   12  C10 UNK     1      20.597  -1.744  29.488  1.00  0.00     0.003 A 
ENDROOT
BRANCH   6  13
HETATM   13  C8  UNK     1      18.697  -1.312  35.194  1.00  0.00     0.412 C 
HETATM   14  F1  UNK     1      19.338  -0.568  36.121  1.00  0.00    -0.207 F 
HETATM   15  F2  UNK     1      17.389  -1.339  35.535  1.00  0.00    -0.207 F 
ENDBRANCH   6  13
TORSDOF 1
ENDMDL
MODEL 6
REMARK VINA RESULT:      -6.6      2.947      4.239
REMARK  1 active torsions:
REMARK  status: ('A' for Active; 'I' for Inactive)
REMARK    1  A    between atoms: C3_8  and  C8_13 
ROOT
HETATM    1 Cl1  UNK     1      20.936  -2.943  29.800  1.00  0.00    -0.077 Cl
HETATM    2  O1  UNK     1      19.417  -0.127  32.235  1.00  0.00    -0.307 OA
HETATM    3  O2  UNK     1      20.081  -0.584  28.241  1.00  0.00    -0.286 OA
HETATM    4  C1  UNK     1      19.287   0.775  29.987  1.00  0.00     0.050 A 
HETATM    5  C2  UNK     1      19.083   0.873  31.360  1.00  0.00     0.090 A 
HETATM    6  C3  UNK     1      19.987  -1.294  31.739  1.00  0.00     0.143 A 
HETATM    7  C4  UNK     1      19.887  -0.453  29.443  1.00  0.00     0.209 A 
HETATM    8  C5  UNK     1      20.231  -1.503  30.433  1.00  0.00     0.120 A 
HETATM    9  C6  UNK     1      18.926   1.829  29.143  1.00  0.00     0.018 A 
HETATM   10  C7  UNK     1      18.516   2.027  31.901  1.00  0.00     0.038 A 
HETATM   11  C9  UNK     1      18.359   2.983  29.686  1.00  0.00     0.001 A 
HETATM   12  C10 UNK     1      18.154   3.082  31.062  1.00  0.00     0.003 A 
ENDROOT
BRANCH   6  13
HETATM   13  C8  UNK     1      20.285  -2.270  32.841  1.00  0.00     0.412 C 
HETATM   14  F1  UNK     1      21.620  -2.383  33.014  1.00  0.00    -0.207 F 
HETATM   15  F2  UNK     1      19.765  -1.829  34.008  1.00  0.00    -0.207 F 
ENDBRANCH   6  13
TORSDOF 1
ENDMDL
MODEL 7
REMARK VINA RESULT:      -6.6      5.353      7.528
REMARK  1 active torsions:
REMARK  status: ('A' for Active; 'I' for Inactive)
REMARK    1  A    between atoms: C3_8  and  C8_13 
ROOT
HETATM    1 Cl1  UNK     1      21.406   6.440  32.791  1.00  0.00    -0.077 Cl
HETATM    2  O1  UNK     1      17.664   6.236  31.335  1.00  0.00    -0.307 OA
HETATM    3  O2  UNK     1      19.511   7.770  34.627  1.00  0.00    -0.286 OA
HETATM    4  C1  UNK     1      17.510   7.429  33.442  1.00  0.00     0.050 A 
HETATM    5  C2  UNK     1      16.936   6.885  32.296  1.00  0.00     0.090 A 
HETATM    6  C3  UNK     1      19.037   6.107  31.503  1.00  0.00     0.143 A 
HETATM    7  C4  UNK     1      18.963   7.304  33.636  1.00  0.00     0.209 A 
HETATM    8  C5  UNK     1      19.704   6.591  32.567  1.00  0.00     0.120 A 
HETATM    9  C6  UNK     1      16.715   8.081  34.388  1.00  0.00     0.018 A 
HETATM   10  C7  UNK     1      15.560   6.991  32.088  1.00  0.00     0.038 A 
HETATM   11  C9  UNK     1      15.339   8.185  34.178  1.00  0.00     0.001 A 
HETATM   12  C10 UNK     1      14.762   7.641  33.030  1.00  0.00     0.003 A 
ENDROOT
BRANCH   6  13
HETATM   13  C8  UNK     1      19.664   5.368  30.355  1.00  0.00     0.412 C 
HETATM   14  F1  UNK     1      18.706   4.890  29.531  1.00  0.00    -0.207 F 
HETATM   15  F2  UNK     1      20.437   6.205  29.628  1.00  0.00    -0.207 F 
ENDBRANCH   6  13
TORSDOF 1
ENDMDL
MODEL 8
REMARK VINA RESULT:      -6.5      3.089      4.566
REMARK  1 active torsions:
REMARK  status: ('A' for Active; 'I' for Inactive)
REMARK    1  A    between atoms: C3_8  and  C8_13 
ROOT
HETATM    1 Cl1  UNK     1      20.237  -0.648  28.652  1.00  0.00    -0.077 Cl
HETATM    2  O1  UNK     1      18.544   1.397  31.671  1.00  0.00    -0.307 OA
HETATM    3  O2  UNK     1      20.297  -2.242  31.139  1.00  0.00    -0.286 OA
HETATM    4  C1  UNK     1      19.242  -0.733  32.599  1.00  0.00     0.050 A 
HETATM    5  C2  UNK     1      18.655   0.524  32.720  1.00  0.00     0.090 A 
HETATM    6  C3  UNK     1      19.035   1.021  30.426  1.00  0.00     0.143 A 
HETATM    7  C4  UNK     1      19.770  -1.148  31.290  1.00  0.00     0.209 A 
HETATM    8  C5  UNK     1      19.623  -0.166  30.188  1.00  0.00     0.120 A 
HETATM    9  C6  UNK     1      19.326  -1.581  33.706  1.00  0.00     0.018 A 
HETATM   10  C7  UNK     1      18.147   0.941  33.951  1.00  0.00     0.038 A 
HETATM   11  C9  UNK     1      18.818  -1.162  34.936  1.00  0.00     0.001 A 
HETATM   12  C10 UNK     1      18.230   0.097  35.059  1.00  0.00     0.003 A 
ENDROOT
BRANCH   6  13
HETATM   13  C8  UNK     1      18.824   2.101  29.404  1.00  0.00     0.412 C 
HETATM   14  F1  UNK     1      17.627   1.942  28.799  1.00  0.00    -0.207 F 
HETATM   15  F2  UNK     1      18.814   3.313  30.002  1.00  0.00    -0.207 F 
ENDBRANCH   6  13
TORSDOF 1
ENDMDL
MODEL 9
REMARK VINA RESULT:      -6.5     13.833     15.392
REMARK  1 active torsions:
REMARK  status: ('A' for Active; 'I' for Inactive)
REMARK    1  A    between atoms: C3_8  and  C8_13 
ROOT
HETATM    1 Cl1  UNK     1      19.421  -0.677  13.855  1.00  0.00    -0.077 Cl
HETATM    2  O1  UNK     1      18.483  -1.076  17.744  1.00  0.00    -0.307 OA
HETATM    3  O2  UNK     1      19.725   1.904  15.260  1.00  0.00    -0.286 OA
HETATM    4  C1  UNK     1      19.105   1.247  17.429  1.00  0.00     0.050 A 
HETATM    5  C2  UNK     1      18.680   0.189  18.228  1.00  0.00     0.090 A 
HETATM    6  C3  UNK     1      18.716  -1.326  16.397  1.00  0.00     0.143 A 
HETATM    7  C4  UNK     1      19.354   1.003  16.000  1.00  0.00     0.209 A 
HETATM    8  C5  UNK     1      19.127  -0.385  15.528  1.00  0.00     0.120 A 
HETATM    9  C6  UNK     1      19.289   2.518  17.980  1.00  0.00     0.018 A 
HETATM   10  C7  UNK     1      18.437   0.396  19.587  1.00  0.00     0.038 A 
HETATM   11  C9  UNK     1      19.044   2.722  19.339  1.00  0.00     0.001 A 
HETATM   12  C10 UNK     1      18.619   1.663  20.141  1.00  0.00     0.003 A 
ENDROOT
BRANCH   6  13
HETATM   13  C8  UNK     1      18.450  -2.764  16.051  1.00  0.00     0.412 C 
HETATM   14  F1  UNK     1      17.555  -2.842  15.043  1.00  0.00    -0.207 F 
HETATM   15  F2  UNK     1      19.587  -3.359  15.626  1.00  0.00    -0.207 F 
ENDBRANCH   6  13
TORSDOF 1
ENDMDL
MODEL 10
REMARK VINA RESULT:      -6.5     13.402     14.599
REMARK  1 active torsions:
REMARK  status: ('A' for Active; 'I' for Inactive)
REMARK    1  A    between atoms: C3_8  and  C8_13 
ROOT
HETATM    1 Cl1  UNK     1      24.912  -7.854  38.897  1.00  0.00    -0.077 Cl
HETATM    2  O1  UNK     1      28.916  -8.096  38.618  1.00  0.00    -0.307 OA
HETATM    3  O2  UNK     1      26.102  -5.153  38.771  1.00  0.00    -0.286 OA
HETATM    4  C1  UNK     1      28.375  -5.731  38.615  1.00  0.00     0.050 A 
HETATM    5  C2  UNK     1      29.290  -6.779  38.568  1.00  0.00     0.090 A 
HETATM    6  C3  UNK     1      27.565  -8.409  38.719  1.00  0.00     0.143 A 
HETATM    7  C4  UNK     1      26.942  -6.043  38.724  1.00  0.00     0.209 A 
HETATM    8  C5  UNK     1      26.591  -7.484  38.773  1.00  0.00     0.120 A 
HETATM    9  C6  UNK     1      28.817  -4.406  38.559  1.00  0.00     0.018 A 
HETATM   10  C7  UNK     1      30.655  -6.509  38.465  1.00  0.00     0.038 A 
HETATM   11  C9  UNK     1      30.182  -4.139  38.457  1.00  0.00     0.001 A 
HETATM   12  C10 UNK     1      31.101  -5.189  38.410  1.00  0.00     0.003 A 
ENDROOT
BRANCH   6  13
HETATM   13  C8  UNK     1      27.348  -9.895  38.759  1.00  0.00     0.412 C 
HETATM   14  F1  UNK     1      26.717 -10.242  39.902  1.00  0.00    -0.207 F 
HETATM   15  F2  UNK     1      26.559 -10.279  37.732  1.00  0.00    -0.207 F 
ENDBRANCH   6  13
TORSDOF 1
ENDMDL
