MODEL 1
REMARK VINA RESULT:      -9.3      0.000      0.000
REMARK  0 active torsions:
REMARK  status: ('A' for Active; 'I' for Inactive)
ROOT
HETATM    1  O1  UNK     1      19.144  -1.293  34.170  1.00  0.00    -0.274 OA
HETATM    2  O2  UNK     1      19.080  -2.600  36.058  1.00  0.00    -0.259 OA
HETATM    3  N1  UNK     1      19.202   1.391  30.108  1.00  0.00    -0.380 N 
HETATM    4  C1  UNK     1      18.914   1.254  31.469  1.00  0.00     0.045 A 
HETATM    5  C2  UNK     1      19.207   0.053  32.157  1.00  0.00     0.004 A 
HETATM    6  C3  UNK     1      18.354   2.328  32.203  1.00  0.00    -0.030 A 
HETATM    7  C4  UNK     1      19.563   0.207  29.334  1.00  0.00     0.123 C 
HETATM    8  C5  UNK     1      18.698   2.555  29.385  1.00  0.00     0.123 C 
HETATM    9  C6  UNK     1      19.817  -1.120  31.428  1.00  0.00     0.045 C 
HETATM   10  C7  UNK     1      18.028   3.637  31.525  1.00  0.00     0.042 C 
HETATM   11  C8  UNK     1      20.499  -0.684  30.137  1.00  0.00     0.025 C 
HETATM   12  C9  UNK     1      18.302   0.993  34.235  1.00  0.00     0.006 A 
HETATM   13  C10 UNK     1      18.825   3.808  30.237  1.00  0.00     0.024 C 
HETATM   14  C11 UNK     1      18.878  -0.056  33.520  1.00  0.00     0.099 A 
HETATM   15  C12 UNK     1      18.004   0.776  35.637  1.00  0.00    -0.033 A 
HETATM   16  C13 UNK     1      18.043   2.187  33.567  1.00  0.00     0.024 A 
HETATM   17  C14 UNK     1      17.397   1.754  36.584  1.00  0.00     0.040 C 
HETATM   18  C15 UNK     1      18.257  -0.394  36.225  1.00  0.00     0.025 A 
HETATM   19  C16 UNK     1      17.633   1.081  37.943  1.00  0.00     0.009 C 
HETATM   20  C17 UNK     1      17.861  -0.406  37.659  1.00  0.00     0.046 C 
HETATM   21  C18 UNK     1      18.852  -1.526  35.514  1.00  0.00     0.295 A 
ENDROOT
TORSDOF 0
ENDMDL
MODEL 2
REMARK VINA RESULT:      -9.2      2.381      6.583
REMARK  0 active torsions:
REMARK  status: ('A' for Active; 'I' for Inactive)
ROOT
HETATM    1  O1  UNK     1      18.307   1.346  32.447  1.00  0.00    -0.274 OA
HETATM    2  O2  UNK     1      18.154   2.435  30.430  1.00  0.00    -0.259 OA
HETATM    3  N1  UNK     1      18.501  -0.967  36.727  1.00  0.00    -0.380 N 
HETATM    4  C1  UNK     1      18.812  -0.903  35.366  1.00  0.00     0.045 A 
HETATM    5  C2  UNK     1      18.434   0.213  34.585  1.00  0.00     0.004 A 
HETATM    6  C3  UNK     1      19.547  -1.941  34.741  1.00  0.00    -0.030 A 
HETATM    7  C4  UNK     1      17.557  -0.004  37.288  1.00  0.00     0.123 C 
HETATM    8  C5  UNK     1      18.717  -2.216  37.452  1.00  0.00     0.123 C 
HETATM    9  C6  UNK     1      17.661   1.355  35.201  1.00  0.00     0.045 C 
HETATM   10  C7  UNK     1      19.987  -3.154  35.526  1.00  0.00     0.042 C 
HETATM   11  C8  UNK     1      17.816   1.382  36.717  1.00  0.00     0.025 C 
HETATM   12  C9  UNK     1      19.443  -0.805  32.594  1.00  0.00     0.006 A 
HETATM   13  C10 UNK     1      20.024  -2.862  37.021  1.00  0.00     0.024 C 
HETATM   14  C11 UNK     1      18.742   0.229  33.213  1.00  0.00     0.099 A 
HETATM   15  C12 UNK     1      19.710  -0.689  31.174  1.00  0.00    -0.033 A 
HETATM   16  C13 UNK     1      19.844  -1.891  33.368  1.00  0.00     0.024 A 
HETATM   17  C14 UNK     1      20.440  -1.667  30.318  1.00  0.00     0.040 C 
HETATM   18  C15 UNK     1      19.287   0.365  30.474  1.00  0.00     0.025 A 
HETATM   19  C16 UNK     1      20.680  -0.862  29.034  1.00  0.00     0.009 C 
HETATM   20  C17 UNK     1      19.655   0.276  29.035  1.00  0.00     0.046 C 
HETATM   21  C18 UNK     1      18.542   1.470  31.078  1.00  0.00     0.295 A 
ENDROOT
TORSDOF 0
ENDMDL
MODEL 3
REMARK VINA RESULT:      -8.6      1.527      3.320
REMARK  0 active torsions:
REMARK  status: ('A' for Active; 'I' for Inactive)
ROOT
HETATM    1  O1  UNK     1      17.872   1.592  34.487  1.00  0.00    -0.274 OA
HETATM    2  O2  UNK     1      17.141   2.130  36.597  1.00  0.00    -0.259 OA
HETATM    3  N1  UNK     1      19.510   0.549  30.022  1.00  0.00    -0.380 N 
HETATM    4  C1  UNK     1      19.279   0.175  31.349  1.00  0.00     0.045 A 
HETATM    5  C2  UNK     1      18.654   1.062  32.256  1.00  0.00     0.004 A 
HETATM    6  C3  UNK     1      19.632  -1.117  31.809  1.00  0.00    -0.030 A 
HETATM    7  C4  UNK     1      19.347   1.948  29.638  1.00  0.00     0.123 C 
HETATM    8  C5  UNK     1      20.340  -0.301  29.174  1.00  0.00     0.123 C 
HETATM    9  C6  UNK     1      18.243   2.447  31.817  1.00  0.00     0.045 C 
HETATM   10  C7  UNK     1      20.293  -2.111  30.884  1.00  0.00     0.042 C 
HETATM   11  C8  UNK     1      18.111   2.537  30.301  1.00  0.00     0.025 C 
HETATM   12  C9  UNK     1      18.835  -0.604  34.048  1.00  0.00     0.006 A 
HETATM   13  C10 UNK     1      20.028  -1.769  29.423  1.00  0.00     0.024 C 
HETATM   14  C11 UNK     1      18.462   0.659  33.590  1.00  0.00     0.099 A 
HETATM   15  C12 UNK     1      18.590  -0.919  35.442  1.00  0.00    -0.033 A 
HETATM   16  C13 UNK     1      19.421  -1.490  33.148  1.00  0.00     0.024 A 
HETATM   17  C14 UNK     1      18.902  -2.200  36.138  1.00  0.00     0.040 C 
HETATM   18  C15 UNK     1      18.042  -0.026  36.267  1.00  0.00     0.025 A 
HETATM   19  C16 UNK     1      18.138  -2.049  37.459  1.00  0.00     0.009 C 
HETATM   20  C17 UNK     1      17.895  -0.549  37.653  1.00  0.00     0.046 C 
HETATM   21  C18 UNK     1      17.643   1.313  35.835  1.00  0.00     0.295 A 
ENDROOT
TORSDOF 0
ENDMDL
MODEL 4
REMARK VINA RESULT:      -8.5      2.239      5.843
REMARK  0 active torsions:
REMARK  status: ('A' for Active; 'I' for Inactive)
ROOT
HETATM    1  O1  UNK     1      20.237  -2.372  32.482  1.00  0.00    -0.274 OA
HETATM    2  O2  UNK     1      21.142  -2.986  30.462  1.00  0.00    -0.259 OA
HETATM    3  N1  UNK     1      18.438  -1.074  36.816  1.00  0.00    -0.380 N 
HETATM    4  C1  UNK     1      18.648  -0.809  35.460  1.00  0.00     0.045 A 
HETATM    5  C2  UNK     1      19.311  -1.743  34.630  1.00  0.00     0.004 A 
HETATM    6  C3  UNK     1      18.168   0.387  34.872  1.00  0.00    -0.030 A 
HETATM    7  C4  UNK     1      19.134  -2.196  37.439  1.00  0.00     0.123 C 
HETATM    8  C5  UNK     1      17.944  -0.009  37.684  1.00  0.00     0.123 C 
HETATM    9  C6  UNK     1      19.831  -3.041  35.200  1.00  0.00     0.045 C 
HETATM   10  C7  UNK     1      17.443   1.418  35.705  1.00  0.00     0.042 C 
HETATM   11  C8  UNK     1      19.134  -3.399  36.507  1.00  0.00     0.025 C 
HETATM   12  C9  UNK     1      19.076  -0.240  32.706  1.00  0.00     0.006 A 
HETATM   13  C10 UNK     1      16.869   0.801  36.975  1.00  0.00     0.024 C 
HETATM   14  C11 UNK     1      19.526  -1.430  33.277  1.00  0.00     0.099 A 
HETATM   15  C12 UNK     1      19.349  -0.016  31.300  1.00  0.00    -0.033 A 
HETATM   16  C13 UNK     1      18.395   0.667  33.513  1.00  0.00     0.024 A 
HETATM   17  C14 UNK     1      18.960   1.174  30.491  1.00  0.00     0.040 C 
HETATM   18  C15 UNK     1      20.023  -0.910  30.575  1.00  0.00     0.025 A 
HETATM   19  C16 UNK     1      19.224   0.696  29.058  1.00  0.00     0.009 C 
HETATM   20  C17 UNK     1      20.205  -0.476  29.163  1.00  0.00     0.046 C 
HETATM   21  C18 UNK     1      20.521  -2.168  31.131  1.00  0.00     0.295 A 
ENDROOT
TORSDOF 0
ENDMDL
MODEL 5
REMARK VINA RESULT:      -8.2     15.191     18.655
REMARK  0 active torsions:
REMARK  status: ('A' for Active; 'I' for Inactive)
ROOT
HETATM    1  O1  UNK     1      19.291   0.698  14.774  1.00  0.00    -0.274 OA
HETATM    2  O2  UNK     1      19.489   2.816  15.639  1.00  0.00    -0.259 OA
HETATM    3  N1  UNK     1      18.995  -3.783  12.893  1.00  0.00    -0.380 N 
HETATM    4  C1  UNK     1      18.957  -2.924  13.994  1.00  0.00     0.045 A 
HETATM    5  C2  UNK     1      19.108  -1.527  13.832  1.00  0.00     0.004 A 
HETATM    6  C3  UNK     1      18.728  -3.427  15.298  1.00  0.00    -0.030 A 
HETATM    7  C4  UNK     1      19.454  -3.271  11.605  1.00  0.00     0.123 C 
HETATM    8  C5  UNK     1      19.047  -5.226  13.113  1.00  0.00     0.123 C 
HETATM    9  C6  UNK     1      19.341  -0.934  12.463  1.00  0.00     0.045 C 
HETATM   10  C7  UNK     1      18.549  -4.908  15.532  1.00  0.00     0.042 C 
HETATM   11  C8  UNK     1      18.888  -1.881  11.358  1.00  0.00     0.025 C 
HETATM   12  C9  UNK     1      18.892  -1.197  16.254  1.00  0.00     0.006 A 
HETATM   13  C10 UNK     1      18.126  -5.624  14.255  1.00  0.00     0.024 C 
HETATM   14  C11 UNK     1      19.090  -0.697  14.967  1.00  0.00     0.099 A 
HETATM   15  C12 UNK     1      18.889  -0.254  17.355  1.00  0.00    -0.033 A 
HETATM   16  C13 UNK     1      18.710  -2.568  16.411  1.00  0.00     0.024 A 
HETATM   17  C14 UNK     1      18.692  -0.566  18.799  1.00  0.00     0.040 C 
HETATM   18  C15 UNK     1      19.086   1.049  17.151  1.00  0.00     0.025 A 
HETATM   19  C16 UNK     1      18.469   0.825  19.406  1.00  0.00     0.009 C 
HETATM   20  C17 UNK     1      19.059   1.833  18.415  1.00  0.00     0.046 C 
HETATM   21  C18 UNK     1      19.306   1.618  15.821  1.00  0.00     0.295 A 
ENDROOT
TORSDOF 0
ENDMDL
MODEL 6
REMARK VINA RESULT:      -8.0      3.083      5.538
REMARK  0 active torsions:
REMARK  status: ('A' for Active; 'I' for Inactive)
ROOT
HETATM    1  O1  UNK     1      18.861   4.268  30.238  1.00  0.00    -0.274 OA
HETATM    2  O2  UNK     1      18.803   6.455  29.541  1.00  0.00    -0.259 OA
HETATM    3  N1  UNK     1      19.113  -0.373  31.692  1.00  0.00    -0.380 N 
HETATM    4  C1  UNK     1      18.827   0.970  31.958  1.00  0.00     0.045 A 
HETATM    5  C2  UNK     1      18.952   1.954  30.950  1.00  0.00     0.004 A 
HETATM    6  C3  UNK     1      18.368   1.373  33.236  1.00  0.00    -0.030 A 
HETATM    7  C4  UNK     1      19.793  -0.723  30.448  1.00  0.00     0.123 C 
HETATM    8  C5  UNK     1      19.178  -1.323  32.798  1.00  0.00     0.123 C 
HETATM    9  C6  UNK     1      19.424   1.578  29.565  1.00  0.00     0.045 C 
HETATM   10  C7  UNK     1      18.205   0.366  34.349  1.00  0.00     0.042 C 
HETATM   11  C8  UNK     1      19.232   0.091  29.293  1.00  0.00     0.025 C 
HETATM   12  C9  UNK     1      18.255   3.697  32.529  1.00  0.00     0.006 A 
HETATM   13  C10 UNK     1      18.067  -1.049  33.801  1.00  0.00     0.024 C 
HETATM   14  C11 UNK     1      18.681   3.297  31.263  1.00  0.00     0.099 A 
HETATM   15  C12 UNK     1      18.000   5.107  32.746  1.00  0.00    -0.033 A 
HETATM   16  C13 UNK     1      18.100   2.725  33.514  1.00  0.00     0.024 A 
HETATM   17  C14 UNK     1      17.538   5.749  34.009  1.00  0.00     0.040 C 
HETATM   18  C15 UNK     1      18.182   6.001  31.772  1.00  0.00     0.025 A 
HETATM   19  C16 UNK     1      17.147   7.155  33.536  1.00  0.00     0.009 C 
HETATM   20  C17 UNK     1      17.879   7.390  32.212  1.00  0.00     0.046 C 
HETATM   21  C18 UNK     1      18.635   5.630  30.431  1.00  0.00     0.295 A 
ENDROOT
TORSDOF 0
ENDMDL
MODEL 7
REMARK VINA RESULT:      -8.0      2.706      5.632
REMARK  0 active torsions:
REMARK  status: ('A' for Active; 'I' for Inactive)
ROOT
HETATM    1  O1  UNK     1      18.745   2.709  31.118  1.00  0.00    -0.274 OA
HETATM    2  O2  UNK     1      18.849   4.263  29.430  1.00  0.00    -0.259 OA
HETATM    3  N1  UNK     1      18.654  -0.615  34.674  1.00  0.00    -0.380 N 
HETATM    4  C1  UNK     1      18.504   0.706  34.243  1.00  0.00     0.045 A 
HETATM    5  C2  UNK     1      18.665   1.048  32.880  1.00  0.00     0.004 A 
HETATM    6  C3  UNK     1      18.151   1.730  35.155  1.00  0.00    -0.030 A 
HETATM    7  C4  UNK     1      19.233  -1.600  33.766  1.00  0.00     0.123 C 
HETATM    8  C5  UNK     1      18.690  -0.900  36.106  1.00  0.00     0.123 C 
HETATM    9  C6  UNK     1      19.027  -0.006  31.861  1.00  0.00     0.045 C 
HETATM   10  C7  UNK     1      17.957   1.424  36.621  1.00  0.00     0.042 C 
HETATM   11  C8  UNK     1      18.688  -1.406  32.359  1.00  0.00     0.025 C 
HETATM   12  C9  UNK     1      18.212   3.404  33.392  1.00  0.00     0.006 A 
HETATM   13  C10 UNK     1      17.663  -0.054  36.843  1.00  0.00     0.024 C 
HETATM   14  C11 UNK     1      18.533   2.392  32.489  1.00  0.00     0.099 A 
HETATM   15  C12 UNK     1      18.097   4.757  32.883  1.00  0.00    -0.033 A 
HETATM   16  C13 UNK     1      18.021   3.064  34.729  1.00  0.00     0.024 A 
HETATM   17  C14 UNK     1      17.761   5.981  33.665  1.00  0.00     0.040 C 
HETATM   18  C15 UNK     1      18.307   5.032  31.595  1.00  0.00     0.025 A 
HETATM   19  C16 UNK     1      17.474   7.005  32.559  1.00  0.00     0.009 C 
HETATM   20  C17 UNK     1      18.154   6.480  31.291  1.00  0.00     0.046 C 
HETATM   21  C18 UNK     1      18.654   4.005  30.612  1.00  0.00     0.295 A 
ENDROOT
TORSDOF 0
ENDMDL
MODEL 8
REMARK VINA RESULT:      -7.8      1.869      3.516
REMARK  0 active torsions:
REMARK  status: ('A' for Active; 'I' for Inactive)
ROOT
HETATM    1  O1  UNK     1      18.099   2.469  35.748  1.00  0.00    -0.274 OA
HETATM    2  O2  UNK     1      17.993   1.864  37.961  1.00  0.00    -0.259 OA
HETATM    3  N1  UNK     1      18.428   3.828  31.084  1.00  0.00    -0.380 N 
HETATM    4  C1  UNK     1      18.441   2.829  32.062  1.00  0.00     0.045 A 
HETATM    5  C2  UNK     1      18.227   3.142  33.424  1.00  0.00     0.004 A 
HETATM    6  C3  UNK     1      18.631   1.471  31.708  1.00  0.00    -0.030 A 
HETATM    7  C4  UNK     1      18.457   5.228  31.496  1.00  0.00     0.123 C 
HETATM    8  C5  UNK     1      18.858   3.505  29.727  1.00  0.00     0.123 C 
HETATM    9  C6  UNK     1      18.005   4.571  33.858  1.00  0.00     0.045 C 
HETATM   10  C7  UNK     1      18.854   1.074  30.268  1.00  0.00     0.042 C 
HETATM   11  C8  UNK     1      17.547   5.444  32.695  1.00  0.00     0.025 C 
HETATM   12  C9  UNK     1      18.487   0.780  34.034  1.00  0.00     0.006 A 
HETATM   13  C10 UNK     1      18.332   2.139  29.312  1.00  0.00     0.024 C 
HETATM   14  C11 UNK     1      18.273   2.113  34.382  1.00  0.00     0.099 A 
HETATM   15  C12 UNK     1      18.514  -0.203  35.100  1.00  0.00    -0.033 A 
HETATM   16  C13 UNK     1      18.665   0.465  32.690  1.00  0.00     0.024 A 
HETATM   17  C14 UNK     1      18.721  -1.672  34.957  1.00  0.00     0.040 C 
HETATM   18  C15 UNK     1      18.355   0.154  36.375  1.00  0.00     0.025 A 
HETATM   19  C16 UNK     1      18.326  -2.194  36.344  1.00  0.00     0.009 C 
HETATM   20  C17 UNK     1      18.432  -1.006  37.304  1.00  0.00     0.046 C 
HETATM   21  C18 UNK     1      18.136   1.540  36.788  1.00  0.00     0.295 A 
ENDROOT
TORSDOF 0
ENDMDL
MODEL 9
REMARK VINA RESULT:      -7.8      2.248      3.620
REMARK  0 active torsions:
REMARK  status: ('A' for Active; 'I' for Inactive)
ROOT
HETATM    1  O1  UNK     1      18.502   1.116  32.056  1.00  0.00    -0.274 OA
HETATM    2  O2  UNK     1      18.481  -1.165  32.325  1.00  0.00    -0.259 OA
HETATM    3  N1  UNK     1      18.439   5.941  31.409  1.00  0.00    -0.380 N 
HETATM    4  C1  UNK     1      18.387   4.828  32.253  1.00  0.00     0.045 A 
HETATM    5  C2  UNK     1      18.507   3.517  31.737  1.00  0.00     0.004 A 
HETATM    6  C3  UNK     1      18.250   4.987  33.654  1.00  0.00    -0.030 A 
HETATM    7  C4  UNK     1      18.354   5.744  29.965  1.00  0.00     0.123 C 
HETATM    8  C5  UNK     1      18.103   7.258  31.941  1.00  0.00     0.123 C 
HETATM    9  C6  UNK     1      18.670   3.289  30.253  1.00  0.00     0.045 C 
HETATM   10  C7  UNK     1      18.127   6.363  34.265  1.00  0.00     0.042 C 
HETATM   11  C8  UNK     1      19.181   4.539  29.547  1.00  0.00     0.025 C 
HETATM   12  C9  UNK     1      18.261   2.579  33.990  1.00  0.00     0.006 A 
HETATM   13  C10 UNK     1      18.685   7.434  33.336  1.00  0.00     0.024 C 
HETATM   14  C11 UNK     1      18.423   2.422  32.614  1.00  0.00     0.099 A 
HETATM   15  C12 UNK     1      18.188   1.383  34.806  1.00  0.00    -0.033 A 
HETATM   16  C13 UNK     1      18.175   3.870  34.504  1.00  0.00     0.024 A 
HETATM   17  C14 UNK     1      18.023   1.318  36.286  1.00  0.00     0.040 C 
HETATM   18  C15 UNK     1      18.258   0.168  34.260  1.00  0.00     0.025 A 
HETATM   19  C16 UNK     1      18.341  -0.152  36.586  1.00  0.00     0.009 C 
HETATM   20  C17 UNK     1      18.148  -0.917  35.273  1.00  0.00     0.046 C 
HETATM   21  C18 UNK     1      18.420  -0.047  32.822  1.00  0.00     0.295 A 
ENDROOT
TORSDOF 0
ENDMDL
MODEL 10
REMARK VINA RESULT:      -7.8     13.911     15.583
REMARK  0 active torsions:
REMARK  status: ('A' for Active; 'I' for Inactive)
ROOT
HETATM    1  O1  UNK     1      30.651  -4.878  37.957  1.00  0.00    -0.274 OA
HETATM    2  O2  UNK     1      29.064  -4.174  39.461  1.00  0.00    -0.259 OA
HETATM    3  N1  UNK     1      34.110  -6.331  34.853  1.00  0.00    -0.380 N 
HETATM    4  C1  UNK     1      33.000  -6.615  35.655  1.00  0.00     0.045 A 
HETATM    5  C2  UNK     1      32.350  -5.593  36.385  1.00  0.00     0.004 A 
HETATM    6  C3  UNK     1      32.475  -7.928  35.727  1.00  0.00    -0.030 A 
HETATM    7  C4  UNK     1      34.761  -5.030  34.973  1.00  0.00     0.123 C 
HETATM    8  C5  UNK     1      34.881  -7.433  34.284  1.00  0.00     0.123 C 
HETATM    9  C6  UNK     1      32.858  -4.171  36.334  1.00  0.00     0.045 C 
HETATM   10  C7  UNK     1      33.121  -9.059  34.962  1.00  0.00     0.042 C 
HETATM   11  C8  UNK     1      33.720  -3.929  35.101  1.00  0.00     0.025 C 
HETATM   12  C9  UNK     1      30.754  -7.220  37.292  1.00  0.00     0.006 A 
HETATM   13  C10 UNK     1      33.954  -8.536  33.798  1.00  0.00     0.024 C 
HETATM   14  C11 UNK     1      31.253  -5.922  37.201  1.00  0.00     0.099 A 
HETATM   15  C12 UNK     1      29.618  -7.451  38.161  1.00  0.00    -0.033 A 
HETATM   16  C13 UNK     1      31.373  -8.222  36.549  1.00  0.00     0.024 A 
HETATM   17  C14 UNK     1      28.926  -8.749  38.404  1.00  0.00     0.040 C 
HETATM   18  C15 UNK     1      29.073  -6.458  38.866  1.00  0.00     0.025 A 
HETATM   19  C16 UNK     1      27.647  -8.307  39.128  1.00  0.00     0.009 C 
HETATM   20  C17 UNK     1      27.930  -6.916  39.703  1.00  0.00     0.046 C 
HETATM   21  C18 UNK     1      29.567  -5.082  38.810  1.00  0.00     0.295 A 
ENDROOT
TORSDOF 0
ENDMDL
