MODEL 1
REMARK VINA RESULT:      -8.8      0.000      0.000
REMARK  2 active torsions:
REMARK  status: ('A' for Active; 'I' for Inactive)
REMARK    1  A    between atoms: C1_8  and  C8_15 
REMARK    2  A    between atoms: C6_13  and  C9_16 
ROOT
HETATM    1  O1  UNK     1      34.697  -8.335  32.515  1.00  0.00    -0.293 OA
HETATM    2  N1  UNK     1      29.948  -8.253  31.679  1.00  0.00    -0.357 N 
HETATM    3  N2  UNK     1      31.985  -9.353  29.759  1.00  0.00    -0.375 N 
HETATM    4  C1  UNK     1      32.101  -6.712  34.329  1.00  0.00     0.038 C 
HETATM    5  C2  UNK     1      30.955  -6.796  33.318  1.00  0.00     0.068 C 
HETATM    6  C3  UNK     1      32.363  -8.401  31.996  1.00  0.00     0.037 C 
HETATM    7  C4  UNK     1      31.146  -7.875  32.259  1.00  0.00     0.022 C 
HETATM    8  C5  UNK     1      33.427  -6.639  33.588  1.00  0.00     0.094 C 
HETATM    9  C6  UNK     1      32.612  -9.551  31.054  1.00  0.00     0.160 C 
HETATM   10  C7  UNK     1      33.581  -7.848  32.697  1.00  0.00     0.160 C 
HETATM   11  C10 UNK     1      29.660  -8.883  30.452  1.00  0.00     0.059 A 
HETATM   12  C11 UNK     1      30.619  -9.336  29.530  1.00  0.00     0.055 A 
HETATM   13  C15 UNK     1      28.290  -9.011  30.119  1.00  0.00     0.032 A 
HETATM   14  C16 UNK     1      30.171  -9.853  28.293  1.00  0.00     0.031 A 
HETATM   15  C21 UNK     1      27.872  -9.542  28.901  1.00  0.00     0.002 A 
HETATM   16  C22 UNK     1      28.818  -9.956  27.979  1.00  0.00     0.002 A 
HETATM   17  H7  UNK     1      29.124  -7.913  32.168  1.00  0.00     0.166 HD
HETATM   18  H8  UNK     1      32.573  -9.539  28.951  1.00  0.00     0.160 HD
ENDROOT
BRANCH   9  19
HETATM   19  C9  UNK     1      32.231 -10.883  31.627  1.00  0.00     0.042 A 
HETATM   20  C13 UNK     1      32.389 -12.091  30.779  1.00  0.00     0.195 A 
HETATM   21  O3  UNK     1      32.820 -12.031  29.635  1.00  0.00    -0.287 OA
HETATM   22  C17 UNK     1      32.001 -13.375  31.392  1.00  0.00     0.050 A 
HETATM   23  C20 UNK     1      31.518 -13.384  32.701  1.00  0.00     0.089 A 
HETATM   24  C23 UNK     1      32.113 -14.569  30.675  1.00  0.00     0.042 A 
HETATM   25  O2  UNK     1      31.388 -12.242  33.450  1.00  0.00    -0.321 OA
HETATM   26  C24 UNK     1      31.144 -14.587  33.300  1.00  0.00     0.040 A 
HETATM   27  C14 UNK     1      31.753 -11.054  32.867  1.00  0.00     0.156 A 
HETATM   28  C26 UNK     1      31.255 -15.780  32.586  1.00  0.00     0.026 A 
HETATM   29  C25 UNK     1      31.739 -15.771  31.277  1.00  0.00     0.035 A 
HETATM   30 Cl1  UNK     1      31.873 -17.248  30.402  1.00  0.00    -0.084 Cl
ENDBRANCH   9  19
BRANCH   4  31
HETATM   31  C8  UNK     1      31.921  -5.557  35.303  1.00  0.00    -0.013 A 
HETATM   32  C12 UNK     1      32.633  -4.384  35.378  1.00  0.00     0.015 A 
HETATM   33  C18 UNK     1      32.166  -3.544  36.428  1.00  0.00     0.008 A 
HETATM   34  C19 UNK     1      31.115  -4.110  37.116  1.00  0.00     0.050 A 
HETATM   35  S1  UNK     1      30.695  -5.649  36.492  1.00  0.00    -0.106 SA
ENDBRANCH   4  31
TORSDOF 2
ENDMDL
MODEL 2
REMARK VINA RESULT:      -8.7     33.599     35.632
REMARK  2 active torsions:
REMARK  status: ('A' for Active; 'I' for Inactive)
REMARK    1  A    between atoms: C1_8  and  C8_15 
REMARK    2  A    between atoms: C6_13  and  C9_16 
ROOT
HETATM    1  O1  UNK     1      15.300   6.760   9.179  1.00  0.00    -0.293 OA
HETATM    2  N1  UNK     1      12.744  10.788   9.884  1.00  0.00    -0.357 N 
HETATM    3  N2  UNK     1      15.261  10.097  11.379  1.00  0.00    -0.375 N 
HETATM    4  C1  UNK     1      12.083   7.653   7.944  1.00  0.00     0.038 C 
HETATM    5  C2  UNK     1      11.758   8.848   8.844  1.00  0.00     0.068 C 
HETATM    6  C3  UNK     1      14.154   8.818   9.592  1.00  0.00     0.037 C 
HETATM    7  C4  UNK     1      12.983   9.484   9.490  1.00  0.00     0.022 C 
HETATM    8  C5  UNK     1      12.976   6.678   8.698  1.00  0.00     0.094 C 
HETATM    9  C6  UNK     1      15.437   9.420  10.107  1.00  0.00     0.160 C 
HETATM   10  C7  UNK     1      14.237   7.379   9.143  1.00  0.00     0.160 C 
HETATM   11  C10 UNK     1      13.389  11.613  10.827  1.00  0.00     0.059 A 
HETATM   12  C11 UNK     1      14.529  11.258  11.570  1.00  0.00     0.055 A 
HETATM   13  C15 UNK     1      12.794  12.875  11.067  1.00  0.00     0.032 A 
HETATM   14  C16 UNK     1      14.997  12.156  12.556  1.00  0.00     0.031 A 
HETATM   15  C21 UNK     1      13.285  13.753  12.031  1.00  0.00     0.002 A 
HETATM   16  C22 UNK     1      14.387  13.387  12.786  1.00  0.00     0.002 A 
HETATM   17  H7  UNK     1      11.883  11.183   9.517  1.00  0.00     0.166 HD
HETATM   18  H8  UNK     1      15.951   9.881  12.094  1.00  0.00     0.160 HD
ENDROOT
BRANCH   9  19
HETATM   19  C9  UNK     1      16.110  10.323   9.117  1.00  0.00     0.042 A 
HETATM   20  C13 UNK     1      17.559  10.602   9.281  1.00  0.00     0.195 A 
HETATM   21  O3  UNK     1      18.214  10.118  10.195  1.00  0.00    -0.287 OA
HETATM   22  C17 UNK     1      18.170  11.495   8.280  1.00  0.00     0.050 A 
HETATM   23  C20 UNK     1      17.375  12.016   7.259  1.00  0.00     0.089 A 
HETATM   24  C23 UNK     1      19.528  11.819   8.349  1.00  0.00     0.042 A 
HETATM   25  O2  UNK     1      16.038  11.732   7.144  1.00  0.00    -0.321 OA
HETATM   26  C24 UNK     1      17.933  12.864   6.302  1.00  0.00     0.040 A 
HETATM   27  C14 UNK     1      15.482  10.899   8.083  1.00  0.00     0.156 A 
HETATM   28  C26 UNK     1      19.288  13.188   6.369  1.00  0.00     0.026 A 
HETATM   29  C25 UNK     1      20.083  12.666   7.389  1.00  0.00     0.035 A 
HETATM   30 Cl1  UNK     1      21.756  13.071   7.466  1.00  0.00    -0.084 Cl
ENDBRANCH   9  19
BRANCH   4  31
HETATM   31  C8  UNK     1      10.828   6.986   7.402  1.00  0.00    -0.013 A 
HETATM   32  C12 UNK     1      10.561   6.587   6.114  1.00  0.00     0.015 A 
HETATM   33  C18 UNK     1       9.271   5.996   5.997  1.00  0.00     0.008 A 
HETATM   34  C19 UNK     1       8.603   5.967   7.202  1.00  0.00     0.050 A 
HETATM   35  S1  UNK     1       9.533   6.651   8.467  1.00  0.00    -0.106 SA
ENDBRANCH   4  31
TORSDOF 2
ENDMDL
MODEL 3
REMARK VINA RESULT:      -8.7      5.625      8.159
REMARK  2 active torsions:
REMARK  status: ('A' for Active; 'I' for Inactive)
REMARK    1  A    between atoms: C1_8  and  C8_15 
REMARK    2  A    between atoms: C6_13  and  C9_16 
ROOT
HETATM    1  O1  UNK     1      27.517 -10.703  39.197  1.00  0.00    -0.293 OA
HETATM    2  N1  UNK     1      28.230  -6.173  37.702  1.00  0.00    -0.357 N 
HETATM    3  N2  UNK     1      30.403  -7.974  38.743  1.00  0.00    -0.375 N 
HETATM    4  C1  UNK     1      25.141  -8.186  38.365  1.00  0.00     0.038 C 
HETATM    5  C2  UNK     1      26.038  -6.946  38.351  1.00  0.00     0.068 C 
HETATM    6  C3  UNK     1      28.016  -8.490  38.440  1.00  0.00     0.037 C 
HETATM    7  C4  UNK     1      27.520  -7.259  38.182  1.00  0.00     0.022 C 
HETATM    8  C5  UNK     1      25.689  -9.196  39.363  1.00  0.00     0.094 C 
HETATM    9  C6  UNK     1      29.442  -8.907  38.183  1.00  0.00     0.160 C 
HETATM   10  C7  UNK     1      27.107  -9.560  38.996  1.00  0.00     0.160 C 
HETATM   11  C10 UNK     1      29.601  -5.855  37.755  1.00  0.00     0.059 A 
HETATM   12  C11 UNK     1      30.603  -6.676  38.302  1.00  0.00     0.055 A 
HETATM   13  C15 UNK     1      29.969  -4.581  37.259  1.00  0.00     0.032 A 
HETATM   14  C16 UNK     1      31.921  -6.170  38.377  1.00  0.00     0.031 A 
HETATM   15  C21 UNK     1      31.279  -4.112  37.326  1.00  0.00     0.002 A 
HETATM   16  C22 UNK     1      32.258  -4.907  37.896  1.00  0.00     0.002 A 
HETATM   17  H7  UNK     1      27.647  -5.417  37.354  1.00  0.00     0.166 HD
HETATM   18  H8  UNK     1      31.164  -8.389  39.274  1.00  0.00     0.160 HD
ENDROOT
BRANCH   9  19
HETATM   19  C9  UNK     1      29.735  -9.162  36.735  1.00  0.00     0.042 A 
HETATM   20  C13 UNK     1      31.118  -9.536  36.347  1.00  0.00     0.195 A 
HETATM   21  O3  UNK     1      32.019  -9.642  37.169  1.00  0.00    -0.287 OA
HETATM   22  C17 UNK     1      31.352  -9.776  34.911  1.00  0.00     0.050 A 
HETATM   23  C20 UNK     1      30.288  -9.641  34.018  1.00  0.00     0.089 A 
HETATM   24  C23 UNK     1      32.621 -10.133  34.445  1.00  0.00     0.042 A 
HETATM   25  O2  UNK     1      29.023  -9.293  34.420  1.00  0.00    -0.321 OA
HETATM   26  C24 UNK     1      30.487  -9.863  32.655  1.00  0.00     0.040 A 
HETATM   27  C14 UNK     1      28.821  -9.073  35.760  1.00  0.00     0.156 A 
HETATM   28  C26 UNK     1      31.752 -10.220  32.188  1.00  0.00     0.026 A 
HETATM   29  C25 UNK     1      32.816 -10.355  33.081  1.00  0.00     0.035 A 
HETATM   30 Cl1  UNK     1      34.375 -10.795  32.498  1.00  0.00    -0.084 Cl
ENDBRANCH   9  19
BRANCH   4  31
HETATM   31  C8  UNK     1      23.686  -7.837  38.638  1.00  0.00    -0.013 A 
HETATM   32  C12 UNK     1      23.172  -7.029  39.625  1.00  0.00     0.015 A 
HETATM   33  C18 UNK     1      21.753  -6.944  39.557  1.00  0.00     0.008 A 
HETATM   34  C19 UNK     1      21.237  -7.692  38.520  1.00  0.00     0.050 A 
HETATM   35  S1  UNK     1      22.466  -8.491  37.634  1.00  0.00    -0.106 SA
ENDBRANCH   4  31
TORSDOF 2
ENDMDL
MODEL 4
REMARK VINA RESULT:      -8.4      5.728      8.527
REMARK  2 active torsions:
REMARK  status: ('A' for Active; 'I' for Inactive)
REMARK    1  A    between atoms: C1_8  and  C8_15 
REMARK    2  A    between atoms: C6_13  and  C9_16 
ROOT
HETATM    1  O1  UNK     1      26.871 -10.736  35.751  1.00  0.00    -0.293 OA
HETATM    2  N1  UNK     1      28.234  -6.660  37.940  1.00  0.00    -0.357 N 
HETATM    3  N2  UNK     1      30.141  -8.717  36.852  1.00  0.00    -0.375 N 
HETATM    4  C1  UNK     1      24.918  -8.358  37.540  1.00  0.00     0.038 C 
HETATM    5  C2  UNK     1      26.019  -7.567  38.251  1.00  0.00     0.068 C 
HETATM    6  C3  UNK     1      27.682  -8.731  36.772  1.00  0.00     0.037 C 
HETATM    7  C4  UNK     1      27.394  -7.707  37.606  1.00  0.00     0.022 C 
HETATM    8  C5  UNK     1      25.376  -9.795  37.338  1.00  0.00     0.094 C 
HETATM    9  C6  UNK     1      28.972  -8.871  36.005  1.00  0.00     0.160 C 
HETATM   10  C7  UNK     1      26.657  -9.816  36.540  1.00  0.00     0.160 C 
HETATM   11  C10 UNK     1      29.638  -6.546  37.923  1.00  0.00     0.059 A 
HETATM   12  C11 UNK     1      30.526  -7.539  37.472  1.00  0.00     0.055 A 
HETATM   13  C15 UNK     1      30.177  -5.350  38.454  1.00  0.00     0.032 A 
HETATM   14  C16 UNK     1      31.914  -7.316  37.618  1.00  0.00     0.031 A 
HETATM   15  C21 UNK     1      31.550  -5.145  38.570  1.00  0.00     0.002 A 
HETATM   16  C22 UNK     1      32.423  -6.137  38.158  1.00  0.00     0.002 A 
HETATM   17  H7  UNK     1      27.765  -5.877  38.386  1.00  0.00     0.166 HD
HETATM   18  H8  UNK     1      30.866  -9.420  36.737  1.00  0.00     0.160 HD
ENDROOT
BRANCH   9  19
HETATM   19  C9  UNK     1      29.058  -7.962  34.816  1.00  0.00     0.042 A 
HETATM   20  C13 UNK     1      30.124  -8.207  33.812  1.00  0.00     0.195 A 
HETATM   21  O3  UNK     1      30.927  -9.123  33.926  1.00  0.00    -0.287 OA
HETATM   22  C17 UNK     1      30.163  -7.285  32.662  1.00  0.00     0.050 A 
HETATM   23  C20 UNK     1      29.222  -6.258  32.583  1.00  0.00     0.089 A 
HETATM   24  C23 UNK     1      31.130  -7.432  31.663  1.00  0.00     0.042 A 
HETATM   25  O2  UNK     1      28.252  -6.067  33.534  1.00  0.00    -0.321 OA
HETATM   26  C24 UNK     1      29.241  -5.373  31.504  1.00  0.00     0.040 A 
HETATM   27  C14 UNK     1      28.228  -6.933  34.599  1.00  0.00     0.156 A 
HETATM   28  C26 UNK     1      30.204  -5.519  30.505  1.00  0.00     0.026 A 
HETATM   29  C25 UNK     1      31.146  -6.546  30.585  1.00  0.00     0.035 A 
HETATM   30 Cl1  UNK     1      32.332  -6.719  29.349  1.00  0.00    -0.084 Cl
ENDBRANCH   9  19
BRANCH   4  31
HETATM   31  C8  UNK     1      23.589  -8.274  38.273  1.00  0.00    -0.013 A 
HETATM   32  C12 UNK     1      23.352  -7.883  39.570  1.00  0.00     0.015 A 
HETATM   33  C18 UNK     1      21.967  -7.935  39.897  1.00  0.00     0.008 A 
HETATM   34  C19 UNK     1      21.200  -8.365  38.836  1.00  0.00     0.050 A 
HETATM   35  S1  UNK     1      22.151  -8.703  37.452  1.00  0.00    -0.106 SA
ENDBRANCH   4  31
TORSDOF 2
ENDMDL
MODEL 5
REMARK VINA RESULT:      -8.4     32.070     34.959
REMARK  2 active torsions:
REMARK  status: ('A' for Active; 'I' for Inactive)
REMARK    1  A    between atoms: C1_8  and  C8_15 
REMARK    2  A    between atoms: C6_13  and  C9_16 
ROOT
HETATM    1  O1  UNK     1      18.053  13.762   6.827  1.00  0.00    -0.293 OA
HETATM    2  N1  UNK     1      15.321  11.384  10.012  1.00  0.00    -0.357 N 
HETATM    3  N2  UNK     1      17.806  10.261   8.742  1.00  0.00    -0.375 N 
HETATM    4  C1  UNK     1      14.853  14.597   8.143  1.00  0.00     0.038 C 
HETATM    5  C2  UNK     1      14.449  13.260   8.771  1.00  0.00     0.068 C 
HETATM    6  C3  UNK     1      16.816  12.492   8.432  1.00  0.00     0.037 C 
HETATM    7  C4  UNK     1      15.624  12.330   9.049  1.00  0.00     0.022 C 
HETATM    8  C5  UNK     1      15.754  14.341   6.943  1.00  0.00     0.094 C 
HETATM    9  C6  UNK     1      18.055  11.692   8.744  1.00  0.00     0.160 C 
HETATM   10  C7  UNK     1      16.969  13.558   7.374  1.00  0.00     0.160 C 
HETATM   11  C10 UNK     1      15.899  10.134  10.309  1.00  0.00     0.059 A 
HETATM   12  C11 UNK     1      17.023   9.587   9.665  1.00  0.00     0.055 A 
HETATM   13  C15 UNK     1      15.248   9.362  11.301  1.00  0.00     0.032 A 
HETATM   14  C16 UNK     1      17.420   8.273  10.004  1.00  0.00     0.031 A 
HETATM   15  C21 UNK     1      15.669   8.076  11.632  1.00  0.00     0.002 A 
HETATM   16  C22 UNK     1      16.756   7.525  10.973  1.00  0.00     0.002 A 
HETATM   17  H7  UNK     1      14.460  11.568  10.519  1.00  0.00     0.166 HD
HETATM   18  H8  UNK     1      18.477   9.697   8.227  1.00  0.00     0.160 HD
ENDROOT
BRANCH   9  19
HETATM   19  C9  UNK     1      18.729  12.109  10.016  1.00  0.00     0.042 A 
HETATM   20  C13 UNK     1      20.193  11.903  10.143  1.00  0.00     0.195 A 
HETATM   21  O3  UNK     1      20.861  11.407   9.245  1.00  0.00    -0.287 OA
HETATM   22  C17 UNK     1      20.806  12.332  11.414  1.00  0.00     0.050 A 
HETATM   23  C20 UNK     1      19.996  12.892  12.403  1.00  0.00     0.089 A 
HETATM   24  C23 UNK     1      22.178  12.180  11.631  1.00  0.00     0.042 A 
HETATM   25  O2  UNK     1      18.644  13.065  12.243  1.00  0.00    -0.321 OA
HETATM   26  C24 UNK     1      20.555  13.304  13.613  1.00  0.00     0.040 A 
HETATM   27  C14 UNK     1      18.088  12.661  11.055  1.00  0.00     0.156 A 
HETATM   28  C26 UNK     1      21.924  13.154  13.832  1.00  0.00     0.026 A 
HETATM   29  C25 UNK     1      22.733  12.594  12.843  1.00  0.00     0.035 A 
HETATM   30 Cl1  UNK     1      24.424  12.411  13.119  1.00  0.00    -0.084 Cl
ENDBRANCH   9  19
BRANCH   4  31
HETATM   31  C8  UNK     1      13.646  15.450   7.787  1.00  0.00    -0.013 A 
HETATM   32  C12 UNK     1      13.488  16.305   6.722  1.00  0.00     0.015 A 
HETATM   33  C18 UNK     1      12.209  16.929   6.726  1.00  0.00     0.008 A 
HETATM   34  C19 UNK     1      11.438  16.526   7.795  1.00  0.00     0.050 A 
HETATM   35  S1  UNK     1      12.260  15.398   8.788  1.00  0.00    -0.106 SA
ENDBRANCH   4  31
TORSDOF 2
ENDMDL
MODEL 6
REMARK VINA RESULT:      -8.3      1.833      2.274
REMARK  2 active torsions:
REMARK  status: ('A' for Active; 'I' for Inactive)
REMARK    1  A    between atoms: C1_8  and  C8_15 
REMARK    2  A    between atoms: C6_13  and  C9_16 
ROOT
HETATM    1  O1  UNK     1      33.972  -6.166  33.736  1.00  0.00    -0.293 OA
HETATM    2  N1  UNK     1      29.637  -7.914  32.548  1.00  0.00    -0.357 N 
HETATM    3  N2  UNK     1      31.921  -7.594  30.616  1.00  0.00    -0.375 N 
HETATM    4  C1  UNK     1      30.958  -6.239  35.628  1.00  0.00     0.038 C 
HETATM    5  C2  UNK     1      29.944  -6.572  34.530  1.00  0.00     0.068 C 
HETATM    6  C3  UNK     1      31.886  -7.094  33.025  1.00  0.00     0.037 C 
HETATM    7  C4  UNK     1      30.565  -7.205  33.290  1.00  0.00     0.022 C 
HETATM    8  C5  UNK     1      32.113  -5.450  35.028  1.00  0.00     0.094 C 
HETATM    9  C6  UNK     1      32.591  -7.790  31.889  1.00  0.00     0.160 C 
HETATM   10  C7  UNK     1      32.758  -6.249  33.923  1.00  0.00     0.160 C 
HETATM   11  C10 UNK     1      29.629  -8.317  31.198  1.00  0.00     0.059 A 
HETATM   12  C11 UNK     1      30.676  -8.105  30.284  1.00  0.00     0.055 A 
HETATM   13  C15 UNK     1      28.443  -8.934  30.734  1.00  0.00     0.032 A 
HETATM   14  C16 UNK     1      30.475  -8.474  28.934  1.00  0.00     0.031 A 
HETATM   15  C21 UNK     1      28.275  -9.307  29.403  1.00  0.00     0.002 A 
HETATM   16  C22 UNK     1      29.294  -9.067  28.496  1.00  0.00     0.002 A 
HETATM   17  H7  UNK     1      28.755  -8.072  33.027  1.00  0.00     0.166 HD
HETATM   18  H8  UNK     1      32.519  -7.330  29.838  1.00  0.00     0.160 HD
ENDROOT
BRANCH   9  19
HETATM   19  C9  UNK     1      32.829  -9.249  32.142  1.00  0.00     0.042 A 
HETATM   20  C13 UNK     1      33.506 -10.049  31.091  1.00  0.00     0.195 A 
HETATM   21  O3  UNK     1      33.875  -9.555  30.033  1.00  0.00    -0.287 OA
HETATM   22  C17 UNK     1      33.716 -11.477  31.390  1.00  0.00     0.050 A 
HETATM   23  C20 UNK     1      33.277 -11.986  32.612  1.00  0.00     0.089 A 
HETATM   24  C23 UNK     1      34.345 -12.315  30.464  1.00  0.00     0.042 A 
HETATM   25  O2  UNK     1      32.655 -11.210  33.557  1.00  0.00    -0.321 OA
HETATM   26  C24 UNK     1      33.465 -13.335  32.916  1.00  0.00     0.040 A 
HETATM   27  C14 UNK     1      32.466  -9.882  33.265  1.00  0.00     0.156 A 
HETATM   28  C26 UNK     1      34.093 -14.172  31.994  1.00  0.00     0.026 A 
HETATM   29  C25 UNK     1      34.532 -13.663  30.771  1.00  0.00     0.035 A 
HETATM   30 Cl1  UNK     1      35.306 -14.703  29.637  1.00  0.00    -0.084 Cl
ENDBRANCH   9  19
BRANCH   4  31
HETATM   31  C8  UNK     1      30.313  -5.516  36.801  1.00  0.00    -0.013 A 
HETATM   32  C12 UNK     1      30.696  -4.335  37.391  1.00  0.00     0.015 A 
HETATM   33  C18 UNK     1      29.838  -3.977  38.469  1.00  0.00     0.008 A 
HETATM   34  C19 UNK     1      28.834  -4.900  38.661  1.00  0.00     0.050 A 
HETATM   35  S1  UNK     1      28.928  -6.193  37.542  1.00  0.00    -0.106 SA
ENDBRANCH   4  31
TORSDOF 2
ENDMDL
MODEL 7
REMARK VINA RESULT:      -8.3      4.299      7.208
REMARK  2 active torsions:
REMARK  status: ('A' for Active; 'I' for Inactive)
REMARK    1  A    between atoms: C1_8  and  C8_15 
REMARK    2  A    between atoms: C6_13  and  C9_16 
ROOT
HETATM    1  O1  UNK     1      35.257  -6.656  31.395  1.00  0.00    -0.293 OA
HETATM    2  N1  UNK     1      33.424  -9.854  34.505  1.00  0.00    -0.357 N 
HETATM    3  N2  UNK     1      32.596  -6.965  34.362  1.00  0.00    -0.375 N 
HETATM    4  C1  UNK     1      36.324  -9.969  32.136  1.00  0.00     0.038 C 
HETATM    5  C2  UNK     1      35.552 -10.230  33.432  1.00  0.00     0.068 C 
HETATM    6  C3  UNK     1      34.231  -8.150  32.955  1.00  0.00     0.037 C 
HETATM    7  C4  UNK     1      34.348  -9.316  33.628  1.00  0.00     0.022 C 
HETATM    8  C5  UNK     1      36.636  -8.484  32.023  1.00  0.00     0.094 C 
HETATM    9  C6  UNK     1      33.018  -7.255  33.004  1.00  0.00     0.160 C 
HETATM   10  C7  UNK     1      35.354  -7.689  32.057  1.00  0.00     0.160 C 
HETATM   11  C10 UNK     1      32.404  -9.256  35.271  1.00  0.00     0.059 A 
HETATM   12  C11 UNK     1      32.066  -7.892  35.246  1.00  0.00     0.055 A 
HETATM   13  C15 UNK     1      31.713 -10.106  36.168  1.00  0.00     0.032 A 
HETATM   14  C16 UNK     1      31.087  -7.425  36.153  1.00  0.00     0.031 A 
HETATM   15  C21 UNK     1      30.738  -9.626  37.039  1.00  0.00     0.002 A 
HETATM   16  C22 UNK     1      30.430  -8.276  37.038  1.00  0.00     0.002 A 
HETATM   17  H7  UNK     1      33.581 -10.833  34.726  1.00  0.00     0.166 HD
HETATM   18  H8  UNK     1      32.399  -5.990  34.565  1.00  0.00     0.160 HD
ENDROOT
BRANCH   9  19
HETATM   19  C9  UNK     1      31.867  -7.767  32.190  1.00  0.00     0.042 A 
HETATM   20  C13 UNK     1      30.611  -6.977  32.163  1.00  0.00     0.195 A 
HETATM   21  O3  UNK     1      30.490  -5.926  32.779  1.00  0.00    -0.287 OA
HETATM   22  C17 UNK     1      29.512  -7.525  31.348  1.00  0.00     0.050 A 
HETATM   23  C20 UNK     1      29.706  -8.726  30.665  1.00  0.00     0.089 A 
HETATM   24  C23 UNK     1      28.289  -6.854  31.257  1.00  0.00     0.042 A 
HETATM   25  O2  UNK     1      30.886  -9.425  30.718  1.00  0.00    -0.321 OA
HETATM   26  C24 UNK     1      28.679  -9.263  29.889  1.00  0.00     0.040 A 
HETATM   27  C14 UNK     1      31.900  -8.903  31.481  1.00  0.00     0.156 A 
HETATM   28  C26 UNK     1      27.458  -8.596  29.797  1.00  0.00     0.026 A 
HETATM   29  C25 UNK     1      27.264  -7.394  30.479  1.00  0.00     0.035 A 
HETATM   30 Cl1  UNK     1      25.753  -6.575  30.362  1.00  0.00    -0.084 Cl
ENDBRANCH   9  19
BRANCH   4  31
HETATM   31  C8  UNK     1      37.574 -10.830  32.031  1.00  0.00    -0.013 A 
HETATM   32  C12 UNK     1      38.492 -10.880  31.010  1.00  0.00     0.015 A 
HETATM   33  C18 UNK     1      39.533 -11.815  31.276  1.00  0.00     0.008 A 
HETATM   34  C19 UNK     1      39.367 -12.443  32.491  1.00  0.00     0.050 A 
HETATM   35  S1  UNK     1      37.960 -11.904  33.305  1.00  0.00    -0.106 SA
ENDBRANCH   4  31
TORSDOF 2
ENDMDL
MODEL 8
REMARK VINA RESULT:      -8.2     33.005     35.546
REMARK  2 active torsions:
REMARK  status: ('A' for Active; 'I' for Inactive)
REMARK    1  A    between atoms: C1_8  and  C8_15 
REMARK    2  A    between atoms: C6_13  and  C9_16 
ROOT
HETATM    1  O1  UNK     1      17.627   8.086  10.110  1.00  0.00    -0.293 OA
HETATM    2  N1  UNK     1      14.335  11.511   9.280  1.00  0.00    -0.357 N 
HETATM    3  N2  UNK     1      16.775  11.889  10.998  1.00  0.00    -0.375 N 
HETATM    4  C1  UNK     1      14.441   7.840   8.543  1.00  0.00     0.038 C 
HETATM    5  C2  UNK     1      13.819   9.176   8.957  1.00  0.00     0.068 C 
HETATM    6  C3  UNK     1      16.097   9.886   9.741  1.00  0.00     0.037 C 
HETATM    7  C4  UNK     1      14.841  10.227   9.376  1.00  0.00     0.022 C 
HETATM    8  C5  UNK     1      15.414   7.379   9.619  1.00  0.00     0.094 C 
HETATM    9  C6  UNK     1      17.194  10.873  10.050  1.00  0.00     0.160 C 
HETATM   10  C7  UNK     1      16.479   8.428   9.827  1.00  0.00     0.160 C 
HETATM   11  C10 UNK     1      14.726  12.718   9.892  1.00  0.00     0.059 A 
HETATM   12  C11 UNK     1      15.832  12.873  10.747  1.00  0.00     0.055 A 
HETATM   13  C15 UNK     1      13.894  13.840   9.656  1.00  0.00     0.032 A 
HETATM   14  C16 UNK     1      16.032  14.126  11.368  1.00  0.00     0.031 A 
HETATM   15  C21 UNK     1      14.123  15.071  10.266  1.00  0.00     0.002 A 
HETATM   16  C22 UNK     1      15.192  15.212  11.134  1.00  0.00     0.002 A 
HETATM   17  H7  UNK     1      13.458  11.576   8.771  1.00  0.00     0.166 HD
HETATM   18  H8  UNK     1      17.418  12.071  11.763  1.00  0.00     0.160 HD
ENDROOT
BRANCH   9  19
HETATM   19  C9  UNK     1      17.789  11.503   8.826  1.00  0.00     0.042 A 
HETATM   20  C13 UNK     1      19.052  12.270   8.967  1.00  0.00     0.195 A 
HETATM   21  O3  UNK     1      19.618  12.399  10.045  1.00  0.00    -0.287 OA
HETATM   22  C17 UNK     1      19.594  12.869   7.734  1.00  0.00     0.050 A 
HETATM   23  C20 UNK     1      18.907  12.689   6.533  1.00  0.00     0.089 A 
HETATM   24  C23 UNK     1      20.779  13.610   7.762  1.00  0.00     0.042 A 
HETATM   25  O2  UNK     1      17.741  11.971   6.447  1.00  0.00    -0.321 OA
HETATM   26  C24 UNK     1      19.402  13.247   5.354  1.00  0.00     0.040 A 
HETATM   27  C14 UNK     1      17.248  11.419   7.604  1.00  0.00     0.156 A 
HETATM   28  C26 UNK     1      20.584  13.986   5.379  1.00  0.00     0.026 A 
HETATM   29  C25 UNK     1      21.271  14.167   6.581  1.00  0.00     0.035 A 
HETATM   30 Cl1  UNK     1      22.730  15.081   6.606  1.00  0.00    -0.084 Cl
ENDBRANCH   9  19
BRANCH   4  31
HETATM   31  C8  UNK     1      13.385   6.790   8.233  1.00  0.00    -0.013 A 
HETATM   32  C12 UNK     1      13.488   5.422   8.325  1.00  0.00     0.015 A 
HETATM   33  C18 UNK     1      12.279   4.771   7.948  1.00  0.00     0.008 A 
HETATM   34  C19 UNK     1      11.300   5.668   7.581  1.00  0.00     0.050 A 
HETATM   35  S1  UNK     1      11.840   7.289   7.694  1.00  0.00    -0.106 SA
ENDBRANCH   4  31
TORSDOF 2
ENDMDL
MODEL 9
REMARK VINA RESULT:      -8.2      3.815      7.969
REMARK  2 active torsions:
REMARK  status: ('A' for Active; 'I' for Inactive)
REMARK    1  A    between atoms: C1_8  and  C8_15 
REMARK    2  A    between atoms: C6_13  and  C9_16 
ROOT
HETATM    1  O1  UNK     1      31.602 -13.180  34.534  1.00  0.00    -0.293 OA
HETATM    2  N1  UNK     1      29.931 -10.875  30.641  1.00  0.00    -0.357 N 
HETATM    3  N2  UNK     1      29.455  -9.979  33.474  1.00  0.00    -0.375 N 
HETATM    4  C1  UNK     1      31.580 -14.203  31.125  1.00  0.00     0.038 C 
HETATM    5  C2  UNK     1      30.595 -13.192  30.534  1.00  0.00     0.068 C 
HETATM    6  C3  UNK     1      30.756 -11.915  32.690  1.00  0.00     0.037 C 
HETATM    7  C4  UNK     1      30.415 -11.938  31.382  1.00  0.00     0.022 C 
HETATM    8  C5  UNK     1      31.219 -14.472  32.579  1.00  0.00     0.094 C 
HETATM    9  C6  UNK     1      30.722 -10.684  33.559  1.00  0.00     0.160 C 
HETATM   10  C7  UNK     1      31.240 -13.180  33.358  1.00  0.00     0.160 C 
HETATM   11  C10 UNK     1      29.263  -9.695  31.026  1.00  0.00     0.059 A 
HETATM   12  C11 UNK     1      28.987  -9.316  32.351  1.00  0.00     0.055 A 
HETATM   13  C15 UNK     1      28.795  -8.869  29.976  1.00  0.00     0.032 A 
HETATM   14  C16 UNK     1      28.213  -8.153  32.571  1.00  0.00     0.031 A 
HETATM   15  C21 UNK     1      28.050  -7.717  30.218  1.00  0.00     0.002 A 
HETATM   16  C22 UNK     1      27.750  -7.362  31.522  1.00  0.00     0.002 A 
HETATM   17  H7  UNK     1      29.956 -11.022  29.636  1.00  0.00     0.166 HD
HETATM   18  H8  UNK     1      29.041  -9.706  34.361  1.00  0.00     0.160 HD
ENDROOT
BRANCH   9  19
HETATM   19  C9  UNK     1      31.865  -9.747  33.310  1.00  0.00     0.042 A 
HETATM   20  C13 UNK     1      31.952  -8.503  34.116  1.00  0.00     0.195 A 
HETATM   21  O3  UNK     1      31.123  -8.224  34.973  1.00  0.00    -0.287 OA
HETATM   22  C17 UNK     1      33.096  -7.618  33.831  1.00  0.00     0.050 A 
HETATM   23  C20 UNK     1      34.011  -7.987  32.844  1.00  0.00     0.089 A 
HETATM   24  C23 UNK     1      33.265  -6.423  34.537  1.00  0.00     0.042 A 
HETATM   25  O2  UNK     1      33.893  -9.147  32.122  1.00  0.00    -0.321 OA
HETATM   26  C24 UNK     1      35.100  -7.164  32.558  1.00  0.00     0.040 A 
HETATM   27  C14 UNK     1      32.823  -9.962  32.398  1.00  0.00     0.156 A 
HETATM   28  C26 UNK     1      35.272  -5.971  33.261  1.00  0.00     0.026 A 
HETATM   29  C25 UNK     1      34.357  -5.603  34.248  1.00  0.00     0.035 A 
HETATM   30 Cl1  UNK     1      34.574  -4.128  35.112  1.00  0.00    -0.084 Cl
ENDBRANCH   9  19
BRANCH   4  31
HETATM   31  C8  UNK     1      31.651 -15.481  30.303  1.00  0.00    -0.013 A 
HETATM   32  C12 UNK     1      30.636 -16.125  29.636  1.00  0.00     0.015 A 
HETATM   33  C18 UNK     1      31.095 -17.298  28.974  1.00  0.00     0.008 A 
HETATM   34  C19 UNK     1      32.444 -17.505  29.161  1.00  0.00     0.050 A 
HETATM   35  S1  UNK     1      33.151 -16.285  30.133  1.00  0.00    -0.106 SA
ENDBRANCH   4  31
TORSDOF 2
ENDMDL
MODEL 10
REMARK VINA RESULT:      -8.2      4.079      8.245
REMARK  2 active torsions:
REMARK  status: ('A' for Active; 'I' for Inactive)
REMARK    1  A    between atoms: C1_8  and  C8_15 
REMARK    2  A    between atoms: C6_13  and  C9_16 
ROOT
HETATM    1  O1  UNK     1      33.512 -12.382  30.573  1.00  0.00    -0.293 OA
HETATM    2  N1  UNK     1      31.418 -11.591  34.845  1.00  0.00    -0.357 N 
HETATM    3  N2  UNK     1      33.516  -9.808  33.631  1.00  0.00    -0.375 N 
HETATM    4  C1  UNK     1      31.380 -14.498  32.483  1.00  0.00     0.038 C 
HETATM    5  C2  UNK     1      31.411 -13.782  33.836  1.00  0.00     0.068 C 
HETATM    6  C3  UNK     1      32.518 -11.846  32.681  1.00  0.00     0.037 C 
HETATM    7  C4  UNK     1      31.843 -12.322  33.751  1.00  0.00     0.022 C 
HETATM    8  C5  UNK     1      32.700 -14.272  31.760  1.00  0.00     0.094 C 
HETATM    9  C6  UNK     1      32.871 -10.396  32.471  1.00  0.00     0.160 C 
HETATM   10  C7  UNK     1      32.939 -12.792  31.582  1.00  0.00     0.160 C 
HETATM   11  C10 UNK     1      31.876 -10.375  35.392  1.00  0.00     0.059 A 
HETATM   12  C11 UNK     1      32.902  -9.580  34.853  1.00  0.00     0.055 A 
HETATM   13  C15 UNK     1      31.277  -9.970  36.609  1.00  0.00     0.032 A 
HETATM   14  C16 UNK     1      33.321  -8.440  35.577  1.00  0.00     0.031 A 
HETATM   15  C21 UNK     1      31.693  -8.831  37.295  1.00  0.00     0.002 A 
HETATM   16  C22 UNK     1      32.727  -8.068  36.781  1.00  0.00     0.002 A 
HETATM   17  H7  UNK     1      30.733 -12.068  35.425  1.00  0.00     0.166 HD
HETATM   18  H8  UNK     1      34.354  -9.266  33.444  1.00  0.00     0.160 HD
ENDROOT
BRANCH   9  19
HETATM   19  C9  UNK     1      31.708  -9.558  32.031  1.00  0.00     0.042 A 
HETATM   20  C13 UNK     1      31.932  -8.112  31.777  1.00  0.00     0.195 A 
HETATM   21  O3  UNK     1      33.030  -7.590  31.914  1.00  0.00    -0.287 OA
HETATM   22  C17 UNK     1      30.755  -7.335  31.346  1.00  0.00     0.050 A 
HETATM   23  C20 UNK     1      29.528  -7.983  31.205  1.00  0.00     0.089 A 
HETATM   24  C23 UNK     1      30.863  -5.967  31.082  1.00  0.00     0.042 A 
HETATM   25  O2  UNK     1      29.365  -9.323  31.450  1.00  0.00    -0.321 OA
HETATM   26  C24 UNK     1      28.402  -7.267  30.799  1.00  0.00     0.040 A 
HETATM   27  C14 UNK     1      30.469 -10.034  31.851  1.00  0.00     0.156 A 
HETATM   28  C26 UNK     1      28.507  -5.901  30.534  1.00  0.00     0.026 A 
HETATM   29  C25 UNK     1      29.734  -5.253  30.676  1.00  0.00     0.035 A 
HETATM   30 Cl1  UNK     1      29.857  -3.567  30.348  1.00  0.00    -0.084 Cl
ENDBRANCH   9  19
BRANCH   4  31
HETATM   31  C8  UNK     1      31.046 -15.975  32.625  1.00  0.00    -0.013 A 
HETATM   32  C12 UNK     1      30.384 -16.606  33.651  1.00  0.00     0.015 A 
HETATM   33  C18 UNK     1      30.260 -18.006  33.423  1.00  0.00     0.008 A 
HETATM   34  C19 UNK     1      30.833 -18.389  32.231  1.00  0.00     0.050 A 
HETATM   35  S1  UNK     1      31.517 -17.062  31.392  1.00  0.00    -0.106 SA
ENDBRANCH   4  31
TORSDOF 2
ENDMDL
