MODEL 1
REMARK VINA RESULT:     -10.6      0.000      0.000
REMARK  5 active torsions:
REMARK  status: ('A' for Active; 'I' for Inactive)
REMARK    1  A    between atoms: C1_11  and  S1_1 
REMARK    2  A    between atoms: N2_8  and  S1_1 
REMARK       I    between atoms: C11_21  and  N1_7 
REMARK    3  A    between atoms: C2_12  and  N1_7 
REMARK    4  A    between atoms: C15_25  and  N2_8 
REMARK    5  A    between atoms: C11_21  and  C8_18 
ROOT
HETATM    1  C1  UNK     1      18.585  -0.071  35.962  1.00  0.00     0.080 A 
HETATM    2  C2  UNK     1      19.041  -2.791  36.200  1.00  0.00     0.035 A 
HETATM    3  C3  UNK     1      19.354  -0.735  35.006  1.00  0.00     0.027 A 
HETATM    4  C4  UNK     1      18.046  -0.777  37.037  1.00  0.00     0.027 A 
HETATM    5  C6  UNK     1      19.583  -2.106  35.125  1.00  0.00     0.031 A 
HETATM    6  C7  UNK     1      18.276  -2.148  37.157  1.00  0.00     0.031 A 
ENDROOT
BRANCH   2   7
HETATM    7  N1  UNK     1      19.274  -4.183  36.321  1.00  0.00    -0.323 N 
HETATM    8  C11 UNK     1      20.408  -4.812  36.815  1.00  0.00     0.262 C 
HETATM    9  O4  UNK     1      21.437  -4.293  37.246  1.00  0.00    -0.267 OA
HETATM   10  H5  UNK     1      18.493  -4.761  36.021  1.00  0.00     0.169 HD
BRANCH   8  11
HETATM   11  C8  UNK     1      20.287  -6.275  36.788  1.00  0.00     0.108 A 
HETATM   12  C10 UNK     1      20.048  -6.870  37.962  1.00  0.00     0.037 A 
HETATM   13  C5  UNK     1      19.913  -8.317  38.036  1.00  0.00    -0.001 A 
HETATM   14  C13 UNK     1      19.662  -8.980  39.240  1.00  0.00     0.014 A 
HETATM   15  C9  UNK     1      20.036  -9.065  36.870  1.00  0.00     0.089 A 
HETATM   16  C16 UNK     1      19.541 -10.372  39.259  1.00  0.00     0.001 A 
HETATM   17  C17 UNK     1      19.667 -11.107  38.078  1.00  0.00     0.003 A 
HETATM   18  C14 UNK     1      19.916 -10.453  36.873  1.00  0.00     0.038 A 
HETATM   19  O1  UNK     1      20.287  -8.432  35.636  1.00  0.00    -0.274 OA
HETATM   20  C12 UNK     1      20.421  -7.051  35.534  1.00  0.00     0.304 A 
HETATM   21  O5  UNK     1      20.642  -6.509  34.456  1.00  0.00    -0.259 OA
ENDBRANCH   8  11
ENDBRANCH   2   7
BRANCH   1  22
HETATM   22  S1  UNK     1      18.298   1.645  35.812  1.00  0.00     0.276 S 
HETATM   23  O2  UNK     1      17.338   2.037  36.836  1.00  0.00    -0.200 OA
HETATM   24  O3  UNK     1      19.590   2.317  35.746  1.00  0.00    -0.200 OA
BRANCH  22  25
HETATM   25  N2  UNK     1      17.546   1.727  34.281  1.00  0.00    -0.109 N 
HETATM   26  H7  UNK     1      16.683   1.193  34.124  1.00  0.00     0.198 HD
BRANCH  25  27
HETATM   27  C15 UNK     1      17.904   2.620  33.244  1.00  0.00     0.736 A 
HETATM   28  N3  UNK     1      18.081   2.090  32.013  1.00  0.00    -0.067 NA
HETATM   29  C18 UNK     1      18.421   2.969  31.048  1.00  0.00     0.051 A 
HETATM   30  C19 UNK     1      18.587   4.321  31.267  1.00  0.00     0.047 A 
HETATM   31  C21 UNK     1      18.623   2.416  29.677  1.00  0.00     0.071 C 
HETATM   32  C20 UNK     1      18.380   4.746  32.563  1.00  0.00     0.138 A 
HETATM   33  N4  UNK     1      18.038   3.923  33.576  1.00  0.00    -0.074 NA
ENDBRANCH  25  27
ENDBRANCH  22  25
ENDBRANCH   1  22
TORSDOF 5
ENDMDL
MODEL 2
REMARK VINA RESULT:     -10.3      6.698     10.215
REMARK  5 active torsions:
REMARK  status: ('A' for Active; 'I' for Inactive)
REMARK    1  A    between atoms: C1_11  and  S1_1 
REMARK    2  A    between atoms: N2_8  and  S1_1 
REMARK       I    between atoms: C11_21  and  N1_7 
REMARK    3  A    between atoms: C2_12  and  N1_7 
REMARK    4  A    between atoms: C15_25  and  N2_8 
REMARK    5  A    between atoms: C11_21  and  C8_18 
ROOT
HETATM    1  C1  UNK     1      21.138  -9.380  38.387  1.00  0.00     0.080 A 
HETATM    2  C2  UNK     1      23.613  -8.141  38.441  1.00  0.00     0.035 A 
HETATM    3  C3  UNK     1      21.963  -9.419  37.262  1.00  0.00     0.027 A 
HETATM    4  C4  UNK     1      21.561  -8.716  39.538  1.00  0.00     0.027 A 
HETATM    5  C6  UNK     1      23.210  -8.795  37.290  1.00  0.00     0.031 A 
HETATM    6  C7  UNK     1      22.808  -8.092  39.566  1.00  0.00     0.031 A 
ENDROOT
BRANCH   2   7
HETATM    7  N1  UNK     1      24.880  -7.507  38.469  1.00  0.00    -0.323 N 
HETATM    8  C11 UNK     1      26.069  -8.014  38.975  1.00  0.00     0.262 C 
HETATM    9  O4  UNK     1      26.265  -9.109  39.500  1.00  0.00    -0.267 OA
HETATM   10  H5  UNK     1      24.890  -6.584  38.043  1.00  0.00     0.169 HD
BRANCH   8  11
HETATM   11  C8  UNK     1      27.182  -7.067  38.827  1.00  0.00     0.108 A 
HETATM   12  C10 UNK     1      28.401  -7.603  38.703  1.00  0.00     0.037 A 
HETATM   13  C5  UNK     1      29.567  -6.745  38.551  1.00  0.00    -0.001 A 
HETATM   14  C13 UNK     1      30.858  -7.262  38.417  1.00  0.00     0.014 A 
HETATM   15  C9  UNK     1      29.390  -5.367  38.539  1.00  0.00     0.089 A 
HETATM   16  C16 UNK     1      31.945  -6.396  38.275  1.00  0.00     0.001 A 
HETATM   17  C17 UNK     1      31.749  -5.013  38.265  1.00  0.00     0.003 A 
HETATM   18  C14 UNK     1      30.464  -4.491  38.397  1.00  0.00     0.038 A 
HETATM   19  O1  UNK     1      28.103  -4.807  38.670  1.00  0.00    -0.274 OA
HETATM   20  C12 UNK     1      26.970  -5.602  38.816  1.00  0.00     0.304 A 
HETATM   21  O5  UNK     1      25.854  -5.107  38.931  1.00  0.00    -0.259 OA
ENDBRANCH   8  11
ENDBRANCH   2   7
BRANCH   1  22
HETATM   22  S1  UNK     1      19.577 -10.161  38.351  1.00  0.00     0.276 S 
HETATM   23  O2  UNK     1      19.594 -11.162  37.292  1.00  0.00    -0.200 OA
HETATM   24  O3  UNK     1      19.240 -10.563  39.711  1.00  0.00    -0.200 OA
BRANCH  22  25
HETATM   25  N2  UNK     1      18.565  -8.869  37.882  1.00  0.00    -0.109 N 
HETATM   26  H7  UNK     1      17.642  -8.777  38.322  1.00  0.00     0.198 HD
BRANCH  25  27
HETATM   27  C15 UNK     1      18.955  -7.785  37.060  1.00  0.00     0.736 A 
HETATM   28  N3  UNK     1      19.340  -6.649  37.685  1.00  0.00    -0.067 NA
HETATM   29  C18 UNK     1      19.706  -5.637  36.872  1.00  0.00     0.051 A 
HETATM   30  C19 UNK     1      19.698  -5.719  35.495  1.00  0.00     0.047 A 
HETATM   31  C21 UNK     1      20.135  -4.369  37.531  1.00  0.00     0.071 C 
HETATM   32  C20 UNK     1      19.287  -6.928  34.971  1.00  0.00     0.138 A 
HETATM   33  N4  UNK     1      18.908  -7.981  35.724  1.00  0.00    -0.074 NA
ENDBRANCH  25  27
ENDBRANCH  22  25
ENDBRANCH   1  22
TORSDOF 5
ENDMDL
MODEL 3
REMARK VINA RESULT:     -10.0      1.859      2.495
REMARK  5 active torsions:
REMARK  status: ('A' for Active; 'I' for Inactive)
REMARK    1  A    between atoms: C1_11  and  S1_1 
REMARK    2  A    between atoms: N2_8  and  S1_1 
REMARK       I    between atoms: C11_21  and  N1_7 
REMARK    3  A    between atoms: C2_12  and  N1_7 
REMARK    4  A    between atoms: C15_25  and  N2_8 
REMARK    5  A    between atoms: C11_21  and  C8_18 
ROOT
HETATM    1  C1  UNK     1      17.925  -0.511  35.727  1.00  0.00     0.080 A 
HETATM    2  C2  UNK     1      19.300  -2.885  36.101  1.00  0.00     0.035 A 
HETATM    3  C3  UNK     1      17.765  -1.231  36.911  1.00  0.00     0.027 A 
HETATM    4  C4  UNK     1      18.778  -0.988  34.732  1.00  0.00     0.027 A 
HETATM    5  C6  UNK     1      18.457  -2.426  37.100  1.00  0.00     0.031 A 
HETATM    6  C7  UNK     1      19.471  -2.184  34.920  1.00  0.00     0.031 A 
ENDROOT
BRANCH   2   7
HETATM    7  N1  UNK     1      20.003  -4.099  36.293  1.00  0.00    -0.323 N 
HETATM    8  C11 UNK     1      19.469  -5.368  36.469  1.00  0.00     0.262 C 
HETATM    9  O4  UNK     1      18.284  -5.697  36.496  1.00  0.00    -0.267 OA
HETATM   10  H5  UNK     1      21.015  -3.999  36.275  1.00  0.00     0.169 HD
BRANCH   8  11
HETATM   11  C8  UNK     1      20.511  -6.389  36.638  1.00  0.00     0.108 A 
HETATM   12  C10 UNK     1      20.427  -7.457  35.837  1.00  0.00     0.037 A 
HETATM   13  C5  UNK     1      21.414  -8.523  35.929  1.00  0.00    -0.001 A 
HETATM   14  C13 UNK     1      21.365  -9.655  35.112  1.00  0.00     0.014 A 
HETATM   15  C9  UNK     1      22.440  -8.410  36.860  1.00  0.00     0.089 A 
HETATM   16  C16 UNK     1      22.337 -10.651  35.240  1.00  0.00     0.001 A 
HETATM   17  C17 UNK     1      23.361 -10.521  36.182  1.00  0.00     0.003 A 
HETATM   18  C14 UNK     1      23.416  -9.394  36.999  1.00  0.00     0.038 A 
HETATM   19  O1  UNK     1      22.524  -7.283  37.701  1.00  0.00    -0.274 OA
HETATM   20  C12 UNK     1      21.595  -6.248  37.636  1.00  0.00     0.304 A 
HETATM   21  O5  UNK     1      21.675  -5.271  38.373  1.00  0.00    -0.259 OA
ENDBRANCH   8  11
ENDBRANCH   2   7
BRANCH   1  22
HETATM   22  S1  UNK     1      17.058   0.985  35.492  1.00  0.00     0.276 S 
HETATM   23  O2  UNK     1      16.102   0.791  34.408  1.00  0.00    -0.200 OA
HETATM   24  O3  UNK     1      16.584   1.445  36.791  1.00  0.00    -0.200 OA
BRANCH  22  25
HETATM   25  N2  UNK     1      18.307   2.017  34.955  1.00  0.00    -0.109 N 
HETATM   26  H7  UNK     1      19.226   1.961  35.409  1.00  0.00     0.198 HD
BRANCH  25  27
HETATM   27  C15 UNK     1      18.251   2.833  33.800  1.00  0.00     0.736 A 
HETATM   28  N3  UNK     1      18.195   2.202  32.605  1.00  0.00    -0.067 NA
HETATM   29  C18 UNK     1      18.143   3.010  31.527  1.00  0.00     0.051 A 
HETATM   30  C19 UNK     1      18.145   4.388  31.599  1.00  0.00     0.047 A 
HETATM   31  C21 UNK     1      18.080   2.345  30.193  1.00  0.00     0.071 C 
HETATM   32  C20 UNK     1      18.205   4.918  32.872  1.00  0.00     0.138 A 
HETATM   33  N4  UNK     1      18.259   4.171  33.994  1.00  0.00    -0.074 NA
ENDBRANCH  25  27
ENDBRANCH  22  25
ENDBRANCH   1  22
TORSDOF 5
ENDMDL
MODEL 4
REMARK VINA RESULT:     -10.0      1.210      2.196
REMARK  5 active torsions:
REMARK  status: ('A' for Active; 'I' for Inactive)
REMARK    1  A    between atoms: C1_11  and  S1_1 
REMARK    2  A    between atoms: N2_8  and  S1_1 
REMARK       I    between atoms: C11_21  and  N1_7 
REMARK    3  A    between atoms: C2_12  and  N1_7 
REMARK    4  A    between atoms: C15_25  and  N2_8 
REMARK    5  A    between atoms: C11_21  and  C8_18 
ROOT
HETATM    1  C1  UNK     1      18.648  -0.100  36.131  1.00  0.00     0.080 A 
HETATM    2  C2  UNK     1      19.023  -2.832  36.385  1.00  0.00     0.035 A 
HETATM    3  C3  UNK     1      17.998  -0.802  37.146  1.00  0.00     0.027 A 
HETATM    4  C4  UNK     1      19.486  -0.775  35.244  1.00  0.00     0.027 A 
HETATM    5  C6  UNK     1      18.187  -2.178  37.275  1.00  0.00     0.031 A 
HETATM    6  C7  UNK     1      19.675  -2.151  35.372  1.00  0.00     0.031 A 
ENDROOT
BRANCH   2   7
HETATM    7  N1  UNK     1      19.214  -4.229  36.515  1.00  0.00    -0.323 N 
HETATM    8  C11 UNK     1      20.200  -4.884  37.241  1.00  0.00     0.262 C 
HETATM    9  O4  UNK     1      21.103  -4.389  37.913  1.00  0.00    -0.267 OA
HETATM   10  H5  UNK     1      18.521  -4.789  36.026  1.00  0.00     0.169 HD
BRANCH   8  11
HETATM   11  C8  UNK     1      20.081  -6.344  37.143  1.00  0.00     0.108 A 
HETATM   12  C10 UNK     1      21.209  -7.012  36.876  1.00  0.00     0.037 A 
HETATM   13  C5  UNK     1      21.192  -8.463  36.759  1.00  0.00    -0.001 A 
HETATM   14  C13 UNK     1      22.345  -9.201  36.482  1.00  0.00     0.014 A 
HETATM   15  C9  UNK     1      19.988  -9.137  36.931  1.00  0.00     0.089 A 
HETATM   16  C16 UNK     1      22.276 -10.593  36.380  1.00  0.00     0.001 A 
HETATM   17  C17 UNK     1      21.057 -11.253  36.555  1.00  0.00     0.003 A 
HETATM   18  C14 UNK     1      19.903 -10.524  36.832  1.00  0.00     0.038 A 
HETATM   19  O1  UNK     1      18.803  -8.428  37.213  1.00  0.00    -0.274 OA
HETATM   20  C12 UNK     1      18.789  -7.041  37.330  1.00  0.00     0.304 A 
HETATM   21  O5  UNK     1      17.752  -6.432  37.574  1.00  0.00    -0.259 OA
ENDBRANCH   8  11
ENDBRANCH   2   7
BRANCH   1  22
HETATM   22  S1  UNK     1      18.411   1.622  35.971  1.00  0.00     0.276 S 
HETATM   23  O2  UNK     1      17.377   2.028  36.916  1.00  0.00    -0.200 OA
HETATM   24  O3  UNK     1      19.717   2.267  36.017  1.00  0.00    -0.200 OA
BRANCH  22  25
HETATM   25  N2  UNK     1      17.789   1.730  34.384  1.00  0.00    -0.109 N 
HETATM   26  H7  UNK     1      17.069   1.061  34.088  1.00  0.00     0.198 HD
BRANCH  25  27
HETATM   27  C15 UNK     1      18.045   2.786  33.478  1.00  0.00     0.736 A 
HETATM   28  N3  UNK     1      18.275   4.007  34.010  1.00  0.00    -0.067 NA
HETATM   29  C18 UNK     1      18.516   4.990  33.118  1.00  0.00     0.051 A 
HETATM   30  C19 UNK     1      18.532   4.799  31.751  1.00  0.00     0.047 A 
HETATM   31  C21 UNK     1      18.774   6.351  33.672  1.00  0.00     0.071 C 
HETATM   32  C20 UNK     1      18.284   3.509  31.326  1.00  0.00     0.138 A 
HETATM   33  N4  UNK     1      18.036   2.479  32.162  1.00  0.00    -0.074 NA
ENDBRANCH  25  27
ENDBRANCH  22  25
ENDBRANCH   1  22
TORSDOF 5
ENDMDL
MODEL 5
REMARK VINA RESULT:      -9.9      5.309     12.481
REMARK  5 active torsions:
REMARK  status: ('A' for Active; 'I' for Inactive)
REMARK    1  A    between atoms: C1_11  and  S1_1 
REMARK    2  A    between atoms: N2_8  and  S1_1 
REMARK       I    between atoms: C11_21  and  N1_7 
REMARK    3  A    between atoms: C2_12  and  N1_7 
REMARK    4  A    between atoms: C15_25  and  N2_8 
REMARK    5  A    between atoms: C11_21  and  C8_18 
ROOT
HETATM    1  C1  UNK     1      19.197   1.265  31.049  1.00  0.00     0.080 A 
HETATM    2  C2  UNK     1      18.043   3.729  31.564  1.00  0.00     0.035 A 
HETATM    3  C3  UNK     1      19.040   2.191  30.018  1.00  0.00     0.027 A 
HETATM    4  C4  UNK     1      18.773   1.581  32.340  1.00  0.00     0.027 A 
HETATM    5  C6  UNK     1      18.459   3.432  30.277  1.00  0.00     0.031 A 
HETATM    6  C7  UNK     1      18.192   2.822  32.599  1.00  0.00     0.031 A 
ENDROOT
BRANCH   2   7
HETATM    7  N1  UNK     1      17.453   4.989  31.827  1.00  0.00    -0.323 N 
HETATM    8  C11 UNK     1      17.865   5.940  32.750  1.00  0.00     0.262 C 
HETATM    9  O4  UNK     1      18.819   5.884  33.524  1.00  0.00    -0.267 OA
HETATM   10  H5  UNK     1      16.650   5.200  31.241  1.00  0.00     0.169 HD
BRANCH   8  11
HETATM   11  C8  UNK     1      17.006   7.131  32.740  1.00  0.00     0.108 A 
HETATM   12  C10 UNK     1      16.590   7.570  33.933  1.00  0.00     0.037 A 
HETATM   13  C5  UNK     1      15.734   8.743  34.025  1.00  0.00    -0.001 A 
HETATM   14  C13 UNK     1      15.277   9.237  35.249  1.00  0.00     0.014 A 
HETATM   15  C9  UNK     1      15.359   9.395  32.855  1.00  0.00     0.089 A 
HETATM   16  C16 UNK     1      14.456  10.367  35.284  1.00  0.00     0.001 A 
HETATM   17  C17 UNK     1      14.089  11.010  34.099  1.00  0.00     0.003 A 
HETATM   18  C14 UNK     1      14.542  10.524  32.874  1.00  0.00     0.038 A 
HETATM   19  O1  UNK     1      15.801   8.929  31.601  1.00  0.00    -0.274 OA
HETATM   20  C12 UNK     1      16.620   7.810  31.482  1.00  0.00     0.304 A 
HETATM   21  O5  UNK     1      16.998   7.409  30.386  1.00  0.00    -0.259 OA
ENDBRANCH   8  11
ENDBRANCH   2   7
BRANCH   1  22
HETATM   22  S1  UNK     1      19.924  -0.289  30.724  1.00  0.00     0.276 S 
HETATM   23  O2  UNK     1      19.789  -0.564  29.298  1.00  0.00    -0.200 OA
HETATM   24  O3  UNK     1      21.247  -0.308  31.335  1.00  0.00    -0.200 OA
BRANCH  22  25
HETATM   25  N2  UNK     1      18.890  -1.332  31.593  1.00  0.00    -0.109 N 
HETATM   26  H7  UNK     1      18.481  -2.141  31.110  1.00  0.00     0.198 HD
BRANCH  25  27
HETATM   27  C15 UNK     1      18.680  -1.293  32.992  1.00  0.00     0.736 A 
HETATM   28  N3  UNK     1      17.470  -0.867  33.419  1.00  0.00    -0.067 NA
HETATM   29  C18 UNK     1      17.304  -0.843  34.757  1.00  0.00     0.051 A 
HETATM   30  C19 UNK     1      18.281  -1.217  35.657  1.00  0.00     0.047 A 
HETATM   31  C21 UNK     1      15.979  -0.378  35.261  1.00  0.00     0.071 C 
HETATM   32  C20 UNK     1      19.475  -1.634  35.105  1.00  0.00     0.138 A 
HETATM   33  N4  UNK     1      19.709  -1.683  33.777  1.00  0.00    -0.074 NA
ENDBRANCH  25  27
ENDBRANCH  22  25
ENDBRANCH   1  22
TORSDOF 5
ENDMDL
MODEL 6
REMARK VINA RESULT:      -9.7      6.826     10.566
REMARK  5 active torsions:
REMARK  status: ('A' for Active; 'I' for Inactive)
REMARK    1  A    between atoms: C1_11  and  S1_1 
REMARK    2  A    between atoms: N2_8  and  S1_1 
REMARK       I    between atoms: C11_21  and  N1_7 
REMARK    3  A    between atoms: C2_12  and  N1_7 
REMARK    4  A    between atoms: C15_25  and  N2_8 
REMARK    5  A    between atoms: C11_21  and  C8_18 
ROOT
HETATM    1  C1  UNK     1      16.549   8.493  33.696  1.00  0.00     0.080 A 
HETATM    2  C2  UNK     1      17.357   5.923  33.054  1.00  0.00     0.035 A 
HETATM    3  C3  UNK     1      15.841   7.755  32.748  1.00  0.00     0.027 A 
HETATM    4  C4  UNK     1      17.665   7.935  34.321  1.00  0.00     0.027 A 
HETATM    5  C6  UNK     1      16.247   6.461  32.425  1.00  0.00     0.031 A 
HETATM    6  C7  UNK     1      18.072   6.641  33.998  1.00  0.00     0.031 A 
ENDROOT
BRANCH   2   7
HETATM    7  N1  UNK     1      17.770   4.609  32.726  1.00  0.00    -0.323 N 
HETATM    8  C11 UNK     1      18.302   4.164  31.524  1.00  0.00     0.262 C 
HETATM    9  O4  UNK     1      18.522   4.815  30.504  1.00  0.00    -0.267 OA
HETATM   10  H5  UNK     1      17.671   3.942  33.487  1.00  0.00     0.169 HD
BRANCH   8  11
HETATM   11  C8  UNK     1      18.615   2.729  31.554  1.00  0.00     0.108 A 
HETATM   12  C10 UNK     1      19.131   2.213  30.433  1.00  0.00     0.037 A 
HETATM   13  C5  UNK     1      19.473   0.801  30.365  1.00  0.00    -0.001 A 
HETATM   14  C13 UNK     1      20.014   0.220  29.216  1.00  0.00     0.014 A 
HETATM   15  C9  UNK     1      19.255   0.002  31.482  1.00  0.00     0.089 A 
HETATM   16  C16 UNK     1      20.326  -1.142  29.201  1.00  0.00     0.001 A 
HETATM   17  C17 UNK     1      20.100  -1.930  30.333  1.00  0.00     0.003 A 
HETATM   18  C14 UNK     1      19.561  -1.357  31.483  1.00  0.00     0.038 A 
HETATM   19  O1  UNK     1      18.712   0.551  32.661  1.00  0.00    -0.274 OA
HETATM   20  C12 UNK     1      18.375   1.898  32.755  1.00  0.00     0.304 A 
HETATM   21  O5  UNK     1      17.901   2.367  33.785  1.00  0.00    -0.259 OA
ENDBRANCH   8  11
ENDBRANCH   2   7
BRANCH   1  22
HETATM   22  S1  UNK     1      16.039  10.113  34.100  1.00  0.00     0.276 S 
HETATM   23  O2  UNK     1      15.284  10.646  32.972  1.00  0.00    -0.200 OA
HETATM   24  O3  UNK     1      15.426  10.080  35.421  1.00  0.00    -0.200 OA
BRANCH  22  25
HETATM   25  N2  UNK     1      17.540  10.922  34.198  1.00  0.00    -0.109 N 
HETATM   26  H7  UNK     1      18.397  10.366  34.300  1.00  0.00     0.198 HD
BRANCH  25  27
HETATM   27  C15 UNK     1      17.737  12.304  33.968  1.00  0.00     0.736 A 
HETATM   28  N3  UNK     1      16.937  13.159  34.643  1.00  0.00    -0.067 NA
HETATM   29  C18 UNK     1      17.153  14.468  34.400  1.00  0.00     0.051 A 
HETATM   30  C19 UNK     1      18.114  14.937  33.527  1.00  0.00     0.047 A 
HETATM   31  C21 UNK     1      16.287  15.438  35.130  1.00  0.00     0.071 C 
HETATM   32  C20 UNK     1      18.870  13.971  32.895  1.00  0.00     0.138 A 
HETATM   33  N4  UNK     1      18.708  12.646  33.091  1.00  0.00    -0.074 NA
ENDBRANCH  25  27
ENDBRANCH  22  25
ENDBRANCH   1  22
TORSDOF 5
ENDMDL
MODEL 7
REMARK VINA RESULT:      -9.7      2.500     11.149
REMARK  5 active torsions:
REMARK  status: ('A' for Active; 'I' for Inactive)
REMARK    1  A    between atoms: C1_11  and  S1_1 
REMARK    2  A    between atoms: N2_8  and  S1_1 
REMARK       I    between atoms: C11_21  and  N1_7 
REMARK    3  A    between atoms: C2_12  and  N1_7 
REMARK    4  A    between atoms: C15_25  and  N2_8 
REMARK    5  A    between atoms: C11_21  and  C8_18 
ROOT
HETATM    1  C1  UNK     1      20.206  -4.123  36.636  1.00  0.00     0.080 A 
HETATM    2  C2  UNK     1      19.625  -1.652  35.532  1.00  0.00     0.035 A 
HETATM    3  C3  UNK     1      19.671  -3.112  37.433  1.00  0.00     0.027 A 
HETATM    4  C4  UNK     1      20.448  -3.889  35.283  1.00  0.00     0.027 A 
HETATM    5  C6  UNK     1      19.377  -1.867  36.877  1.00  0.00     0.031 A 
HETATM    6  C7  UNK     1      20.156  -2.644  34.726  1.00  0.00     0.031 A 
ENDROOT
BRANCH   2   7
HETATM    7  N1  UNK     1      19.327  -0.387  34.967  1.00  0.00    -0.323 N 
HETATM    8  C11 UNK     1      18.269  -0.063  34.129  1.00  0.00     0.262 C 
HETATM    9  O4  UNK     1      17.381  -0.801  33.706  1.00  0.00    -0.267 OA
HETATM   10  H5  UNK     1      19.969   0.351  35.243  1.00  0.00     0.169 HD
BRANCH   8  11
HETATM   11  C8  UNK     1      18.282   1.354  33.744  1.00  0.00     0.108 A 
HETATM   12  C10 UNK     1      18.442   1.611  32.441  1.00  0.00     0.037 A 
HETATM   13  C5  UNK     1      18.468   2.986  31.963  1.00  0.00    -0.001 A 
HETATM   14  C13 UNK     1      18.631   3.300  30.611  1.00  0.00     0.014 A 
HETATM   15  C9  UNK     1      18.325   4.020  32.881  1.00  0.00     0.089 A 
HETATM   16  C16 UNK     1      18.651   4.636  30.202  1.00  0.00     0.001 A 
HETATM   17  C17 UNK     1      18.506   5.663  31.139  1.00  0.00     0.003 A 
HETATM   18  C14 UNK     1      18.342   5.357  32.488  1.00  0.00     0.038 A 
HETATM   19  O1  UNK     1      18.157   3.743  34.252  1.00  0.00    -0.274 OA
HETATM   20  C12 UNK     1      18.128   2.440  34.739  1.00  0.00     0.304 A 
HETATM   21  O5  UNK     1      17.983   2.208  35.935  1.00  0.00    -0.259 OA
ENDBRANCH   8  11
ENDBRANCH   2   7
BRANCH   1  22
HETATM   22  S1  UNK     1      20.573  -5.681  37.333  1.00  0.00     0.276 S 
HETATM   23  O2  UNK     1      21.995  -5.712  37.654  1.00  0.00    -0.200 OA
HETATM   24  O3  UNK     1      19.597  -5.951  38.381  1.00  0.00    -0.200 OA
BRANCH  22  25
HETATM   25  N2  UNK     1      20.276  -6.719  36.011  1.00  0.00    -0.109 N 
HETATM   26  H7  UNK     1      19.966  -6.312  35.120  1.00  0.00     0.198 HD
BRANCH  25  27
HETATM   27  C15 UNK     1      20.596  -8.096  35.968  1.00  0.00     0.736 A 
HETATM   28  N3  UNK     1      20.020  -8.890  36.899  1.00  0.00    -0.067 NA
HETATM   29  C18 UNK     1      20.347 -10.196  36.828  1.00  0.00     0.051 A 
HETATM   30  C19 UNK     1      21.207 -10.722  35.886  1.00  0.00     0.047 A 
HETATM   31  C21 UNK     1      19.728 -11.098  37.842  1.00  0.00     0.071 C 
HETATM   32  C20 UNK     1      21.734  -9.816  34.987  1.00  0.00     0.138 A 
HETATM   33  N4  UNK     1      21.450  -8.497  34.999  1.00  0.00    -0.074 NA
ENDBRANCH  25  27
ENDBRANCH  22  25
ENDBRANCH   1  22
TORSDOF 5
ENDMDL
MODEL 8
REMARK VINA RESULT:      -9.7      4.186     10.913
REMARK  5 active torsions:
REMARK  status: ('A' for Active; 'I' for Inactive)
REMARK    1  A    between atoms: C1_11  and  S1_1 
REMARK    2  A    between atoms: N2_8  and  S1_1 
REMARK       I    between atoms: C11_21  and  N1_7 
REMARK    3  A    between atoms: C2_12  and  N1_7 
REMARK    4  A    between atoms: C15_25  and  N2_8 
REMARK    5  A    between atoms: C11_21  and  C8_18 
ROOT
HETATM    1  C1  UNK     1      20.079  -8.909  36.581  1.00  0.00     0.080 A 
HETATM    2  C2  UNK     1      19.639  -6.198  36.228  1.00  0.00     0.035 A 
HETATM    3  C3  UNK     1      20.589  -8.260  35.457  1.00  0.00     0.027 A 
HETATM    4  C4  UNK     1      19.347  -8.192  37.527  1.00  0.00     0.027 A 
HETATM    5  C6  UNK     1      20.368  -6.894  35.279  1.00  0.00     0.031 A 
HETATM    6  C7  UNK     1      19.125  -6.826  37.350  1.00  0.00     0.031 A 
ENDROOT
BRANCH   2   7
HETATM    7  N1  UNK     1      19.415  -4.811  36.048  1.00  0.00    -0.323 N 
HETATM    8  C11 UNK     1      19.979  -3.763  36.761  1.00  0.00     0.262 C 
HETATM    9  O4  UNK     1      20.782  -3.822  37.691  1.00  0.00    -0.267 OA
HETATM   10  H5  UNK     1      18.778  -4.591  35.287  1.00  0.00     0.169 HD
BRANCH   8  11
HETATM   11  C8  UNK     1      19.509  -2.455  36.288  1.00  0.00     0.108 A 
HETATM   12  C10 UNK     1      18.776  -1.742  37.151  1.00  0.00     0.037 A 
HETATM   13  C5  UNK     1      18.264  -0.433  36.773  1.00  0.00    -0.001 A 
HETATM   14  C13 UNK     1      17.496   0.345  37.642  1.00  0.00     0.014 A 
HETATM   15  C9  UNK     1      18.550   0.060  35.505  1.00  0.00     0.089 A 
HETATM   16  C16 UNK     1      17.028   1.596  37.231  1.00  0.00     0.001 A 
HETATM   17  C17 UNK     1      17.325   2.075  35.953  1.00  0.00     0.003 A 
HETATM   18  C14 UNK     1      18.091   1.305  35.081  1.00  0.00     0.038 A 
HETATM   19  O1  UNK     1      19.323  -0.695  34.600  1.00  0.00    -0.274 OA
HETATM   20  C12 UNK     1      19.826  -1.949  34.933  1.00  0.00     0.304 A 
HETATM   21  O5  UNK     1      20.496  -2.600  34.139  1.00  0.00    -0.259 OA
ENDBRANCH   8  11
ENDBRANCH   2   7
BRANCH   1  22
HETATM   22  S1  UNK     1      20.356 -10.618  36.802  1.00  0.00     0.276 S 
HETATM   23  O2  UNK     1      20.938 -10.817  38.124  1.00  0.00    -0.200 OA
HETATM   24  O3  UNK     1      19.133 -11.326  36.444  1.00  0.00    -0.200 OA
BRANCH  22  25
HETATM   25  N2  UNK     1      21.546 -10.922  35.617  1.00  0.00    -0.109 N 
HETATM   26  H7  UNK     1      21.284 -10.870  34.626  1.00  0.00     0.198 HD
BRANCH  25  27
HETATM   27  C15 UNK     1      22.931 -11.063  35.871  1.00  0.00     0.736 A 
HETATM   28  N3  UNK     1      23.565 -10.004  36.424  1.00  0.00    -0.067 NA
HETATM   29  C18 UNK     1      24.883 -10.173  36.652  1.00  0.00     0.051 A 
HETATM   30  C19 UNK     1      25.571 -11.332  36.353  1.00  0.00     0.047 A 
HETATM   31  C21 UNK     1      25.612  -9.023  37.261  1.00  0.00     0.071 C 
HETATM   32  C20 UNK     1      24.819 -12.344  35.792  1.00  0.00     0.138 A 
HETATM   33  N4  UNK     1      23.498 -12.244  35.537  1.00  0.00    -0.074 NA
ENDBRANCH  25  27
ENDBRANCH  22  25
ENDBRANCH   1  22
TORSDOF 5
ENDMDL
MODEL 9
REMARK VINA RESULT:      -9.7      6.806     10.641
REMARK  5 active torsions:
REMARK  status: ('A' for Active; 'I' for Inactive)
REMARK    1  A    between atoms: C1_11  and  S1_1 
REMARK    2  A    between atoms: N2_8  and  S1_1 
REMARK       I    between atoms: C11_21  and  N1_7 
REMARK    3  A    between atoms: C2_12  and  N1_7 
REMARK    4  A    between atoms: C15_25  and  N2_8 
REMARK    5  A    between atoms: C11_21  and  C8_18 
ROOT
HETATM    1  C1  UNK     1      16.247   8.439  33.361  1.00  0.00     0.080 A 
HETATM    2  C2  UNK     1      17.154   5.878  32.828  1.00  0.00     0.035 A 
HETATM    3  C3  UNK     1      17.102   7.801  34.259  1.00  0.00     0.027 A 
HETATM    4  C4  UNK     1      15.849   7.787  32.194  1.00  0.00     0.027 A 
HETATM    5  C6  UNK     1      17.560   6.512  33.991  1.00  0.00     0.031 A 
HETATM    6  C7  UNK     1      16.306   6.497  31.925  1.00  0.00     0.031 A 
ENDROOT
BRANCH   2   7
HETATM    7  N1  UNK     1      17.619   4.569  32.555  1.00  0.00    -0.323 N 
HETATM    8  C11 UNK     1      18.291   4.127  31.424  1.00  0.00     0.262 C 
HETATM    9  O4  UNK     1      18.617   4.777  30.432  1.00  0.00    -0.267 OA
HETATM   10  H5  UNK     1      17.443   3.903  33.303  1.00  0.00     0.169 HD
BRANCH   8  11
HETATM   11  C8  UNK     1      18.617   2.697  31.496  1.00  0.00     0.108 A 
HETATM   12  C10 UNK     1      19.146   2.155  30.394  1.00  0.00     0.037 A 
HETATM   13  C5  UNK     1      19.503   0.744  30.368  1.00  0.00    -0.001 A 
HETATM   14  C13 UNK     1      20.058   0.137  29.239  1.00  0.00     0.014 A 
HETATM   15  C9  UNK     1      19.284  -0.025  31.506  1.00  0.00     0.089 A 
HETATM   16  C16 UNK     1      20.383  -1.222  29.265  1.00  0.00     0.001 A 
HETATM   17  C17 UNK     1      20.156  -1.979  30.417  1.00  0.00     0.003 A 
HETATM   18  C14 UNK     1      19.603  -1.380  31.547  1.00  0.00     0.038 A 
HETATM   19  O1  UNK     1      18.727   0.552  32.665  1.00  0.00    -0.274 OA
HETATM   20  C12 UNK     1      18.377   1.897  32.718  1.00  0.00     0.304 A 
HETATM   21  O5  UNK     1      17.891   2.391  33.731  1.00  0.00    -0.259 OA
ENDBRANCH   8  11
ENDBRANCH   2   7
BRANCH   1  22
HETATM   22  S1  UNK     1      15.675  10.054  33.698  1.00  0.00     0.276 S 
HETATM   23  O2  UNK     1      16.833  10.932  33.811  1.00  0.00    -0.200 OA
HETATM   24  O3  UNK     1      14.625  10.373  32.739  1.00  0.00    -0.200 OA
BRANCH  22  25
HETATM   25  N2  UNK     1      14.978   9.848  35.243  1.00  0.00    -0.109 N 
HETATM   26  H7  UNK     1      15.212   9.007  35.784  1.00  0.00     0.198 HD
BRANCH  25  27
HETATM   27  C15 UNK     1      14.235  10.830  35.940  1.00  0.00     0.736 A 
HETATM   28  N3  UNK     1      14.313  10.813  37.290  1.00  0.00    -0.067 NA
HETATM   29  C18 UNK     1      13.593  11.763  37.922  1.00  0.00     0.051 A 
HETATM   30  C19 UNK     1      12.820  12.701  37.269  1.00  0.00     0.047 A 
HETATM   31  C21 UNK     1      13.657  11.772  39.412  1.00  0.00     0.071 C 
HETATM   32  C20 UNK     1      12.819  12.619  35.891  1.00  0.00     0.138 A 
HETATM   33  N4  UNK     1      13.514  11.696  35.195  1.00  0.00    -0.074 NA
ENDBRANCH  25  27
ENDBRANCH  22  25
ENDBRANCH   1  22
TORSDOF 5
ENDMDL
MODEL 10
REMARK VINA RESULT:      -9.6      1.108      1.917
REMARK  5 active torsions:
REMARK  status: ('A' for Active; 'I' for Inactive)
REMARK    1  A    between atoms: C1_11  and  S1_1 
REMARK    2  A    between atoms: N2_8  and  S1_1 
REMARK       I    between atoms: C11_21  and  N1_7 
REMARK    3  A    between atoms: C2_12  and  N1_7 
REMARK    4  A    between atoms: C15_25  and  N2_8 
REMARK    5  A    between atoms: C11_21  and  C8_18 
ROOT
HETATM    1  C1  UNK     1      18.805  -0.199  36.031  1.00  0.00     0.080 A 
HETATM    2  C2  UNK     1      19.270  -2.925  36.151  1.00  0.00     0.035 A 
HETATM    3  C3  UNK     1      18.471  -0.913  37.182  1.00  0.00     0.027 A 
HETATM    4  C4  UNK     1      19.372  -0.858  34.941  1.00  0.00     0.027 A 
HETATM    5  C6  UNK     1      18.706  -2.287  37.243  1.00  0.00     0.031 A 
HETATM    6  C7  UNK     1      19.607  -2.232  35.001  1.00  0.00     0.031 A 
ENDROOT
BRANCH   2   7
HETATM    7  N1  UNK     1      19.508  -4.320  36.213  1.00  0.00    -0.323 N 
HETATM    8  C11 UNK     1      18.584  -5.327  36.458  1.00  0.00     0.262 C 
HETATM    9  O4  UNK     1      17.378  -5.215  36.671  1.00  0.00    -0.267 OA
HETATM   10  H5  UNK     1      20.473  -4.584  36.032  1.00  0.00     0.169 HD
BRANCH   8  11
HETATM   11  C8  UNK     1      19.200  -6.660  36.444  1.00  0.00     0.108 A 
HETATM   12  C10 UNK     1      18.816  -7.499  37.412  1.00  0.00     0.037 A 
HETATM   13  C5  UNK     1      19.372  -8.842  37.482  1.00  0.00    -0.001 A 
HETATM   14  C13 UNK     1      18.999  -9.751  38.475  1.00  0.00     0.014 A 
HETATM   15  C9  UNK     1      20.304  -9.234  36.528  1.00  0.00     0.089 A 
HETATM   16  C16 UNK     1      19.562 -11.030  38.498  1.00  0.00     0.001 A 
HETATM   17  C17 UNK     1      20.497 -11.407  37.532  1.00  0.00     0.003 A 
HETATM   18  C14 UNK     1      20.873 -10.506  36.538  1.00  0.00     0.038 A 
HETATM   19  O1  UNK     1      20.704  -8.346  35.509  1.00  0.00    -0.274 OA
HETATM   20  C12 UNK     1      20.190  -7.056  35.417  1.00  0.00     0.304 A 
HETATM   21  O5  UNK     1      20.546  -6.289  34.529  1.00  0.00    -0.259 OA
ENDBRANCH   8  11
ENDBRANCH   2   7
BRANCH   1  22
HETATM   22  S1  UNK     1      18.510   1.520  35.956  1.00  0.00     0.276 S 
HETATM   23  O2  UNK     1      17.455   1.843  36.908  1.00  0.00    -0.200 OA
HETATM   24  O3  UNK     1      19.793   2.205  36.050  1.00  0.00    -0.200 OA
BRANCH  22  25
HETATM   25  N2  UNK     1      17.901   1.688  34.370  1.00  0.00    -0.109 N 
HETATM   26  H7  UNK     1      17.227   0.995  34.022  1.00  0.00     0.198 HD
BRANCH  25  27
HETATM   27  C15 UNK     1      18.100   2.812  33.535  1.00  0.00     0.736 A 
HETATM   28  N3  UNK     1      18.359   3.991  34.144  1.00  0.00    -0.067 NA
HETATM   29  C18 UNK     1      18.544   5.041  33.319  1.00  0.00     0.051 A 
HETATM   30  C19 UNK     1      18.478   4.956  31.943  1.00  0.00     0.047 A 
HETATM   31  C21 UNK     1      18.831   6.357  33.960  1.00  0.00     0.071 C 
HETATM   32  C20 UNK     1      18.207   3.702  31.435  1.00  0.00     0.138 A 
HETATM   33  N4  UNK     1      18.012   2.608  32.201  1.00  0.00    -0.074 NA
ENDBRANCH  25  27
ENDBRANCH  22  25
ENDBRANCH   1  22
TORSDOF 5
ENDMDL
