MODEL 1
REMARK VINA RESULT:      -7.1      0.000      0.000
REMARK  6 active torsions:
REMARK  status: ('A' for Active; 'I' for Inactive)
REMARK    1  A    between atoms: C1_8  and  O1_2 
REMARK    2  A    between atoms: C13_20  and  O1_2 
REMARK    3  A    between atoms: C2_9  and  O3_4 
REMARK    4  A    between atoms: C1_8  and  C2_9 
REMARK    5  A    between atoms: C6_13  and  C9_16 
REMARK    6  A    between atoms: C12_19  and  C13_20 
ROOT
HETATM    1  N1  UNK     1      17.845   7.359  10.502  1.00  0.00    -0.191 NA
HETATM    2  C9  UNK     1      14.876   6.417   8.902  1.00  0.00     0.046 C 
HETATM    3  C12 UNK     1      15.470   7.480   9.478  1.00  0.00     0.120 C 
HETATM    4  C17 UNK     1      16.780   7.411  10.042  1.00  0.00     0.105 C 
ENDROOT
BRANCH   3   5
HETATM    5  C13 UNK     1      14.692   8.755   9.504  1.00  0.00     0.304 C 
HETATM    6  O5  UNK     1      14.661   9.571   8.594  1.00  0.00    -0.258 OA
BRANCH   5   7
HETATM    7  O1  UNK     1      14.033   8.863  10.692  1.00  0.00    -0.310 OA
BRANCH   7   8
HETATM    8  C1  UNK     1      13.455  10.144  10.968  1.00  0.00     0.152 C 
HETATM    9  C4  UNK     1      14.370  10.900  11.919  1.00  0.00     0.042 C 
BRANCH   8  10
HETATM   10  C2  UNK     1      12.076   9.926  11.575  1.00  0.00     0.199 C 
BRANCH  10  11
HETATM   11  O3  UNK     1      11.369   8.974  10.788  1.00  0.00    -0.393 OA
HETATM   12  C16 UNK     1      10.749   9.584   9.665  1.00  0.00     0.201 C 
ENDBRANCH  10  11
ENDBRANCH   8  10
ENDBRANCH   7   8
ENDBRANCH   5   7
ENDBRANCH   3   5
BRANCH   2  13
HETATM   13  C6  UNK     1      13.566   6.387   8.309  1.00  0.00     0.039 A 
HETATM   14  C10 UNK     1      13.363   6.661   7.013  1.00  0.00     0.158 A 
HETATM   15  O2  UNK     1      12.160   6.663   6.350  1.00  0.00    -0.321 OA
HETATM   16  C5  UNK     1      11.036   6.354   7.072  1.00  0.00     0.089 A 
HETATM   17  C11 UNK     1       9.819   6.358   6.390  1.00  0.00     0.040 A 
HETATM   18  C3  UNK     1      11.075   6.045   8.431  1.00  0.00     0.050 A 
HETATM   19  C15 UNK     1       8.641   6.053   7.073  1.00  0.00     0.026 A 
HETATM   20  C14 UNK     1       8.680   5.744   8.433  1.00  0.00     0.035 A 
HETATM   21 Cl1  UNK     1       7.223   5.367   9.269  1.00  0.00    -0.084 Cl
HETATM   22  C8  UNK     1       9.897   5.739   9.117  1.00  0.00     0.042 A 
HETATM   23  C7  UNK     1      12.374   6.048   9.131  1.00  0.00     0.197 A 
HETATM   24  O4  UNK     1      12.451   5.782  10.324  1.00  0.00    -0.286 OA
ENDBRANCH   2  13
TORSDOF 6
ENDMDL
MODEL 2
REMARK VINA RESULT:      -7.1     23.023     25.091
REMARK  6 active torsions:
REMARK  status: ('A' for Active; 'I' for Inactive)
REMARK    1  A    between atoms: C1_8  and  O1_2 
REMARK    2  A    between atoms: C13_20  and  O1_2 
REMARK    3  A    between atoms: C2_9  and  O3_4 
REMARK    4  A    between atoms: C1_8  and  C2_9 
REMARK    5  A    between atoms: C6_13  and  C9_16 
REMARK    6  A    between atoms: C12_19  and  C13_20 
ROOT
HETATM    1  N1  UNK     1      11.947  11.973  33.598  1.00  0.00    -0.191 NA
HETATM    2  C9  UNK     1      14.103   9.243  33.205  1.00  0.00     0.046 C 
HETATM    3  C12 UNK     1      14.020  10.440  33.817  1.00  0.00     0.120 C 
HETATM    4  C17 UNK     1      12.875  11.284  33.695  1.00  0.00     0.105 C 
ENDROOT
BRANCH   3   5
HETATM    5  C13 UNK     1      15.194  10.856  34.644  1.00  0.00     0.304 C 
HETATM    6  O5  UNK     1      15.219  10.858  35.866  1.00  0.00    -0.258 OA
BRANCH   5   7
HETATM    7  O1  UNK     1      16.217  11.232  33.827  1.00  0.00    -0.310 OA
BRANCH   7   8
HETATM    8  C1  UNK     1      17.268  11.979  34.450  1.00  0.00     0.152 C 
HETATM    9  C4  UNK     1      17.179  13.428  33.995  1.00  0.00     0.042 C 
BRANCH   8  10
HETATM   10  C2  UNK     1      18.599  11.352  34.057  1.00  0.00     0.199 C 
BRANCH  10  11
HETATM   11  O3  UNK     1      18.422   9.947  33.910  1.00  0.00    -0.393 OA
HETATM   12  C16 UNK     1      19.581   9.232  34.316  1.00  0.00     0.201 C 
ENDBRANCH  10  11
ENDBRANCH   8  10
ENDBRANCH   7   8
ENDBRANCH   5   7
ENDBRANCH   3   5
BRANCH   2  13
HETATM   13  C6  UNK     1      15.209   8.326  33.267  1.00  0.00     0.039 A 
HETATM   14  C10 UNK     1      15.498   7.630  34.375  1.00  0.00     0.158 A 
HETATM   15  O2  UNK     1      16.525   6.734  34.541  1.00  0.00    -0.321 OA
HETATM   16  C5  UNK     1      17.355   6.513  33.472  1.00  0.00     0.089 A 
HETATM   17  C11 UNK     1      18.395   5.601  33.649  1.00  0.00     0.040 A 
HETATM   18  C3  UNK     1      17.191   7.157  32.246  1.00  0.00     0.050 A 
HETATM   19  C15 UNK     1      19.272   5.336  32.597  1.00  0.00     0.026 A 
HETATM   20  C14 UNK     1      19.108   5.980  31.370  1.00  0.00     0.035 A 
HETATM   21 Cl1  UNK     1      20.193   5.648  30.076  1.00  0.00    -0.084 Cl
HETATM   22  C8  UNK     1      18.067   6.892  31.190  1.00  0.00     0.042 A 
HETATM   23  C7  UNK     1      16.083   8.117  32.082  1.00  0.00     0.197 A 
HETATM   24  O4  UNK     1      15.905   8.704  31.021  1.00  0.00    -0.286 OA
ENDBRANCH   2  13
TORSDOF 6
ENDMDL
MODEL 3
REMARK VINA RESULT:      -7.0      1.633      2.828
REMARK  6 active torsions:
REMARK  status: ('A' for Active; 'I' for Inactive)
REMARK    1  A    between atoms: C1_8  and  O1_2 
REMARK    2  A    between atoms: C13_20  and  O1_2 
REMARK    3  A    between atoms: C2_9  and  O3_4 
REMARK    4  A    between atoms: C1_8  and  C2_9 
REMARK    5  A    between atoms: C6_13  and  C9_16 
REMARK    6  A    between atoms: C12_19  and  C13_20 
ROOT
HETATM    1  N1  UNK     1      17.884   7.307  10.591  1.00  0.00    -0.191 NA
HETATM    2  C9  UNK     1      14.919   6.391   8.970  1.00  0.00     0.046 C 
HETATM    3  C12 UNK     1      15.533   7.457   9.518  1.00  0.00     0.120 C 
HETATM    4  C17 UNK     1      16.830   7.372  10.109  1.00  0.00     0.105 C 
ENDROOT
BRANCH   3   5
HETATM    5  C13 UNK     1      14.792   8.754   9.484  1.00  0.00     0.304 C 
HETATM    6  O5  UNK     1      13.919   9.078  10.276  1.00  0.00    -0.258 OA
BRANCH   5   7
HETATM    7  O1  UNK     1      15.237   9.506   8.439  1.00  0.00    -0.310 OA
BRANCH   7   8
HETATM    8  C1  UNK     1      15.513  10.880   8.736  1.00  0.00     0.152 C 
HETATM    9  C4  UNK     1      15.599  11.657   7.431  1.00  0.00     0.042 C 
BRANCH   8  10
HETATM   10  C2  UNK     1      16.821  10.948   9.513  1.00  0.00     0.199 C 
BRANCH  10  11
HETATM   11  O3  UNK     1      17.888  10.554   8.657  1.00  0.00    -0.393 OA
HETATM   12  C16 UNK     1      18.948  11.500   8.679  1.00  0.00     0.201 C 
ENDBRANCH  10  11
ENDBRANCH   8  10
ENDBRANCH   7   8
ENDBRANCH   5   7
ENDBRANCH   3   5
BRANCH   2  13
HETATM   13  C6  UNK     1      13.620   6.377   8.353  1.00  0.00     0.039 A 
HETATM   14  C10 UNK     1      13.441   6.676   7.060  1.00  0.00     0.158 A 
HETATM   15  O2  UNK     1      12.250   6.694   6.375  1.00  0.00    -0.321 OA
HETATM   16  C5  UNK     1      11.112   6.375   7.071  1.00  0.00     0.089 A 
HETATM   17  C11 UNK     1       9.907   6.395   6.368  1.00  0.00     0.040 A 
HETATM   18  C3  UNK     1      11.126   6.039   8.424  1.00  0.00     0.050 A 
HETATM   19  C15 UNK     1       8.717   6.080   7.023  1.00  0.00     0.026 A 
HETATM   20  C14 UNK     1       8.731   5.745   8.378  1.00  0.00     0.035 A 
HETATM   21 Cl1  UNK     1       7.258   5.355   9.180  1.00  0.00    -0.084 Cl
HETATM   22  C8  UNK     1       9.935   5.723   9.083  1.00  0.00     0.042 A 
HETATM   23  C7  UNK     1      12.412   6.024   9.147  1.00  0.00     0.197 A 
HETATM   24  O4  UNK     1      12.468   5.736  10.336  1.00  0.00    -0.286 OA
ENDBRANCH   2  13
TORSDOF 6
ENDMDL
MODEL 4
REMARK VINA RESULT:      -7.0      3.394      5.397
REMARK  6 active torsions:
REMARK  status: ('A' for Active; 'I' for Inactive)
REMARK    1  A    between atoms: C1_8  and  O1_2 
REMARK    2  A    between atoms: C13_20  and  O1_2 
REMARK    3  A    between atoms: C2_9  and  O3_4 
REMARK    4  A    between atoms: C1_8  and  C2_9 
REMARK    5  A    between atoms: C6_13  and  C9_16 
REMARK    6  A    between atoms: C12_19  and  C13_20 
ROOT
HETATM    1  N1  UNK     1      11.953   6.229   5.589  1.00  0.00    -0.191 NA
HETATM    2  C9  UNK     1       9.263   6.702   7.781  1.00  0.00     0.046 C 
HETATM    3  C12 UNK     1      10.490   6.148   7.723  1.00  0.00     0.120 C 
HETATM    4  C17 UNK     1      11.295   6.194   6.545  1.00  0.00     0.105 C 
ENDROOT
BRANCH   3   5
HETATM    5  C13 UNK     1      10.983   5.472   8.961  1.00  0.00     0.304 C 
HETATM    6  O5  UNK     1      10.826   4.287   9.218  1.00  0.00    -0.258 OA
BRANCH   5   7
HETATM    7  O1  UNK     1      11.627   6.378   9.750  1.00  0.00    -0.310 OA
BRANCH   7   8
HETATM    8  C1  UNK     1      12.958   6.718   9.347  1.00  0.00     0.152 C 
HETATM    9  C4  UNK     1      13.905   5.618   9.800  1.00  0.00     0.042 C 
BRANCH   8  10
HETATM   10  C2  UNK     1      13.320   8.058   9.973  1.00  0.00     0.199 C 
BRANCH  10  11
HETATM   11  O3  UNK     1      12.737   8.136  11.269  1.00  0.00    -0.393 OA
HETATM   12  C16 UNK     1      12.898   9.429  11.834  1.00  0.00     0.201 C 
ENDBRANCH  10  11
ENDBRANCH   8  10
ENDBRANCH   7   8
ENDBRANCH   5   7
ENDBRANCH   3   5
BRANCH   2  13
HETATM   13  C6  UNK     1       8.381   6.707   8.916  1.00  0.00     0.039 A 
HETATM   14  C10 UNK     1       8.324   7.737   9.771  1.00  0.00     0.158 A 
HETATM   15  O2  UNK     1       7.522   7.844  10.881  1.00  0.00    -0.321 OA
HETATM   16  C5  UNK     1       6.684   6.796  11.163  1.00  0.00     0.089 A 
HETATM   17  C11 UNK     1       5.873   6.913  12.291  1.00  0.00     0.040 A 
HETATM   18  C3  UNK     1       6.621   5.649  10.372  1.00  0.00     0.050 A 
HETATM   19  C15 UNK     1       5.000   5.879  12.629  1.00  0.00     0.026 A 
HETATM   20  C14 UNK     1       4.937   4.730  11.838  1.00  0.00     0.035 A 
HETATM   21 Cl1  UNK     1       3.857   3.458  12.259  1.00  0.00    -0.084 Cl
HETATM   22  C8  UNK     1       5.747   4.612  10.708  1.00  0.00     0.042 A 
HETATM   23  C7  UNK     1       7.488   5.548   9.183  1.00  0.00     0.197 A 
HETATM   24  O4  UNK     1       7.463   4.557   8.463  1.00  0.00    -0.286 OA
ENDBRANCH   2  13
TORSDOF 6
ENDMDL
MODEL 5
REMARK VINA RESULT:      -6.9     22.127     24.633
REMARK  6 active torsions:
REMARK  status: ('A' for Active; 'I' for Inactive)
REMARK    1  A    between atoms: C1_8  and  O1_2 
REMARK    2  A    between atoms: C13_20  and  O1_2 
REMARK    3  A    between atoms: C2_9  and  O3_4 
REMARK    4  A    between atoms: C1_8  and  C2_9 
REMARK    5  A    between atoms: C6_13  and  C9_16 
REMARK    6  A    between atoms: C12_19  and  C13_20 
ROOT
HETATM    1  N1  UNK     1      18.231   1.588  28.340  1.00  0.00    -0.191 NA
HETATM    2  C9  UNK     1      18.973   4.515  30.112  1.00  0.00     0.046 C 
HETATM    3  C12 UNK     1      18.607   3.233  30.303  1.00  0.00     0.120 C 
HETATM    4  C17 UNK     1      18.401   2.328  29.218  1.00  0.00     0.105 C 
ENDROOT
BRANCH   3   5
HETATM    5  C13 UNK     1      18.423   2.788  31.717  1.00  0.00     0.304 C 
HETATM    6  O5  UNK     1      17.628   3.281  32.504  1.00  0.00    -0.258 OA
BRANCH   5   7
HETATM    7  O1  UNK     1      19.275   1.760  31.987  1.00  0.00    -0.310 OA
BRANCH   7   8
HETATM    8  C1  UNK     1      18.658   0.496  32.255  1.00  0.00     0.152 C 
HETATM    9  C4  UNK     1      18.541   0.316  33.761  1.00  0.00     0.042 C 
BRANCH   8  10
HETATM   10  C2  UNK     1      19.513  -0.597  31.628  1.00  0.00     0.199 C 
BRANCH  10  11
HETATM   11  O3  UNK     1      20.668  -0.003  31.045  1.00  0.00    -0.393 OA
HETATM   12  C16 UNK     1      20.829  -0.399  29.690  1.00  0.00     0.201 C 
ENDBRANCH  10  11
ENDBRANCH   8  10
ENDBRANCH   7   8
ENDBRANCH   5   7
ENDBRANCH   3   5
BRANCH   2  13
HETATM   13  C6  UNK     1      19.204   5.500  31.134  1.00  0.00     0.039 A 
HETATM   14  C10 UNK     1      20.367   5.585  31.793  1.00  0.00     0.158 A 
HETATM   15  O2  UNK     1      20.691   6.480  32.783  1.00  0.00    -0.321 OA
HETATM   16  C5  UNK     1      19.736   7.394  33.150  1.00  0.00     0.089 A 
HETATM   17  C11 UNK     1      20.074   8.300  34.155  1.00  0.00     0.040 A 
HETATM   18  C3  UNK     1      18.473   7.440  32.562  1.00  0.00     0.050 A 
HETATM   19  C15 UNK     1      19.142   9.252  34.571  1.00  0.00     0.026 A 
HETATM   20  C14 UNK     1      17.878   9.298  33.984  1.00  0.00     0.035 A 
HETATM   21 Cl1  UNK     1      16.734  10.476  34.501  1.00  0.00    -0.084 Cl
HETATM   22  C8  UNK     1      17.538   8.393  32.977  1.00  0.00     0.042 A 
HETATM   23  C7  UNK     1      18.139   6.471  31.501  1.00  0.00     0.197 A 
HETATM   24  O4  UNK     1      17.040   6.478  30.960  1.00  0.00    -0.286 OA
ENDBRANCH   2  13
TORSDOF 6
ENDMDL
MODEL 6
REMARK VINA RESULT:      -6.7     23.109     25.666
REMARK  6 active torsions:
REMARK  status: ('A' for Active; 'I' for Inactive)
REMARK    1  A    between atoms: C1_8  and  O1_2 
REMARK    2  A    between atoms: C13_20  and  O1_2 
REMARK    3  A    between atoms: C2_9  and  O3_4 
REMARK    4  A    between atoms: C1_8  and  C2_9 
REMARK    5  A    between atoms: C6_13  and  C9_16 
REMARK    6  A    between atoms: C12_19  and  C13_20 
ROOT
HETATM    1  N1  UNK     1      11.930  11.920  33.385  1.00  0.00    -0.191 NA
HETATM    2  C9  UNK     1      14.132   9.203  33.219  1.00  0.00     0.046 C 
HETATM    3  C12 UNK     1      14.078  10.492  33.607  1.00  0.00     0.120 C 
HETATM    4  C17 UNK     1      12.892  11.277  33.484  1.00  0.00     0.105 C 
ENDROOT
BRANCH   3   5
HETATM    5  C13 UNK     1      15.328  11.077  34.179  1.00  0.00     0.304 C 
HETATM    6  O5  UNK     1      16.268  11.494  33.517  1.00  0.00    -0.258 OA
BRANCH   5   7
HETATM    7  O1  UNK     1      15.254  11.069  35.539  1.00  0.00    -0.310 OA
BRANCH   7   8
HETATM    8  C1  UNK     1      14.726  12.258  36.139  1.00  0.00     0.152 C 
HETATM    9  C4  UNK     1      15.884  13.133  36.597  1.00  0.00     0.042 C 
BRANCH   8  10
HETATM   10  C2  UNK     1      13.840  11.851  37.309  1.00  0.00     0.199 C 
BRANCH  10  11
HETATM   11  O3  UNK     1      14.532  12.109  38.525  1.00  0.00    -0.393 OA
HETATM   12  C16 UNK     1      13.988  11.359  39.602  1.00  0.00     0.201 C 
ENDBRANCH  10  11
ENDBRANCH   8  10
ENDBRANCH   7   8
ENDBRANCH   5   7
ENDBRANCH   3   5
BRANCH   2  13
HETATM   13  C6  UNK     1      15.274   8.333  33.302  1.00  0.00     0.039 A 
HETATM   14  C10 UNK     1      15.595   7.682  34.429  1.00  0.00     0.158 A 
HETATM   15  O2  UNK     1      16.659   6.834  34.616  1.00  0.00    -0.321 OA
HETATM   16  C5  UNK     1      17.493   6.615  33.549  1.00  0.00     0.089 A 
HETATM   17  C11 UNK     1      18.570   5.751  33.748  1.00  0.00     0.040 A 
HETATM   18  C3  UNK     1      17.298   7.216  32.306  1.00  0.00     0.050 A 
HETATM   19  C15 UNK     1      19.452   5.492  32.699  1.00  0.00     0.026 A 
HETATM   20  C14 UNK     1      19.258   6.093  31.455  1.00  0.00     0.035 A 
HETATM   21 Cl1  UNK     1      20.350   5.767  30.165  1.00  0.00    -0.084 Cl
HETATM   22  C8  UNK     1      18.180   6.957  31.254  1.00  0.00     0.042 A 
HETATM   23  C7  UNK     1      16.152   8.125  32.120  1.00  0.00     0.197 A 
HETATM   24  O4  UNK     1      15.946   8.674  31.043  1.00  0.00    -0.286 OA
ENDBRANCH   2  13
TORSDOF 6
ENDMDL
MODEL 7
REMARK VINA RESULT:      -6.6     28.546     30.326
REMARK  6 active torsions:
REMARK  status: ('A' for Active; 'I' for Inactive)
REMARK    1  A    between atoms: C1_8  and  O1_2 
REMARK    2  A    between atoms: C13_20  and  O1_2 
REMARK    3  A    between atoms: C2_9  and  O3_4 
REMARK    4  A    between atoms: C1_8  and  C2_9 
REMARK    5  A    between atoms: C6_13  and  C9_16 
REMARK    6  A    between atoms: C12_19  and  C13_20 
ROOT
HETATM    1  N1  UNK     1      22.498  -6.282  38.323  1.00  0.00    -0.191 NA
HETATM    2  C9  UNK     1      20.431  -3.531  37.675  1.00  0.00     0.046 C 
HETATM    3  C12 UNK     1      20.706  -4.771  37.225  1.00  0.00     0.120 C 
HETATM    4  C17 UNK     1      21.695  -5.602  37.833  1.00  0.00     0.105 C 
ENDROOT
BRANCH   3   5
HETATM    5  C13 UNK     1      19.924  -5.248  36.045  1.00  0.00     0.304 C 
HETATM    6  O5  UNK     1      20.189  -4.984  34.881  1.00  0.00    -0.258 OA
BRANCH   5   7
HETATM    7  O1  UNK     1      18.880  -6.014  36.469  1.00  0.00    -0.310 OA
BRANCH   7   8
HETATM    8  C1  UNK     1      18.761  -7.300  35.849  1.00  0.00     0.152 C 
HETATM    9  C4  UNK     1      17.338  -7.469  35.338  1.00  0.00     0.042 C 
BRANCH   8  10
HETATM   10  C2  UNK     1      19.113  -8.363  36.880  1.00  0.00     0.199 C 
BRANCH  10  11
HETATM   11  O3  UNK     1      20.083  -9.244  36.323  1.00  0.00    -0.393 OA
HETATM   12  C16 UNK     1      20.897  -8.583  35.366  1.00  0.00     0.201 C 
ENDBRANCH  10  11
ENDBRANCH   8  10
ENDBRANCH   7   8
ENDBRANCH   5   7
ENDBRANCH   3   5
BRANCH   2  13
HETATM   13  C6  UNK     1      19.458  -2.622  37.133  1.00  0.00     0.039 A 
HETATM   14  C10 UNK     1      18.197  -2.573  37.584  1.00  0.00     0.158 A 
HETATM   15  O2  UNK     1      17.193  -1.748  37.138  1.00  0.00    -0.321 OA
HETATM   16  C5  UNK     1      17.492  -0.873  36.125  1.00  0.00     0.089 A 
HETATM   17  C11 UNK     1      16.468  -0.039  35.679  1.00  0.00     0.040 A 
HETATM   18  C3  UNK     1      18.758  -0.798  35.545  1.00  0.00     0.050 A 
HETATM   19  C15 UNK     1      16.712   0.871  34.650  1.00  0.00     0.026 A 
HETATM   20  C14 UNK     1      17.979   0.946  34.069  1.00  0.00     0.035 A 
HETATM   21 Cl1  UNK     1      18.275   2.072  32.800  1.00  0.00    -0.084 Cl
HETATM   22  C8  UNK     1      19.006   0.113  34.514  1.00  0.00     0.042 A 
HETATM   23  C7  UNK     1      19.826  -1.690  36.033  1.00  0.00     0.197 A 
HETATM   24  O4  UNK     1      20.952  -1.655  35.550  1.00  0.00    -0.286 OA
ENDBRANCH   2  13
TORSDOF 6
ENDMDL
MODEL 8
REMARK VINA RESULT:      -6.5     22.813     25.266
REMARK  6 active torsions:
REMARK  status: ('A' for Active; 'I' for Inactive)
REMARK    1  A    between atoms: C1_8  and  O1_2 
REMARK    2  A    between atoms: C13_20  and  O1_2 
REMARK    3  A    between atoms: C2_9  and  O3_4 
REMARK    4  A    between atoms: C1_8  and  C2_9 
REMARK    5  A    between atoms: C6_13  and  C9_16 
REMARK    6  A    between atoms: C12_19  and  C13_20 
ROOT
HETATM    1  N1  UNK     1      17.992   1.434  29.253  1.00  0.00    -0.191 NA
HETATM    2  C9  UNK     1      18.895   4.499  30.686  1.00  0.00     0.046 C 
HETATM    3  C12 UNK     1      18.397   3.290  31.012  1.00  0.00     0.120 C 
HETATM    4  C17 UNK     1      18.175   2.268  30.040  1.00  0.00     0.105 C 
ENDROOT
BRANCH   3   5
HETATM    5  C13 UNK     1      18.081   3.057  32.454  1.00  0.00     0.304 C 
HETATM    6  O5  UNK     1      17.611   3.897  33.208  1.00  0.00    -0.258 OA
BRANCH   5   7
HETATM    7  O1  UNK     1      18.400   1.776  32.789  1.00  0.00    -0.310 OA
BRANCH   7   8
HETATM    8  C1  UNK     1      17.925   1.332  34.065  1.00  0.00     0.152 C 
HETATM    9  C4  UNK     1      18.828   1.900  35.151  1.00  0.00     0.042 C 
BRANCH   8  10
HETATM   10  C2  UNK     1      17.932  -0.191  34.075  1.00  0.00     0.199 C 
BRANCH  10  11
HETATM   11  O3  UNK     1      16.595  -0.658  34.221  1.00  0.00    -0.393 OA
HETATM   12  C16 UNK     1      15.879   0.108  35.179  1.00  0.00     0.201 C 
ENDBRANCH  10  11
ENDBRANCH   8  10
ENDBRANCH   7   8
ENDBRANCH   5   7
ENDBRANCH   3   5
BRANCH   2  13
HETATM   13  C6  UNK     1      19.153   5.588  31.589  1.00  0.00     0.039 A 
HETATM   14  C10 UNK     1      20.319   5.718  32.236  1.00  0.00     0.158 A 
HETATM   15  O2  UNK     1      20.667   6.713  33.116  1.00  0.00    -0.321 OA
HETATM   16  C5  UNK     1      19.737   7.688  33.373  1.00  0.00     0.089 A 
HETATM   17  C11 UNK     1      20.099   8.695  34.267  1.00  0.00     0.040 A 
HETATM   18  C3  UNK     1      18.475   7.699  32.781  1.00  0.00     0.050 A 
HETATM   19  C15 UNK     1      19.194   9.713  34.569  1.00  0.00     0.026 A 
HETATM   20  C14 UNK     1      17.931   9.724  33.977  1.00  0.00     0.035 A 
HETATM   21 Cl1  UNK     1      16.819  10.984  34.352  1.00  0.00    -0.084 Cl
HETATM   22  C8  UNK     1      17.567   8.718  33.081  1.00  0.00     0.042 A 
HETATM   23  C7  UNK     1      18.115   6.624  31.838  1.00  0.00     0.197 A 
HETATM   24  O4  UNK     1      17.015   6.597  31.297  1.00  0.00    -0.286 OA
ENDBRANCH   2  13
TORSDOF 6
ENDMDL
MODEL 9
REMARK VINA RESULT:      -6.4      3.522      5.530
REMARK  6 active torsions:
REMARK  status: ('A' for Active; 'I' for Inactive)
REMARK    1  A    between atoms: C1_8  and  O1_2 
REMARK    2  A    between atoms: C13_20  and  O1_2 
REMARK    3  A    between atoms: C2_9  and  O3_4 
REMARK    4  A    between atoms: C1_8  and  C2_9 
REMARK    5  A    between atoms: C6_13  and  C9_16 
REMARK    6  A    between atoms: C12_19  and  C13_20 
ROOT
HETATM    1  N1  UNK     1      11.904   6.364   5.699  1.00  0.00    -0.191 NA
HETATM    2  C9  UNK     1       9.021   6.154   7.676  1.00  0.00     0.046 C 
HETATM    3  C12 UNK     1      10.350   5.937   7.725  1.00  0.00     0.120 C 
HETATM    4  C17 UNK     1      11.204   6.173   6.606  1.00  0.00     0.105 C 
ENDROOT
BRANCH   3   5
HETATM    5  C13 UNK     1      10.903   5.432   9.018  1.00  0.00     0.304 C 
HETATM    6  O5  UNK     1      10.830   4.273   9.401  1.00  0.00    -0.258 OA
BRANCH   5   7
HETATM    7  O1  UNK     1      11.491   6.457   9.695  1.00  0.00    -0.310 OA
BRANCH   7   8
HETATM    8  C1  UNK     1      12.838   6.761   9.314  1.00  0.00     0.152 C 
HETATM    9  C4  UNK     1      13.758   5.680   9.860  1.00  0.00     0.042 C 
BRANCH   8  10
HETATM   10  C2  UNK     1      13.195   8.132   9.873  1.00  0.00     0.199 C 
BRANCH  10  11
HETATM   11  O3  UNK     1      12.911   8.152  11.267  1.00  0.00    -0.393 OA
HETATM   12  C16 UNK     1      12.608   9.464  11.717  1.00  0.00     0.201 C 
ENDBRANCH  10  11
ENDBRANCH   8  10
ENDBRANCH   7   8
ENDBRANCH   5   7
ENDBRANCH   3   5
BRANCH   2  13
HETATM   13  C6  UNK     1       8.081   5.947   8.744  1.00  0.00     0.039 A 
HETATM   14  C10 UNK     1       7.436   4.785   8.912  1.00  0.00     0.158 A 
HETATM   15  O2  UNK     1       6.522   4.483   9.892  1.00  0.00    -0.321 OA
HETATM   16  C5  UNK     1       6.224   5.461  10.807  1.00  0.00     0.089 A 
HETATM   17  C11 UNK     1       5.296   5.147  11.799  1.00  0.00     0.040 A 
HETATM   18  C3  UNK     1       6.810   6.727  10.772  1.00  0.00     0.050 A 
HETATM   19  C15 UNK     1       4.954   6.102  12.756  1.00  0.00     0.026 A 
HETATM   20  C14 UNK     1       5.539   7.368  12.722  1.00  0.00     0.035 A 
HETATM   21 Cl1  UNK     1       5.113   8.542  13.907  1.00  0.00    -0.084 Cl
HETATM   22  C8  UNK     1       6.469   7.685  11.731  1.00  0.00     0.042 A 
HETATM   23  C7  UNK     1       7.789   7.037   9.714  1.00  0.00     0.197 A 
HETATM   24  O4  UNK     1       8.325   8.136   9.649  1.00  0.00    -0.286 OA
ENDBRANCH   2  13
TORSDOF 6
ENDMDL
MODEL 10
REMARK VINA RESULT:      -6.4     33.679     36.204
REMARK  6 active torsions:
REMARK  status: ('A' for Active; 'I' for Inactive)
REMARK    1  A    between atoms: C1_8  and  O1_2 
REMARK    2  A    between atoms: C13_20  and  O1_2 
REMARK    3  A    between atoms: C2_9  and  O3_4 
REMARK    4  A    between atoms: C1_8  and  C2_9 
REMARK    5  A    between atoms: C6_13  and  C9_16 
REMARK    6  A    between atoms: C12_19  and  C13_20 
ROOT
HETATM    1  N1  UNK     1      26.669  -9.986  40.151  1.00  0.00    -0.191 NA
HETATM    2  C9  UNK     1      28.785  -7.322  39.325  1.00  0.00     0.046 C 
HETATM    3  C12 UNK     1      27.896  -8.171  38.773  1.00  0.00     0.120 C 
HETATM    4  C17 UNK     1      27.221  -9.171  39.536  1.00  0.00     0.105 C 
ENDROOT
BRANCH   3   5
HETATM    5  C13 UNK     1      27.642  -8.023  37.308  1.00  0.00     0.304 C 
HETATM    6  O5  UNK     1      26.799  -7.285  36.819  1.00  0.00    -0.258 OA
BRANCH   5   7
HETATM    7  O1  UNK     1      28.489  -8.833  36.614  1.00  0.00    -0.310 OA
BRANCH   7   8
HETATM    8  C1  UNK     1      28.516  -8.635  35.196  1.00  0.00     0.152 C 
HETATM    9  C4  UNK     1      28.639  -9.989  34.513  1.00  0.00     0.042 C 
BRANCH   8  10
HETATM   10  C2  UNK     1      29.695  -7.732  34.861  1.00  0.00     0.199 C 
BRANCH  10  11
HETATM   11  O3  UNK     1      29.223  -6.401  34.687  1.00  0.00    -0.393 OA
HETATM   12  C16 UNK     1      28.602  -6.231  33.421  1.00  0.00     0.201 C 
ENDBRANCH  10  11
ENDBRANCH   8  10
ENDBRANCH   7   8
ENDBRANCH   5   7
ENDBRANCH   3   5
BRANCH   2  13
HETATM   13  C6  UNK     1      29.513  -6.286  38.644  1.00  0.00     0.039 A 
HETATM   14  C10 UNK     1      29.050  -5.033  38.547  1.00  0.00     0.158 A 
HETATM   15  O2  UNK     1      29.660  -3.973  37.921  1.00  0.00    -0.321 OA
HETATM   16  C5  UNK     1      30.875  -4.201  37.326  1.00  0.00     0.089 A 
HETATM   17  C11 UNK     1      31.488  -3.120  36.694  1.00  0.00     0.040 A 
HETATM   18  C3  UNK     1      31.496  -5.450  37.337  1.00  0.00     0.050 A 
HETATM   19  C15 UNK     1      32.724  -3.292  36.070  1.00  0.00     0.026 A 
HETATM   20  C14 UNK     1      33.346  -4.541  36.080  1.00  0.00     0.035 A 
HETATM   21 Cl1  UNK     1      34.872  -4.746  35.310  1.00  0.00    -0.084 Cl
HETATM   22  C8  UNK     1      32.734  -5.624  36.713  1.00  0.00     0.042 A 
HETATM   23  C7  UNK     1      30.828  -6.578  38.012  1.00  0.00     0.197 A 
HETATM   24  O4  UNK     1      31.340  -7.691  38.043  1.00  0.00    -0.286 OA
ENDBRANCH   2  13
TORSDOF 6
ENDMDL
