MODEL 1
REMARK VINA RESULT:      -7.5      0.000      0.000
REMARK  7 active torsions:
REMARK  status: ('A' for Active; 'I' for Inactive)
REMARK    1  A    between atoms: C5_10  and  O1_1 
REMARK    2  A    between atoms: C6_11  and  O1_1 
REMARK    3  A    between atoms: C14_19  and  O3_3 
REMARK    4  A    between atoms: C17_22  and  O3_3 
REMARK    5  A    between atoms: C3_8  and  C7_12 
REMARK    6  A    between atoms: C14_19  and  C5_10 
REMARK    7  A    between atoms: C5_10  and  C8_13 
ROOT
HETATM    1  O2  UNK     1      18.259   1.172  33.520  1.00  0.00    -0.274 OA
HETATM    2  O4  UNK     1      18.547  -1.062  33.802  1.00  0.00    -0.259 OA
HETATM    3  C1  UNK     1      18.762   2.214  31.380  1.00  0.00     0.005 A 
HETATM    4  C2  UNK     1      19.143   0.890  30.845  1.00  0.00    -0.037 A 
HETATM    5  C3  UNK     1      19.100  -0.189  31.655  1.00  0.00     0.024 A 
HETATM    6  C4  UNK     1      18.332   2.308  32.700  1.00  0.00     0.092 A 
HETATM    7  C6  UNK     1      18.011   4.686  32.529  1.00  0.00     0.072 A 
HETATM    8  C9  UNK     1      18.817   3.405  30.639  1.00  0.00     0.017 A 
HETATM    9  C10 UNK     1      17.955   3.520  33.284  1.00  0.00     0.075 A 
HETATM   10  C11 UNK     1      18.444   4.629  31.207  1.00  0.00     0.038 A 
HETATM   11  C12 UNK     1      18.625  -0.084  33.065  1.00  0.00     0.295 A 
HETATM   12  C13 UNK     1      19.547   0.832  29.393  1.00  0.00     0.050 C 
ENDROOT
BRANCH   7  13
HETATM   13  O1  UNK     1      17.649   5.876  33.079  1.00  0.00    -0.336 OA
BRANCH  13  14
HETATM   14  C5  UNK     1      17.871   7.048  32.296  1.00  0.00     0.228 C 
BRANCH  14  15
HETATM   15  C14 UNK     1      16.558   7.433  31.645  1.00  0.00     0.288 C 
HETATM   16  O5  UNK     1      16.439   8.282  30.771  1.00  0.00    -0.262 OA
BRANCH  15  17
HETATM   17  O3  UNK     1      15.540   6.710  32.199  1.00  0.00    -0.320 OA
BRANCH  17  18
HETATM   18  C17 UNK     1      14.378   7.461  32.567  1.00  0.00     0.174 C 
HETATM   19  C18 UNK     1      14.579   8.032  33.953  1.00  0.00     0.034 C 
ENDBRANCH  17  18
ENDBRANCH  15  17
ENDBRANCH  14  15
BRANCH  14  20
HETATM   20  C8  UNK     1      18.382   8.167  33.206  1.00  0.00     0.038 C 
HETATM   21  C16 UNK     1      19.004   7.630  34.487  1.00  0.00     0.008 C 
ENDBRANCH  14  20
ENDBRANCH  13  14
ENDBRANCH   7  13
BRANCH   5  22
HETATM   22  C7  UNK     1      19.519  -1.582  31.257  1.00  0.00     0.041 C 
HETATM   23  C15 UNK     1      20.958  -1.856  31.638  1.00  0.00     0.010 C 
ENDBRANCH   5  22
TORSDOF 7
ENDMDL
MODEL 2
REMARK VINA RESULT:      -7.5      1.446      2.215
REMARK  7 active torsions:
REMARK  status: ('A' for Active; 'I' for Inactive)
REMARK    1  A    between atoms: C5_10  and  O1_1 
REMARK    2  A    between atoms: C6_11  and  O1_1 
REMARK    3  A    between atoms: C14_19  and  O3_3 
REMARK    4  A    between atoms: C17_22  and  O3_3 
REMARK    5  A    between atoms: C3_8  and  C7_12 
REMARK    6  A    between atoms: C14_19  and  C5_10 
REMARK    7  A    between atoms: C5_10  and  C8_13 
ROOT
HETATM    1  O2  UNK     1      18.260   1.091  33.235  1.00  0.00    -0.274 OA
HETATM    2  O4  UNK     1      18.519  -1.106  33.741  1.00  0.00    -0.259 OA
HETATM    3  C1  UNK     1      18.922   1.933  31.049  1.00  0.00     0.005 A 
HETATM    4  C2  UNK     1      19.336   0.566  30.668  1.00  0.00    -0.037 A 
HETATM    5  C3  UNK     1      19.231  -0.434  31.569  1.00  0.00     0.024 A 
HETATM    6  C4  UNK     1      18.397   2.147  32.321  1.00  0.00     0.092 A 
HETATM    7  C6  UNK     1      18.097   4.498  31.908  1.00  0.00     0.072 A 
HETATM    8  C9  UNK     1      19.035   3.051  30.208  1.00  0.00     0.017 A 
HETATM    9  C10 UNK     1      17.982   3.406  32.761  1.00  0.00     0.075 A 
HETATM   10  C11 UNK     1      18.625   4.320  30.632  1.00  0.00     0.038 A 
HETATM   11  C12 UNK     1      18.654  -0.200  32.924  1.00  0.00     0.295 A 
HETATM   12  C13 UNK     1      19.845   0.376  29.262  1.00  0.00     0.050 C 
ENDROOT
BRANCH   7  13
HETATM   13  O1  UNK     1      17.699   5.732  32.318  1.00  0.00    -0.336 OA
BRANCH  13  14
HETATM   14  C5  UNK     1      18.703   6.744  32.400  1.00  0.00     0.228 C 
BRANCH  14  15
HETATM   15  C14 UNK     1      18.053   8.006  32.932  1.00  0.00     0.288 C 
HETATM   16  O5  UNK     1      17.145   8.607  32.373  1.00  0.00    -0.262 OA
BRANCH  15  17
HETATM   17  O3  UNK     1      18.652   8.375  34.102  1.00  0.00    -0.320 OA
BRANCH  17  18
HETATM   18  C17 UNK     1      19.144   9.719  34.148  1.00  0.00     0.174 C 
HETATM   19  C18 UNK     1      20.600   9.697  34.558  1.00  0.00     0.034 C 
ENDBRANCH  17  18
ENDBRANCH  15  17
ENDBRANCH  14  15
BRANCH  14  20
HETATM   20  C8  UNK     1      19.819   6.267  33.331  1.00  0.00     0.038 C 
HETATM   21  C16 UNK     1      21.194   6.378  32.687  1.00  0.00     0.008 C 
ENDBRANCH  14  20
ENDBRANCH  13  14
ENDBRANCH   7  13
BRANCH   5  22
HETATM   22  C7  UNK     1      19.674  -1.856  31.333  1.00  0.00     0.041 C 
HETATM   23  C15 UNK     1      20.997  -2.141  32.008  1.00  0.00     0.010 C 
ENDBRANCH   5  22
TORSDOF 7
ENDMDL
MODEL 3
REMARK VINA RESULT:      -7.3      1.686      2.512
REMARK  7 active torsions:
REMARK  status: ('A' for Active; 'I' for Inactive)
REMARK    1  A    between atoms: C5_10  and  O1_1 
REMARK    2  A    between atoms: C6_11  and  O1_1 
REMARK    3  A    between atoms: C14_19  and  O3_3 
REMARK    4  A    between atoms: C17_22  and  O3_3 
REMARK    5  A    between atoms: C3_8  and  C7_12 
REMARK    6  A    between atoms: C14_19  and  C5_10 
REMARK    7  A    between atoms: C5_10  and  C8_13 
ROOT
HETATM    1  O2  UNK     1      18.097   3.151  33.548  1.00  0.00    -0.274 OA
HETATM    2  O4  UNK     1      18.145   0.895  33.307  1.00  0.00    -0.259 OA
HETATM    3  C1  UNK     1      18.457   4.599  31.626  1.00  0.00     0.005 A 
HETATM    4  C2  UNK     1      18.606   3.401  30.774  1.00  0.00    -0.037 A 
HETATM    5  C3  UNK     1      18.533   2.176  31.335  1.00  0.00     0.024 A 
HETATM    6  C4  UNK     1      18.206   4.432  32.985  1.00  0.00     0.092 A 
HETATM    7  C6  UNK     1      18.156   6.806  33.369  1.00  0.00     0.072 A 
HETATM    8  C9  UNK     1      18.565   5.917  31.153  1.00  0.00     0.017 A 
HETATM    9  C10 UNK     1      18.052   5.510  33.860  1.00  0.00     0.075 A 
HETATM   10  C11 UNK     1      18.414   7.009  32.016  1.00  0.00     0.038 A 
HETATM   11  C12 UNK     1      18.250   2.003  32.789  1.00  0.00     0.295 A 
HETATM   12  C13 UNK     1      18.820   3.636  29.300  1.00  0.00     0.050 C 
ENDROOT
BRANCH   7  13
HETATM   13  O1  UNK     1      18.011   7.869  34.204  1.00  0.00    -0.336 OA
BRANCH  13  14
HETATM   14  C5  UNK     1      17.926   9.161  33.604  1.00  0.00     0.228 C 
BRANCH  14  15
HETATM   15  C14 UNK     1      16.549   9.724  33.895  1.00  0.00     0.288 C 
HETATM   16  O5  UNK     1      16.222  10.249  34.951  1.00  0.00    -0.262 OA
BRANCH  15  17
HETATM   17  O3  UNK     1      15.735   9.530  32.815  1.00  0.00    -0.320 OA
BRANCH  17  18
HETATM   18  C17 UNK     1      14.414   9.065  33.113  1.00  0.00     0.174 C 
HETATM   19  C18 UNK     1      14.468   7.583  33.411  1.00  0.00     0.034 C 
ENDBRANCH  17  18
ENDBRANCH  15  17
ENDBRANCH  14  15
BRANCH  14  20
HETATM   20  C8  UNK     1      19.020  10.056  34.188  1.00  0.00     0.038 C 
HETATM   21  C16 UNK     1      20.287   9.278  34.518  1.00  0.00     0.008 C 
ENDBRANCH  14  20
ENDBRANCH  13  14
ENDBRANCH   7  13
BRANCH   5  22
HETATM   22  C7  UNK     1      18.729   0.876  30.596  1.00  0.00     0.041 C 
HETATM   23  C15 UNK     1      20.180   0.447  30.608  1.00  0.00     0.010 C 
ENDBRANCH   5  22
TORSDOF 7
ENDMDL
MODEL 4
REMARK VINA RESULT:      -7.2      2.236      8.277
REMARK  7 active torsions:
REMARK  status: ('A' for Active; 'I' for Inactive)
REMARK    1  A    between atoms: C5_10  and  O1_1 
REMARK    2  A    between atoms: C6_11  and  O1_1 
REMARK    3  A    between atoms: C14_19  and  O3_3 
REMARK    4  A    between atoms: C17_22  and  O3_3 
REMARK    5  A    between atoms: C3_8  and  C7_12 
REMARK    6  A    between atoms: C14_19  and  C5_10 
REMARK    7  A    between atoms: C5_10  and  C8_13 
ROOT
HETATM    1  O2  UNK     1      16.122   8.938  33.314  1.00  0.00    -0.274 OA
HETATM    2  O4  UNK     1      15.428  11.039  33.816  1.00  0.00    -0.259 OA
HETATM    3  C1  UNK     1      18.456   8.313  33.607  1.00  0.00     0.005 A 
HETATM    4  C2  UNK     1      18.741   9.677  34.099  1.00  0.00    -0.037 A 
HETATM    5  C3  UNK     1      17.746  10.588  34.140  1.00  0.00     0.024 A 
HETATM    6  C4  UNK     1      17.155   7.991  33.233  1.00  0.00     0.092 A 
HETATM    7  C6  UNK     1      17.776   5.742  32.644  1.00  0.00     0.072 A 
HETATM    8  C9  UNK     1      19.426   7.306  33.479  1.00  0.00     0.017 A 
HETATM    9  C10 UNK     1      16.800   6.726  32.757  1.00  0.00     0.075 A 
HETATM   10  C11 UNK     1      19.089   6.033  33.003  1.00  0.00     0.038 A 
HETATM   11  C12 UNK     1      16.350  10.232  33.750  1.00  0.00     0.295 A 
HETATM   12  C13 UNK     1      20.153   9.959  34.547  1.00  0.00     0.050 C 
ENDROOT
BRANCH   7  13
HETATM   13  O1  UNK     1      17.452   4.505  32.182  1.00  0.00    -0.336 OA
BRANCH  13  14
HETATM   14  C5  UNK     1      18.520   3.691  31.699  1.00  0.00     0.228 C 
BRANCH  14  15
HETATM   15  C14 UNK     1      18.241   2.259  32.112  1.00  0.00     0.288 C 
HETATM   16  O5  UNK     1      17.813   1.924  33.209  1.00  0.00    -0.262 OA
BRANCH  15  17
HETATM   17  O3  UNK     1      18.564   1.414  31.089  1.00  0.00    -0.320 OA
BRANCH  17  18
HETATM   18  C17 UNK     1      19.247   0.215  31.471  1.00  0.00     0.174 C 
HETATM   19  C18 UNK     1      20.436   0.013  30.557  1.00  0.00     0.034 C 
ENDBRANCH  17  18
ENDBRANCH  15  17
ENDBRANCH  14  15
BRANCH  14  20
HETATM   20  C8  UNK     1      18.597   3.819  30.178  1.00  0.00     0.038 C 
HETATM   21  C16 UNK     1      19.355   5.065  29.741  1.00  0.00     0.008 C 
ENDBRANCH  14  20
ENDBRANCH  13  14
ENDBRANCH   7  13
BRANCH   5  22
HETATM   22  C7  UNK     1      17.911  12.027  34.559  1.00  0.00     0.041 C 
HETATM   23  C15 UNK     1      18.415  12.881  33.416  1.00  0.00     0.010 C 
ENDBRANCH   5  22
TORSDOF 7
ENDMDL
MODEL 5
REMARK VINA RESULT:      -7.1      5.183     10.636
REMARK  7 active torsions:
REMARK  status: ('A' for Active; 'I' for Inactive)
REMARK    1  A    between atoms: C5_10  and  O1_1 
REMARK    2  A    between atoms: C6_11  and  O1_1 
REMARK    3  A    between atoms: C14_19  and  O3_3 
REMARK    4  A    between atoms: C17_22  and  O3_3 
REMARK    5  A    between atoms: C3_8  and  C7_12 
REMARK    6  A    between atoms: C14_19  and  C5_10 
REMARK    7  A    between atoms: C5_10  and  C8_13 
ROOT
HETATM    1  O2  UNK     1      19.415  -1.529  33.785  1.00  0.00    -0.274 OA
HETATM    2  O4  UNK     1      18.724   0.103  32.368  1.00  0.00    -0.259 OA
HETATM    3  C1  UNK     1      18.915  -1.383  36.162  1.00  0.00     0.005 A 
HETATM    4  C2  UNK     1      18.209  -0.108  35.917  1.00  0.00    -0.037 A 
HETATM    5  C3  UNK     1      18.172   0.399  34.667  1.00  0.00     0.024 A 
HETATM    6  C4  UNK     1      19.493  -2.050  35.086  1.00  0.00     0.092 A 
HETATM    7  C6  UNK     1      20.298  -3.828  36.493  1.00  0.00     0.072 A 
HETATM    8  C9  UNK     1      19.055  -1.972  37.429  1.00  0.00     0.017 A 
HETATM    9  C10 UNK     1      20.177  -3.259  35.230  1.00  0.00     0.075 A 
HETATM   10  C11 UNK     1      19.738  -3.183  37.593  1.00  0.00     0.038 A 
HETATM   11  C12 UNK     1      18.781  -0.328  33.515  1.00  0.00     0.295 A 
HETATM   12  C13 UNK     1      17.551   0.546  37.106  1.00  0.00     0.050 C 
ENDROOT
BRANCH   7  13
HETATM   13  O1  UNK     1      20.961  -5.004  36.654  1.00  0.00    -0.336 OA
BRANCH  13  14
HETATM   14  C5  UNK     1      20.170  -6.184  36.787  1.00  0.00     0.228 C 
BRANCH  14  15
HETATM   15  C14 UNK     1      20.230  -6.938  35.473  1.00  0.00     0.288 C 
HETATM   16  O5  UNK     1      21.248  -7.419  34.995  1.00  0.00    -0.262 OA
BRANCH  15  17
HETATM   17  O3  UNK     1      18.988  -6.972  34.905  1.00  0.00    -0.320 OA
BRANCH  17  18
HETATM   18  C17 UNK     1      17.893  -7.089  35.820  1.00  0.00     0.174 C 
HETATM   19  C18 UNK     1      16.649  -7.481  35.053  1.00  0.00     0.034 C 
ENDBRANCH  17  18
ENDBRANCH  15  17
ENDBRANCH  14  15
BRANCH  14  20
HETATM   20  C8  UNK     1      20.724  -7.031  37.933  1.00  0.00     0.038 C 
HETATM   21  C16 UNK     1      20.150  -6.622  39.282  1.00  0.00     0.008 C 
ENDBRANCH  14  20
ENDBRANCH  13  14
ENDBRANCH   7  13
BRANCH   5  22
HETATM   22  C7  UNK     1      17.543   1.716  34.290  1.00  0.00     0.041 C 
HETATM   23  C15 UNK     1      18.477   2.874  34.567  1.00  0.00     0.010 C 
ENDBRANCH   5  22
TORSDOF 7
ENDMDL
MODEL 6
REMARK VINA RESULT:      -7.1     15.539     19.080
REMARK  7 active torsions:
REMARK  status: ('A' for Active; 'I' for Inactive)
REMARK    1  A    between atoms: C5_10  and  O1_1 
REMARK    2  A    between atoms: C6_11  and  O1_1 
REMARK    3  A    between atoms: C14_19  and  O3_3 
REMARK    4  A    between atoms: C17_22  and  O3_3 
REMARK    5  A    between atoms: C3_8  and  C7_12 
REMARK    6  A    between atoms: C14_19  and  C5_10 
REMARK    7  A    between atoms: C5_10  and  C8_13 
ROOT
HETATM    1  O2  UNK     1      19.325   1.528  15.278  1.00  0.00    -0.274 OA
HETATM    2  O4  UNK     1      19.487   3.629  16.119  1.00  0.00    -0.259 OA
HETATM    3  C1  UNK     1      18.956  -0.364  16.764  1.00  0.00     0.005 A 
HETATM    4  C2  UNK     1      18.937   0.566  17.913  1.00  0.00    -0.037 A 
HETATM    5  C3  UNK     1      19.143   1.883  17.704  1.00  0.00     0.024 A 
HETATM    6  C4  UNK     1      19.148   0.151  15.486  1.00  0.00     0.092 A 
HETATM    7  C6  UNK     1      19.018  -2.031  14.481  1.00  0.00     0.072 A 
HETATM    8  C9  UNK     1      18.802  -1.755  16.877  1.00  0.00     0.017 A 
HETATM    9  C10 UNK     1      19.180  -0.657  14.346  1.00  0.00     0.075 A 
HETATM   10  C11 UNK     1      18.831  -2.580  15.747  1.00  0.00     0.038 A 
HETATM   11  C12 UNK     1      19.335   2.430  16.329  1.00  0.00     0.295 A 
HETATM   12  C13 UNK     1      18.668  -0.034  19.270  1.00  0.00     0.050 C 
ENDROOT
BRANCH   7  13
HETATM   13  O1  UNK     1      19.047  -2.835  13.384  1.00  0.00    -0.336 OA
BRANCH  13  14
HETATM   14  C5  UNK     1      20.331  -3.224  12.897  1.00  0.00     0.228 C 
BRANCH  14  15
HETATM   15  C14 UNK     1      20.470  -4.722  13.088  1.00  0.00     0.288 C 
HETATM   16  O5  UNK     1      20.102  -5.562  12.278  1.00  0.00    -0.262 OA
BRANCH  15  17
HETATM   17  O3  UNK     1      21.040  -4.979  14.303  1.00  0.00    -0.320 OA
BRANCH  17  18
HETATM   18  C17 UNK     1      20.685  -6.232  14.898  1.00  0.00     0.174 C 
HETATM   19  C18 UNK     1      19.376  -6.073  15.639  1.00  0.00     0.034 C 
ENDBRANCH  17  18
ENDBRANCH  15  17
ENDBRANCH  14  15
BRANCH  14  20
HETATM   20  C8  UNK     1      20.441  -2.846  11.420  1.00  0.00     0.038 C 
HETATM   21  C16 UNK     1      21.016  -1.450  11.223  1.00  0.00     0.008 C 
ENDBRANCH  14  20
ENDBRANCH  13  14
ENDBRANCH   7  13
BRANCH   5  22
HETATM   22  C7  UNK     1      19.212   2.928  18.788  1.00  0.00     0.041 C 
HETATM   23  C15 UNK     1      20.577   2.959  19.440  1.00  0.00     0.010 C 
ENDBRANCH   5  22
TORSDOF 7
ENDMDL
MODEL 7
REMARK VINA RESULT:      -7.0      1.755      7.380
REMARK  7 active torsions:
REMARK  status: ('A' for Active; 'I' for Inactive)
REMARK    1  A    between atoms: C5_10  and  O1_1 
REMARK    2  A    between atoms: C6_11  and  O1_1 
REMARK    3  A    between atoms: C14_19  and  O3_3 
REMARK    4  A    between atoms: C17_22  and  O3_3 
REMARK    5  A    between atoms: C3_8  and  C7_12 
REMARK    6  A    between atoms: C14_19  and  C5_10 
REMARK    7  A    between atoms: C5_10  and  C8_13 
ROOT
HETATM    1  O2  UNK     1      17.917   3.971  33.258  1.00  0.00    -0.274 OA
HETATM    2  O4  UNK     1      17.494   5.901  34.375  1.00  0.00    -0.259 OA
HETATM    3  C1  UNK     1      18.595   4.028  30.921  1.00  0.00     0.005 A 
HETATM    4  C2  UNK     1      18.522   5.504  30.955  1.00  0.00    -0.037 A 
HETATM    5  C3  UNK     1      18.129   6.122  32.089  1.00  0.00     0.024 A 
HETATM    6  C4  UNK     1      18.290   3.313  32.076  1.00  0.00     0.092 A 
HETATM    7  C6  UNK     1      18.688   1.203  30.992  1.00  0.00     0.072 A 
HETATM    8  C9  UNK     1      18.944   3.285  29.782  1.00  0.00     0.017 A 
HETATM    9  C10 UNK     1      18.333   1.918  32.130  1.00  0.00     0.075 A 
HETATM   10  C11 UNK     1      18.991   1.887  29.817  1.00  0.00     0.038 A 
HETATM   11  C12 UNK     1      17.818   5.351  33.327  1.00  0.00     0.295 A 
HETATM   12  C13 UNK     1      18.917   6.234  29.697  1.00  0.00     0.050 C 
ENDROOT
BRANCH   7  13
HETATM   13  O1  UNK     1      18.735  -0.156  31.023  1.00  0.00    -0.336 OA
BRANCH  13  14
HETATM   14  C5  UNK     1      19.597  -0.754  31.991  1.00  0.00     0.228 C 
BRANCH  14  15
HETATM   15  C14 UNK     1      18.748  -1.194  33.167  1.00  0.00     0.288 C 
HETATM   16  O5  UNK     1      17.524  -1.225  33.166  1.00  0.00    -0.262 OA
BRANCH  15  17
HETATM   17  O3  UNK     1      19.554  -1.518  34.221  1.00  0.00    -0.320 OA
BRANCH  17  18
HETATM   18  C17 UNK     1      19.082  -1.108  35.509  1.00  0.00     0.174 C 
HETATM   19  C18 UNK     1      19.105  -2.298  36.444  1.00  0.00     0.034 C 
ENDBRANCH  17  18
ENDBRANCH  15  17
ENDBRANCH  14  15
BRANCH  14  20
HETATM   20  C8  UNK     1      20.312  -1.946  31.354  1.00  0.00     0.038 C 
HETATM   21  C16 UNK     1      20.416  -1.816  29.840  1.00  0.00     0.008 C 
ENDBRANCH  14  20
ENDBRANCH  13  14
ENDBRANCH   7  13
BRANCH   5  22
HETATM   22  C7  UNK     1      17.952   7.612  32.241  1.00  0.00     0.041 C 
HETATM   23  C15 UNK     1      16.553   8.044  31.861  1.00  0.00     0.010 C 
ENDBRANCH   5  22
TORSDOF 7
ENDMDL
MODEL 8
REMARK VINA RESULT:      -7.0      2.316      8.040
REMARK  7 active torsions:
REMARK  status: ('A' for Active; 'I' for Inactive)
REMARK    1  A    between atoms: C5_10  and  O1_1 
REMARK    2  A    between atoms: C6_11  and  O1_1 
REMARK    3  A    between atoms: C14_19  and  O3_3 
REMARK    4  A    between atoms: C17_22  and  O3_3 
REMARK    5  A    between atoms: C3_8  and  C7_12 
REMARK    6  A    between atoms: C14_19  and  C5_10 
REMARK    7  A    between atoms: C5_10  and  C8_13 
ROOT
HETATM    1  O2  UNK     1      15.694   7.980  33.838  1.00  0.00    -0.274 OA
HETATM    2  O4  UNK     1      14.068   9.555  33.997  1.00  0.00    -0.259 OA
HETATM    3  C1  UNK     1      18.039   8.632  33.842  1.00  0.00     0.005 A 
HETATM    4  C2  UNK     1      17.627  10.045  33.976  1.00  0.00    -0.037 A 
HETATM    5  C3  UNK     1      16.313  10.354  33.997  1.00  0.00     0.024 A 
HETATM    6  C4  UNK     1      17.056   7.648  33.778  1.00  0.00     0.092 A 
HETATM    7  C6  UNK     1      18.689   5.892  33.580  1.00  0.00     0.072 A 
HETATM    8  C9  UNK     1      19.374   8.208  33.761  1.00  0.00     0.017 A 
HETATM    9  C10 UNK     1      17.358   6.290  33.651  1.00  0.00     0.075 A 
HETATM   10  C11 UNK     1      19.696   6.852  33.633  1.00  0.00     0.038 A 
HETATM   11  C12 UNK     1      15.265   9.293  33.943  1.00  0.00     0.295 A 
HETATM   12  C13 UNK     1      18.729  11.067  34.099  1.00  0.00     0.050 C 
ENDROOT
BRANCH   7  13
HETATM   13  O1  UNK     1      19.004   4.576  33.455  1.00  0.00    -0.336 OA
BRANCH  13  14
HETATM   14  C5  UNK     1      18.029   3.729  32.847  1.00  0.00     0.228 C 
BRANCH  14  15
HETATM   15  C14 UNK     1      18.333   3.653  31.364  1.00  0.00     0.288 C 
HETATM   16  O5  UNK     1      19.094   4.407  30.772  1.00  0.00    -0.262 OA
BRANCH  15  17
HETATM   17  O3  UNK     1      17.612   2.640  30.798  1.00  0.00    -0.320 OA
BRANCH  17  18
HETATM   18  C17 UNK     1      18.045   2.227  29.497  1.00  0.00     0.174 C 
HETATM   19  C18 UNK     1      19.088   1.141  29.646  1.00  0.00     0.034 C 
ENDBRANCH  17  18
ENDBRANCH  15  17
ENDBRANCH  14  15
BRANCH  14  20
HETATM   20  C8  UNK     1      18.096   2.345  33.493  1.00  0.00     0.038 C 
HETATM   21  C16 UNK     1      18.475   2.413  34.966  1.00  0.00     0.008 C 
ENDBRANCH  14  20
ENDBRANCH  13  14
ENDBRANCH   7  13
BRANCH   5  22
HETATM   22  C7  UNK     1      15.757  11.754  34.066  1.00  0.00     0.041 C 
HETATM   23  C15 UNK     1      15.656  12.237  35.496  1.00  0.00     0.010 C 
ENDBRANCH   5  22
TORSDOF 7
ENDMDL
MODEL 9
REMARK VINA RESULT:      -7.0     22.840     24.795
REMARK  7 active torsions:
REMARK  status: ('A' for Active; 'I' for Inactive)
REMARK    1  A    between atoms: C5_10  and  O1_1 
REMARK    2  A    between atoms: C6_11  and  O1_1 
REMARK    3  A    between atoms: C14_19  and  O3_3 
REMARK    4  A    between atoms: C17_22  and  O3_3 
REMARK    5  A    between atoms: C3_8  and  C7_12 
REMARK    6  A    between atoms: C14_19  and  C5_10 
REMARK    7  A    between atoms: C5_10  and  C8_13 
ROOT
HETATM    1  O2  UNK     1      12.846   8.696   9.987  1.00  0.00    -0.274 OA
HETATM    2  O4  UNK     1      14.009  10.540  10.618  1.00  0.00    -0.259 OA
HETATM    3  C1  UNK     1      14.012   6.614   9.510  1.00  0.00     0.005 A 
HETATM    4  C2  UNK     1      15.292   7.278   9.832  1.00  0.00    -0.037 A 
HETATM    5  C3  UNK     1      15.295   8.585  10.169  1.00  0.00     0.024 A 
HETATM    6  C4  UNK     1      12.832   7.347   9.600  1.00  0.00     0.092 A 
HETATM    7  C6  UNK     1      11.496   5.467   8.917  1.00  0.00     0.072 A 
HETATM    8  C9  UNK     1      13.903   5.275   9.101  1.00  0.00     0.017 A 
HETATM    9  C10 UNK     1      11.581   6.797   9.314  1.00  0.00     0.075 A 
HETATM   10  C11 UNK     1      12.657   4.707   8.809  1.00  0.00     0.038 A 
HETATM   11  C12 UNK     1      14.026   9.361  10.277  1.00  0.00     0.295 A 
HETATM   12  C13 UNK     1      16.535   6.426   9.774  1.00  0.00     0.050 C 
ENDROOT
BRANCH   7  13
HETATM   13  O1  UNK     1      10.287   4.913   8.633  1.00  0.00    -0.336 OA
BRANCH  13  14
HETATM   14  C5  UNK     1       9.128   5.620   9.073  1.00  0.00     0.228 C 
BRANCH  14  15
HETATM   15  C14 UNK     1       8.397   6.131   7.847  1.00  0.00     0.288 C 
HETATM   16  O5  UNK     1       7.446   6.901   7.877  1.00  0.00    -0.262 OA
BRANCH  15  17
HETATM   17  O3  UNK     1       8.944   5.582   6.723  1.00  0.00    -0.320 OA
BRANCH  17  18
HETATM   18  C17 UNK     1       9.273   6.507   5.681  1.00  0.00     0.174 C 
HETATM   19  C18 UNK     1      10.752   6.821   5.749  1.00  0.00     0.034 C 
ENDBRANCH  17  18
ENDBRANCH  15  17
ENDBRANCH  14  15
BRANCH  14  20
HETATM   20  C8  UNK     1       8.244   4.674   9.886  1.00  0.00     0.038 C 
HETATM   21  C16 UNK     1       7.425   5.410  10.937  1.00  0.00     0.008 C 
ENDBRANCH  14  20
ENDBRANCH  13  14
ENDBRANCH   7  13
BRANCH   5  22
HETATM   22  C7  UNK     1      16.531   9.398  10.459  1.00  0.00     0.041 C 
HETATM   23  C15 UNK     1      17.140   9.950   9.189  1.00  0.00     0.010 C 
ENDBRANCH   5  22
TORSDOF 7
ENDMDL
MODEL 10
REMARK VINA RESULT:      -6.9     22.732     24.568
REMARK  7 active torsions:
REMARK  status: ('A' for Active; 'I' for Inactive)
REMARK    1  A    between atoms: C5_10  and  O1_1 
REMARK    2  A    between atoms: C6_11  and  O1_1 
REMARK    3  A    between atoms: C14_19  and  O3_3 
REMARK    4  A    between atoms: C17_22  and  O3_3 
REMARK    5  A    between atoms: C3_8  and  C7_12 
REMARK    6  A    between atoms: C14_19  and  C5_10 
REMARK    7  A    between atoms: C5_10  and  C8_13 
ROOT
HETATM    1  O2  UNK     1      13.710   5.612   9.370  1.00  0.00    -0.274 OA
HETATM    2  O4  UNK     1      15.763   4.731   9.773  1.00  0.00    -0.259 OA
HETATM    3  C1  UNK     1      13.276   7.965   9.814  1.00  0.00     0.005 A 
HETATM    4  C2  UNK     1      14.676   8.120  10.260  1.00  0.00    -0.037 A 
HETATM    5  C3  UNK     1      15.491   7.044  10.275  1.00  0.00     0.024 A 
HETATM    6  C4  UNK     1      12.842   6.714   9.383  1.00  0.00     0.092 A 
HETATM    7  C6  UNK     1      10.622   7.528   8.939  1.00  0.00     0.072 A 
HETATM    8  C9  UNK     1      12.334   9.006   9.805  1.00  0.00     0.017 A 
HETATM    9  C10 UNK     1      11.536   6.480   8.945  1.00  0.00     0.075 A 
HETATM   10  C11 UNK     1      11.021   8.790   9.371  1.00  0.00     0.038 A 
HETATM   11  C12 UNK     1      15.024   5.710   9.799  1.00  0.00     0.295 A 
HETATM   12  C13 UNK     1      15.112   9.507  10.662  1.00  0.00     0.050 C 
ENDROOT
BRANCH   7  13
HETATM   13  O1  UNK     1       9.346   7.320   8.518  1.00  0.00    -0.336 OA
BRANCH  13  14
HETATM   14  C5  UNK     1       9.084   6.109   7.810  1.00  0.00     0.228 C 
BRANCH  14  15
HETATM   15  C14 UNK     1       7.832   5.486   8.396  1.00  0.00     0.288 C 
HETATM   16  O5  UNK     1       7.395   4.385   8.087  1.00  0.00    -0.262 OA
BRANCH  15  17
HETATM   17  O3  UNK     1       7.264   6.348   9.290  1.00  0.00    -0.320 OA
BRANCH  17  18
HETATM   18  C17 UNK     1       7.097   5.839  10.618  1.00  0.00     0.174 C 
HETATM   19  C18 UNK     1       5.623   5.627  10.883  1.00  0.00     0.034 C 
ENDBRANCH  17  18
ENDBRANCH  15  17
ENDBRANCH  14  15
BRANCH  14  20
HETATM   20  C8  UNK     1       8.897   6.427   6.327  1.00  0.00     0.038 C 
HETATM   21  C16 UNK     1      10.134   6.095   5.505  1.00  0.00     0.008 C 
ENDBRANCH  14  20
ENDBRANCH  13  14
ENDBRANCH   7  13
BRANCH   5  22
HETATM   22  C7  UNK     1      16.917   7.050  10.764  1.00  0.00     0.041 C 
HETATM   23  C15 UNK     1      17.888   7.302   9.631  1.00  0.00     0.010 C 
ENDBRANCH   5  22
TORSDOF 7
ENDMDL
