MODEL 1
REMARK VINA RESULT:      -9.1      0.000      0.000
REMARK  5 active torsions:
REMARK  status: ('A' for Active; 'I' for Inactive)
REMARK    1  A    between atoms: C10_18  and  O2_2 
REMARK    2  A    between atoms: C11_19  and  O2_2 
REMARK    3  A    between atoms: C14_22  and  O4_4 
REMARK    4  A    between atoms: C6_14  and  N1_8 
REMARK    5  A    between atoms: C10_18  and  C4_12 
ROOT
HETATM    1  O1  UNK     1      19.057   0.756  28.688  1.00  0.00    -0.274 OA
HETATM    2  O3  UNK     1      18.094   2.783  28.257  1.00  0.00    -0.259 OA
HETATM    3  C1  UNK     1      19.666   0.177  30.969  1.00  0.00     0.001 A 
HETATM    4  C2  UNK     1      19.601  -0.150  29.619  1.00  0.00     0.089 A 
HETATM    5  C3  UNK     1      19.162   1.471  31.404  1.00  0.00     0.038 A 
HETATM    6  C4  UNK     1      18.647   2.328  30.516  1.00  0.00     0.116 A 
HETATM    7  C5  UNK     1      20.212  -0.749  31.862  1.00  0.00     0.050 A 
HETATM    8  C6  UNK     1      20.682  -1.979  31.393  1.00  0.00     0.103 A 
HETATM    9  C7  UNK     1      20.066  -1.373  29.137  1.00  0.00     0.041 A 
HETATM   10  C8  UNK     1      20.609  -2.290  30.033  1.00  0.00     0.039 A 
HETATM   11  C9  UNK     1      18.568   2.001  29.074  1.00  0.00     0.304 A 
ENDROOT
BRANCH   6  12
HETATM   12  C10 UNK     1      18.165   3.606  31.052  1.00  0.00     0.304 C 
HETATM   13  O5  UNK     1      17.152   3.716  31.725  1.00  0.00    -0.259 OA
BRANCH  12  14
HETATM   14  O2  UNK     1      19.046   4.594  30.658  1.00  0.00    -0.275 OA
BRANCH  14  15
HETATM   15  C11 UNK     1      19.060   5.678  31.540  1.00  0.00     0.079 A 
HETATM   16  C12 UNK     1      17.986   6.539  31.546  1.00  0.00     0.040 A 
HETATM   17  C15 UNK     1      17.999   7.621  32.425  1.00  0.00     0.039 A 
HETATM   18  C14 UNK     1      19.088   7.814  33.278  1.00  0.00     0.068 A 
HETATM   19  C16 UNK     1      20.161   6.924  33.248  1.00  0.00     0.039 A 
HETATM   20  C13 UNK     1      20.148   5.842  32.368  1.00  0.00     0.040 A 
BRANCH  18  21
HETATM   21  O4  UNK     1      19.101   8.870  34.136  1.00  0.00    -0.356 OA
HETATM   22  C17 UNK     1      18.157   9.914  33.895  1.00  0.00     0.210 C 
ENDBRANCH  18  21
ENDBRANCH  14  15
ENDBRANCH  12  14
ENDBRANCH   6  12
BRANCH   8  23
HETATM   23  N1  UNK     1      21.238  -2.917  32.303  1.00  0.00    -0.116 N 
HETATM   24  O6  UNK     1      21.343  -4.117  31.950  1.00  0.00    -0.532 OA
HETATM   25  O7  UNK     1      21.607  -2.521  33.435  1.00  0.00    -0.532 OA
ENDBRANCH   8  23
TORSDOF 5
ENDMDL
MODEL 2
REMARK VINA RESULT:      -8.9      3.590      4.532
REMARK  5 active torsions:
REMARK  status: ('A' for Active; 'I' for Inactive)
REMARK    1  A    between atoms: C10_18  and  O2_2 
REMARK    2  A    between atoms: C11_19  and  O2_2 
REMARK    3  A    between atoms: C14_22  and  O4_4 
REMARK    4  A    between atoms: C6_14  and  N1_8 
REMARK    5  A    between atoms: C10_18  and  C4_12 
ROOT
HETATM    1  O1  UNK     1      18.311   1.338  32.291  1.00  0.00    -0.274 OA
HETATM    2  O3  UNK     1      18.372   2.883  30.608  1.00  0.00    -0.259 OA
HETATM    3  C1  UNK     1      18.184   2.085  34.601  1.00  0.00     0.001 A 
HETATM    4  C2  UNK     1      18.246   1.054  33.669  1.00  0.00     0.089 A 
HETATM    5  C3  UNK     1      18.188   3.461  34.130  1.00  0.00     0.038 A 
HETATM    6  C4  UNK     1      18.250   3.725  32.820  1.00  0.00     0.116 A 
HETATM    7  C5  UNK     1      18.120   1.762  35.960  1.00  0.00     0.050 A 
HETATM    8  C6  UNK     1      18.119   0.424  36.362  1.00  0.00     0.103 A 
HETATM    9  C7  UNK     1      18.246  -0.285  34.055  1.00  0.00     0.041 A 
HETATM   10  C8  UNK     1      18.182  -0.598  35.411  1.00  0.00     0.039 A 
HETATM   11  C9  UNK     1      18.317   2.644  31.810  1.00  0.00     0.304 A 
ENDROOT
BRANCH   6  12
HETATM   12  C10 UNK     1      18.247   5.143  32.444  1.00  0.00     0.304 C 
HETATM   13  O5  UNK     1      19.264   5.798  32.271  1.00  0.00    -0.259 OA
BRANCH  12  14
HETATM   14  O2  UNK     1      16.932   5.552  32.331  1.00  0.00    -0.275 OA
BRANCH  14  15
HETATM   15  C11 UNK     1      16.679   6.732  33.036  1.00  0.00     0.079 A 
HETATM   16  C12 UNK     1      16.904   6.752  34.394  1.00  0.00     0.040 A 
HETATM   17  C15 UNK     1      16.652   7.930  35.097  1.00  0.00     0.039 A 
HETATM   18  C14 UNK     1      16.180   9.058  34.424  1.00  0.00     0.068 A 
HETATM   19  C16 UNK     1      15.961   9.006  33.047  1.00  0.00     0.039 A 
HETATM   20  C13 UNK     1      16.213   7.828  32.344  1.00  0.00     0.040 A 
BRANCH  18  21
HETATM   21  O4  UNK     1      15.933  10.206  35.110  1.00  0.00    -0.356 OA
HETATM   22  C17 UNK     1      14.573  10.488  35.436  1.00  0.00     0.210 C 
ENDBRANCH  18  21
ENDBRANCH  14  15
ENDBRANCH  12  14
ENDBRANCH   6  12
BRANCH   8  23
HETATM   23  N1  UNK     1      18.054   0.099  37.742  1.00  0.00    -0.116 N 
HETATM   24  O6  UNK     1      17.927   1.026  38.579  1.00  0.00    -0.532 OA
HETATM   25  O7  UNK     1      18.127  -1.104  38.088  1.00  0.00    -0.532 OA
ENDBRANCH   8  23
TORSDOF 5
ENDMDL
MODEL 3
REMARK VINA RESULT:      -8.9      3.478      4.360
REMARK  5 active torsions:
REMARK  status: ('A' for Active; 'I' for Inactive)
REMARK    1  A    between atoms: C10_18  and  O2_2 
REMARK    2  A    between atoms: C11_19  and  O2_2 
REMARK    3  A    between atoms: C14_22  and  O4_4 
REMARK    4  A    between atoms: C6_14  and  N1_8 
REMARK    5  A    between atoms: C10_18  and  C4_12 
ROOT
HETATM    1  O1  UNK     1      18.385   1.334  32.224  1.00  0.00    -0.274 OA
HETATM    2  O3  UNK     1      18.444   2.885  30.546  1.00  0.00    -0.259 OA
HETATM    3  C1  UNK     1      18.188   2.072  34.532  1.00  0.00     0.001 A 
HETATM    4  C2  UNK     1      18.297   1.046  33.599  1.00  0.00     0.089 A 
HETATM    5  C3  UNK     1      18.168   3.449  34.064  1.00  0.00     0.038 A 
HETATM    6  C4  UNK     1      18.252   3.718  32.756  1.00  0.00     0.116 A 
HETATM    7  C5  UNK     1      18.102   1.745  35.888  1.00  0.00     0.050 A 
HETATM    8  C6  UNK     1      18.126   0.405  36.287  1.00  0.00     0.103 A 
HETATM    9  C7  UNK     1      18.322  -0.294  33.983  1.00  0.00     0.041 A 
HETATM   10  C8  UNK     1      18.236  -0.612  35.336  1.00  0.00     0.039 A 
HETATM   11  C9  UNK     1      18.368   2.642  31.746  1.00  0.00     0.304 A 
ENDROOT
BRANCH   6  12
HETATM   12  C10 UNK     1      18.222   5.137  32.382  1.00  0.00     0.304 C 
HETATM   13  O5  UNK     1      19.223   5.795  32.149  1.00  0.00    -0.259 OA
BRANCH  12  14
HETATM   14  O2  UNK     1      16.901   5.542  32.351  1.00  0.00    -0.275 OA
BRANCH  14  15
HETATM   15  C11 UNK     1      16.695   6.741  33.036  1.00  0.00     0.079 A 
HETATM   16  C12 UNK     1      16.252   7.838  32.332  1.00  0.00     0.040 A 
HETATM   17  C15 UNK     1      16.047   9.036  33.015  1.00  0.00     0.039 A 
HETATM   18  C14 UNK     1      16.289   9.107  34.388  1.00  0.00     0.068 A 
HETATM   19  C16 UNK     1      16.737   7.978  35.075  1.00  0.00     0.039 A 
HETATM   20  C13 UNK     1      16.943   6.780  34.391  1.00  0.00     0.040 A 
BRANCH  18  21
HETATM   21  O4  UNK     1      16.089  10.275  35.055  1.00  0.00    -0.356 OA
HETATM   22  C17 UNK     1      16.529  11.472  34.413  1.00  0.00     0.210 C 
ENDBRANCH  18  21
ENDBRANCH  14  15
ENDBRANCH  12  14
ENDBRANCH   6  12
BRANCH   8  23
HETATM   23  N1  UNK     1      18.040   0.076  37.666  1.00  0.00    -0.116 N 
HETATM   24  O6  UNK     1      17.909   1.000  38.504  1.00  0.00    -0.532 OA
HETATM   25  O7  UNK     1      18.097  -1.129  38.007  1.00  0.00    -0.532 OA
ENDBRANCH   8  23
TORSDOF 5
ENDMDL
MODEL 4
REMARK VINA RESULT:      -8.8     13.141     17.069
REMARK  5 active torsions:
REMARK  status: ('A' for Active; 'I' for Inactive)
REMARK    1  A    between atoms: C10_18  and  O2_2 
REMARK    2  A    between atoms: C11_19  and  O2_2 
REMARK    3  A    between atoms: C14_22  and  O4_4 
REMARK    4  A    between atoms: C6_14  and  N1_8 
REMARK    5  A    between atoms: C10_18  and  C4_12 
ROOT
HETATM    1  O1  UNK     1      19.372   0.642  14.746  1.00  0.00    -0.274 OA
HETATM    2  O3  UNK     1      19.362  -0.938  13.095  1.00  0.00    -0.259 OA
HETATM    3  C1  UNK     1      18.927  -0.019  17.042  1.00  0.00     0.001 A 
HETATM    4  C2  UNK     1      19.224   0.967  16.108  1.00  0.00     0.089 A 
HETATM    5  C3  UNK     1      18.771  -1.393  16.589  1.00  0.00     0.038 A 
HETATM    6  C4  UNK     1      18.913  -1.696  15.294  1.00  0.00     0.116 A 
HETATM    7  C5  UNK     1      18.788   0.343  18.385  1.00  0.00     0.050 A 
HETATM    8  C6  UNK     1      18.948   1.677  18.769  1.00  0.00     0.103 A 
HETATM    9  C7  UNK     1      19.386   2.302  16.476  1.00  0.00     0.041 A 
HETATM   10  C8  UNK     1      19.246   2.655  17.816  1.00  0.00     0.039 A 
HETATM   11  C9  UNK     1      19.229  -0.663  14.282  1.00  0.00     0.304 A 
ENDROOT
BRANCH   6  12
HETATM   12  C10 UNK     1      18.738  -3.109  14.936  1.00  0.00     0.304 C 
HETATM   13  O5  UNK     1      17.780  -3.780  15.286  1.00  0.00    -0.259 OA
BRANCH  12  14
HETATM   14  O2  UNK     1      19.821  -3.491  14.166  1.00  0.00    -0.275 OA
BRANCH  14  15
HETATM   15  C11 UNK     1      20.901  -3.919  14.941  1.00  0.00     0.079 A 
HETATM   16  C12 UNK     1      21.905  -3.023  15.229  1.00  0.00     0.040 A 
HETATM   17  C15 UNK     1      22.984  -3.450  16.002  1.00  0.00     0.039 A 
HETATM   18  C14 UNK     1      23.031  -4.764  16.468  1.00  0.00     0.068 A 
HETATM   19  C16 UNK     1      21.999  -5.650  16.160  1.00  0.00     0.039 A 
HETATM   20  C13 UNK     1      20.920  -5.223  15.386  1.00  0.00     0.040 A 
BRANCH  18  21
HETATM   21  O4  UNK     1      24.084  -5.181  17.223  1.00  0.00    -0.356 OA
HETATM   22  C17 UNK     1      25.328  -4.509  17.028  1.00  0.00     0.210 C 
ENDBRANCH  18  21
ENDBRANCH  14  15
ENDBRANCH  12  14
ENDBRANCH   6  12
BRANCH   8  23
HETATM   23  N1  UNK     1      18.805   2.042  20.134  1.00  0.00    -0.116 N 
HETATM   24  O6  UNK     1      19.716   2.708  20.684  1.00  0.00    -0.532 OA
HETATM   25  O7  UNK     1      17.773   1.689  20.753  1.00  0.00    -0.532 OA
ENDBRANCH   8  23
TORSDOF 5
ENDMDL
MODEL 5
REMARK VINA RESULT:      -8.8      1.698      2.617
REMARK  5 active torsions:
REMARK  status: ('A' for Active; 'I' for Inactive)
REMARK    1  A    between atoms: C10_18  and  O2_2 
REMARK    2  A    between atoms: C11_19  and  O2_2 
REMARK    3  A    between atoms: C14_22  and  O4_4 
REMARK    4  A    between atoms: C6_14  and  N1_8 
REMARK    5  A    between atoms: C10_18  and  C4_12 
ROOT
HETATM    1  O1  UNK     1      20.024  -1.407  29.281  1.00  0.00    -0.274 OA
HETATM    2  O3  UNK     1      19.293  -0.056  27.589  1.00  0.00    -0.259 OA
HETATM    3  C1  UNK     1      19.586  -0.783  31.589  1.00  0.00     0.001 A 
HETATM    4  C2  UNK     1      20.129  -1.665  30.661  1.00  0.00     0.089 A 
HETATM    5  C3  UNK     1      18.908   0.412  31.111  1.00  0.00     0.038 A 
HETATM    6  C4  UNK     1      18.812   0.653  29.798  1.00  0.00     0.116 A 
HETATM    7  C5  UNK     1      19.710  -1.074  32.951  1.00  0.00     0.050 A 
HETATM    8  C6  UNK     1      20.371  -2.236  33.359  1.00  0.00     0.103 A 
HETATM    9  C7  UNK     1      20.791  -2.827  31.055  1.00  0.00     0.041 A 
HETATM   10  C8  UNK     1      20.911  -3.110  32.413  1.00  0.00     0.039 A 
HETATM   11  C9  UNK     1      19.382  -0.273  28.793  1.00  0.00     0.304 A 
ENDROOT
BRANCH   6  12
HETATM   12  C10 UNK     1      18.108   1.882  29.414  1.00  0.00     0.304 C 
HETATM   13  O5  UNK     1      18.097   2.326  28.277  1.00  0.00    -0.259 OA
BRANCH  12  14
HETATM   14  O2  UNK     1      17.499   2.396  30.543  1.00  0.00    -0.275 OA
BRANCH  14  15
HETATM   15  C11 UNK     1      18.163   3.520  31.042  1.00  0.00     0.079 A 
HETATM   16  C12 UNK     1      18.956   4.253  30.188  1.00  0.00     0.040 A 
HETATM   17  C15 UNK     1      19.618   5.375  30.686  1.00  0.00     0.039 A 
HETATM   18  C14 UNK     1      19.471   5.735  32.026  1.00  0.00     0.068 A 
HETATM   19  C16 UNK     1      18.661   4.971  32.867  1.00  0.00     0.039 A 
HETATM   20  C13 UNK     1      17.998   3.850  32.370  1.00  0.00     0.040 A 
BRANCH  18  21
HETATM   21  O4  UNK     1      20.118   6.829  32.512  1.00  0.00    -0.356 OA
HETATM   22  C17 UNK     1      19.647   7.365  33.748  1.00  0.00     0.210 C 
ENDBRANCH  18  21
ENDBRANCH  14  15
ENDBRANCH  12  14
ENDBRANCH   6  12
BRANCH   8  23
HETATM   23  N1  UNK     1      20.496  -2.529  34.743  1.00  0.00    -0.116 N 
HETATM   24  O6  UNK     1      20.806  -1.606  35.535  1.00  0.00    -0.532 OA
HETATM   25  O7  UNK     1      20.294  -3.703  35.136  1.00  0.00    -0.532 OA
ENDBRANCH   8  23
TORSDOF 5
ENDMDL
MODEL 6
REMARK VINA RESULT:      -8.7     13.982     18.154
REMARK  5 active torsions:
REMARK  status: ('A' for Active; 'I' for Inactive)
REMARK    1  A    between atoms: C10_18  and  O2_2 
REMARK    2  A    between atoms: C11_19  and  O2_2 
REMARK    3  A    between atoms: C14_22  and  O4_4 
REMARK    4  A    between atoms: C6_14  and  N1_8 
REMARK    5  A    between atoms: C10_18  and  C4_12 
ROOT
HETATM    1  O1  UNK     1      19.252   0.880  15.106  1.00  0.00    -0.274 OA
HETATM    2  O3  UNK     1      19.187  -0.688  13.445  1.00  0.00    -0.259 OA
HETATM    3  C1  UNK     1      18.985   0.188  17.421  1.00  0.00     0.001 A 
HETATM    4  C2  UNK     1      19.184   1.190  16.478  1.00  0.00     0.089 A 
HETATM    5  C3  UNK     1      18.849  -1.188  16.967  1.00  0.00     0.038 A 
HETATM    6  C4  UNK     1      18.914  -1.477  15.663  1.00  0.00     0.116 A 
HETATM    7  C5  UNK     1      18.924   0.536  18.773  1.00  0.00     0.050 A 
HETATM    8  C6  UNK     1      19.061   1.872  19.158  1.00  0.00     0.103 A 
HETATM    9  C7  UNK     1      19.322   2.527  16.847  1.00  0.00     0.041 A 
HETATM   10  C8  UNK     1      19.260   2.866  18.197  1.00  0.00     0.039 A 
HETATM   11  C9  UNK     1      19.124  -0.426  14.642  1.00  0.00     0.304 A 
ENDROOT
BRANCH   6  12
HETATM   12  C10 UNK     1      18.766  -2.893  15.304  1.00  0.00     0.304 C 
HETATM   13  O5  UNK     1      17.703  -3.400  14.983  1.00  0.00    -0.259 OA
BRANCH  12  14
HETATM   14  O2  UNK     1      20.009  -3.489  15.401  1.00  0.00    -0.275 OA
BRANCH  14  15
HETATM   15  C11 UNK     1      20.192  -4.496  14.450  1.00  0.00     0.079 A 
HETATM   16  C12 UNK     1      20.166  -4.159  13.116  1.00  0.00     0.040 A 
HETATM   17  C15 UNK     1      20.349  -5.163  12.166  1.00  0.00     0.039 A 
HETATM   18  C14 UNK     1      20.553  -6.482  12.576  1.00  0.00     0.068 A 
HETATM   19  C16 UNK     1      20.573  -6.793  13.936  1.00  0.00     0.039 A 
HETATM   20  C13 UNK     1      20.390  -5.788  14.886  1.00  0.00     0.040 A 
BRANCH  18  21
HETATM   21  O4  UNK     1      20.731  -7.462  11.650  1.00  0.00    -0.356 OA
HETATM   22  C17 UNK     1      20.574  -8.810  12.093  1.00  0.00     0.210 C 
ENDBRANCH  18  21
ENDBRANCH  14  15
ENDBRANCH  12  14
ENDBRANCH   6  12
BRANCH   8  23
HETATM   23  N1  UNK     1      18.998   2.223  20.533  1.00  0.00    -0.116 N 
HETATM   24  O6  UNK     1      20.066   2.425  21.159  1.00  0.00    -0.532 OA
HETATM   25  O7  UNK     1      17.875   2.320  21.084  1.00  0.00    -0.532 OA
ENDBRANCH   8  23
TORSDOF 5
ENDMDL
MODEL 7
REMARK VINA RESULT:      -8.6      2.000      2.696
REMARK  5 active torsions:
REMARK  status: ('A' for Active; 'I' for Inactive)
REMARK    1  A    between atoms: C10_18  and  O2_2 
REMARK    2  A    between atoms: C11_19  and  O2_2 
REMARK    3  A    between atoms: C14_22  and  O4_4 
REMARK    4  A    between atoms: C6_14  and  N1_8 
REMARK    5  A    between atoms: C10_18  and  C4_12 
ROOT
HETATM    1  O1  UNK     1      20.322  -1.418  29.791  1.00  0.00    -0.274 OA
HETATM    2  O3  UNK     1      19.816   0.062  28.125  1.00  0.00    -0.259 OA
HETATM    3  C1  UNK     1      19.670  -0.918  32.079  1.00  0.00     0.001 A 
HETATM    4  C2  UNK     1      20.275  -1.764  31.155  1.00  0.00     0.089 A 
HETATM    5  C3  UNK     1      19.087   0.330  31.612  1.00  0.00     0.038 A 
HETATM    6  C4  UNK     1      19.134   0.654  30.315  1.00  0.00     0.116 A 
HETATM    7  C5  UNK     1      19.643  -1.297  33.424  1.00  0.00     0.050 A 
HETATM    8  C6  UNK     1      20.218  -2.507  33.821  1.00  0.00     0.103 A 
HETATM    9  C7  UNK     1      20.852  -2.974  31.537  1.00  0.00     0.041 A 
HETATM   10  C8  UNK     1      20.821  -3.344  32.879  1.00  0.00     0.039 A 
HETATM   11  C9  UNK     1      19.773  -0.231  29.315  1.00  0.00     0.304 A 
ENDROOT
BRANCH   6  12
HETATM   12  C10 UNK     1      18.518   1.933  29.943  1.00  0.00     0.304 C 
HETATM   13  O5  UNK     1      17.360   2.039  29.568  1.00  0.00    -0.259 OA
BRANCH  12  14
HETATM   14  O2  UNK     1      19.466   2.926  30.099  1.00  0.00    -0.275 OA
BRANCH  14  15
HETATM   15  C11 UNK     1      18.925   4.100  30.627  1.00  0.00     0.079 A 
HETATM   16  C12 UNK     1      18.253   4.038  31.827  1.00  0.00     0.040 A 
HETATM   17  C15 UNK     1      17.713   5.210  32.355  1.00  0.00     0.039 A 
HETATM   18  C14 UNK     1      17.859   6.416  31.669  1.00  0.00     0.068 A 
HETATM   19  C16 UNK     1      18.545   6.448  30.455  1.00  0.00     0.039 A 
HETATM   20  C13 UNK     1      19.085   5.276  29.927  1.00  0.00     0.040 A 
BRANCH  18  21
HETATM   21  O4  UNK     1      17.332   7.560  32.184  1.00  0.00    -0.356 OA
HETATM   22  C17 UNK     1      16.048   7.957  31.703  1.00  0.00     0.210 C 
ENDBRANCH  18  21
ENDBRANCH  14  15
ENDBRANCH  12  14
ENDBRANCH   6  12
BRANCH   8  23
HETATM   23  N1  UNK     1      20.189  -2.888  35.188  1.00  0.00    -0.116 N 
HETATM   24  O6  UNK     1      20.118  -1.996  36.067  1.00  0.00    -0.532 OA
HETATM   25  O7  UNK     1      20.237  -4.108  35.481  1.00  0.00    -0.532 OA
ENDBRANCH   8  23
TORSDOF 5
ENDMDL
MODEL 8
REMARK VINA RESULT:      -8.4     22.247     24.282
REMARK  5 active torsions:
REMARK  status: ('A' for Active; 'I' for Inactive)
REMARK    1  A    between atoms: C10_18  and  O2_2 
REMARK    2  A    between atoms: C11_19  and  O2_2 
REMARK    3  A    between atoms: C14_22  and  O4_4 
REMARK    4  A    between atoms: C6_14  and  N1_8 
REMARK    5  A    between atoms: C10_18  and  C4_12 
ROOT
HETATM    1  O1  UNK     1      11.573   6.627   7.029  1.00  0.00    -0.274 OA
HETATM    2  O3  UNK     1      13.850   6.824   6.982  1.00  0.00    -0.259 OA
HETATM    3  C1  UNK     1      10.503   5.529   8.916  1.00  0.00     0.001 A 
HETATM    4  C2  UNK     1      10.413   6.183   7.692  1.00  0.00     0.089 A 
HETATM    5  C3  UNK     1      11.817   5.312   9.502  1.00  0.00     0.038 A 
HETATM    6  C4  UNK     1      12.916   5.735   8.869  1.00  0.00     0.116 A 
HETATM    7  C5  UNK     1       9.328   5.104   9.542  1.00  0.00     0.050 A 
HETATM    8  C6  UNK     1       8.090   5.338   8.938  1.00  0.00     0.103 A 
HETATM    9  C7  UNK     1       9.185   6.423   7.077  1.00  0.00     0.041 A 
HETATM   10  C8  UNK     1       8.019   5.996   7.707  1.00  0.00     0.039 A 
HETATM   11  C9  UNK     1      12.844   6.433   7.564  1.00  0.00     0.304 A 
ENDROOT
BRANCH   6  12
HETATM   12  C10 UNK     1      14.194   5.470   9.540  1.00  0.00     0.304 C 
HETATM   13  O5  UNK     1      14.973   4.598   9.188  1.00  0.00    -0.259 OA
BRANCH  12  14
HETATM   14  O2  UNK     1      14.319   6.363  10.587  1.00  0.00    -0.275 OA
BRANCH  14  15
HETATM   15  C11 UNK     1      15.269   7.355  10.331  1.00  0.00     0.079 A 
HETATM   16  C12 UNK     1      14.833   8.615   9.988  1.00  0.00     0.040 A 
HETATM   17  C15 UNK     1      15.781   9.606   9.733  1.00  0.00     0.039 A 
HETATM   18  C14 UNK     1      17.142   9.310   9.827  1.00  0.00     0.068 A 
HETATM   19  C16 UNK     1      17.552   8.024  10.176  1.00  0.00     0.039 A 
HETATM   20  C13 UNK     1      16.605   7.033  10.431  1.00  0.00     0.040 A 
BRANCH  18  21
HETATM   21  O4  UNK     1      18.066  10.277   9.577  1.00  0.00    -0.356 OA
HETATM   22  C17 UNK     1      17.867  11.080   8.414  1.00  0.00     0.210 C 
ENDBRANCH  18  21
ENDBRANCH  14  15
ENDBRANCH  12  14
ENDBRANCH   6  12
BRANCH   8  23
HETATM   23  N1  UNK     1       6.898   4.904   9.576  1.00  0.00    -0.116 N 
HETATM   24  O6  UNK     1       6.672   3.673   9.670  1.00  0.00    -0.532 OA
HETATM   25  O7  UNK     1       6.103   5.763  10.028  1.00  0.00    -0.532 OA
ENDBRANCH   8  23
TORSDOF 5
ENDMDL
MODEL 9
REMARK VINA RESULT:      -8.3     13.572     17.773
REMARK  5 active torsions:
REMARK  status: ('A' for Active; 'I' for Inactive)
REMARK    1  A    between atoms: C10_18  and  O2_2 
REMARK    2  A    between atoms: C11_19  and  O2_2 
REMARK    3  A    between atoms: C14_22  and  O4_4 
REMARK    4  A    between atoms: C6_14  and  N1_8 
REMARK    5  A    between atoms: C10_18  and  C4_12 
ROOT
HETATM    1  O1  UNK     1      19.222   0.898  15.220  1.00  0.00    -0.274 OA
HETATM    2  O3  UNK     1      19.218  -0.658  13.545  1.00  0.00    -0.259 OA
HETATM    3  C1  UNK     1      19.097   0.167  17.535  1.00  0.00     0.001 A 
HETATM    4  C2  UNK     1      19.181   1.191  16.597  1.00  0.00     0.089 A 
HETATM    5  C3  UNK     1      19.052  -1.211  17.072  1.00  0.00     0.038 A 
HETATM    6  C4  UNK     1      19.090  -1.484  15.763  1.00  0.00     0.116 A 
HETATM    7  C5  UNK     1      19.059   0.499  18.893  1.00  0.00     0.050 A 
HETATM    8  C6  UNK     1      19.105   1.839  19.287  1.00  0.00     0.103 A 
HETATM    9  C7  UNK     1      19.228   2.531  16.975  1.00  0.00     0.041 A 
HETATM   10  C8  UNK     1      19.189   2.853  18.330  1.00  0.00     0.039 A 
HETATM   11  C9  UNK     1      19.180  -0.411  14.746  1.00  0.00     0.304 A 
ENDROOT
BRANCH   6  12
HETATM   12  C10 UNK     1      19.041  -2.903  15.394  1.00  0.00     0.304 C 
HETATM   13  O5  UNK     1      20.034  -3.605  15.280  1.00  0.00    -0.259 OA
BRANCH  12  14
HETATM   14  O2  UNK     1      17.716  -3.252  15.217  1.00  0.00    -0.275 OA
BRANCH  14  15
HETATM   15  C11 UNK     1      17.551  -4.622  14.995  1.00  0.00     0.079 A 
HETATM   16  C12 UNK     1      17.060  -5.403  16.018  1.00  0.00     0.040 A 
HETATM   17  C15 UNK     1      16.895  -6.770  15.797  1.00  0.00     0.039 A 
HETATM   18  C14 UNK     1      17.226  -7.321  14.558  1.00  0.00     0.068 A 
HETATM   19  C16 UNK     1      17.721  -6.505  13.542  1.00  0.00     0.039 A 
HETATM   20  C13 UNK     1      17.886  -5.137  13.762  1.00  0.00     0.040 A 
BRANCH  18  21
HETATM   21  O4  UNK     1      17.065  -8.655  14.343  1.00  0.00    -0.356 OA
HETATM   22  C17 UNK     1      16.883  -9.077  12.992  1.00  0.00     0.210 C 
ENDBRANCH  18  21
ENDBRANCH  14  15
ENDBRANCH  12  14
ENDBRANCH   6  12
BRANCH   8  23
HETATM   23  N1  UNK     1      19.065   2.172  20.667  1.00  0.00    -0.116 N 
HETATM   24  O6  UNK     1      20.124   2.109  21.338  1.00  0.00    -0.532 OA
HETATM   25  O7  UNK     1      17.973   2.519  21.177  1.00  0.00    -0.532 OA
ENDBRANCH   8  23
TORSDOF 5
ENDMDL
MODEL 10
REMARK VINA RESULT:      -8.2     13.802     15.684
REMARK  5 active torsions:
REMARK  status: ('A' for Active; 'I' for Inactive)
REMARK    1  A    between atoms: C10_18  and  O2_2 
REMARK    2  A    between atoms: C11_19  and  O2_2 
REMARK    3  A    between atoms: C14_22  and  O4_4 
REMARK    4  A    between atoms: C6_14  and  N1_8 
REMARK    5  A    between atoms: C10_18  and  C4_12 
ROOT
HETATM    1  O1  UNK     1      27.945  -4.807  38.698  1.00  0.00    -0.274 OA
HETATM    2  O3  UNK     1      25.708  -5.192  38.969  1.00  0.00    -0.259 OA
HETATM    3  C1  UNK     1      29.454  -6.685  38.377  1.00  0.00     0.001 A 
HETATM    4  C2  UNK     1      29.241  -5.316  38.493  1.00  0.00     0.089 A 
HETATM    5  C3  UNK     1      28.315  -7.584  38.471  1.00  0.00     0.038 A 
HETATM    6  C4  UNK     1      27.085  -7.097  38.666  1.00  0.00     0.116 A 
HETATM    7  C5  UNK     1      30.756  -7.151  38.174  1.00  0.00     0.050 A 
HETATM    8  C6  UNK     1      31.818  -6.245  38.090  1.00  0.00     0.103 A 
HETATM    9  C7  UNK     1      30.290  -4.401  38.412  1.00  0.00     0.041 A 
HETATM   10  C8  UNK     1      31.585  -4.873  38.210  1.00  0.00     0.039 A 
HETATM   11  C9  UNK     1      26.835  -5.643  38.793  1.00  0.00     0.304 A 
ENDROOT
BRANCH   6  12
HETATM   12  C10 UNK     1      26.001  -8.082  38.745  1.00  0.00     0.304 C 
HETATM   13  O5  UNK     1      25.983  -9.003  39.547  1.00  0.00    -0.259 OA
BRANCH  12  14
HETATM   14  O2  UNK     1      25.063  -7.765  37.781  1.00  0.00    -0.275 OA
BRANCH  14  15
HETATM   15  C11 UNK     1      23.768  -8.134  38.155  1.00  0.00     0.079 A 
HETATM   16  C12 UNK     1      23.288  -7.717  39.375  1.00  0.00     0.040 A 
HETATM   17  C15 UNK     1      21.996  -8.085  39.749  1.00  0.00     0.039 A 
HETATM   18  C14 UNK     1      21.216  -8.862  38.890  1.00  0.00     0.068 A 
HETATM   19  C16 UNK     1      21.731  -9.270  37.660  1.00  0.00     0.039 A 
HETATM   20  C13 UNK     1      23.024  -8.902  37.287  1.00  0.00     0.040 A 
BRANCH  18  21
HETATM   21  O4  UNK     1      19.956  -9.222  39.255  1.00  0.00    -0.356 OA
HETATM   22  C17 UNK     1      19.363 -10.313  38.550  1.00  0.00     0.210 C 
ENDBRANCH  18  21
ENDBRANCH  14  15
ENDBRANCH  12  14
ENDBRANCH   6  12
BRANCH   8  23
HETATM   23  N1  UNK     1      33.139  -6.721  37.885  1.00  0.00    -0.116 N 
HETATM   24  O6  UNK     1      34.095  -5.912  37.955  1.00  0.00    -0.532 OA
HETATM   25  O7  UNK     1      33.315  -7.939  37.637  1.00  0.00    -0.532 OA
ENDBRANCH   8  23
TORSDOF 5
ENDMDL
