MODEL 1
REMARK VINA RESULT:      -9.6      0.000      0.000
REMARK  7 active torsions:
REMARK  status: ('A' for Active; 'I' for Inactive)
REMARK    1  A    between atoms: C2_6  and  O1_1 
REMARK    2  A    between atoms: C3_7  and  O1_1 
REMARK    3  A    between atoms: C19_23  and  O2_2 
REMARK    4  A    between atoms: C1_5  and  C2_6 
REMARK    5  A    between atoms: C12_16  and  C4_8 
REMARK    6  A    between atoms: C11_15  and  C19_23 
REMARK    7  A    between atoms: C13_17  and  C15_19 
ROOT
HETATM    1  N1  UNK     1      14.446   6.985  31.504  1.00  0.00    -0.191 NA
HETATM    2  C12 UNK     1      17.555   7.525  32.933  1.00  0.00     0.034 C 
HETATM    3  C13 UNK     1      16.313   8.072  32.933  1.00  0.00     0.055 C 
HETATM    4  C23 UNK     1      15.284   7.471  32.144  1.00  0.00     0.100 C 
ENDROOT
BRANCH   3   5
HETATM    5  C15 UNK     1      15.974   9.268  33.728  1.00  0.00    -0.015 A 
HETATM    6  C17 UNK     1      14.725   9.356  34.318  1.00  0.00     0.013 A 
HETATM    7  C20 UNK     1      14.405  10.487  35.070  1.00  0.00     0.001 A 
HETATM    8  C22 UNK     1      15.338  11.511  35.221  1.00  0.00     0.000 A 
HETATM    9  C21 UNK     1      16.592  11.406  34.619  1.00  0.00     0.001 A 
HETATM   10  C18 UNK     1      16.912  10.276  33.867  1.00  0.00     0.013 A 
ENDBRANCH   3   5
BRANCH   2  11
HETATM   11  C4  UNK     1      17.992   6.349  32.194  1.00  0.00    -0.035 A 
HETATM   12  C10 UNK     1      17.774   5.076  32.719  1.00  0.00     0.014 A 
HETATM   13  C8  UNK     1      18.192   3.949  32.011  1.00  0.00     0.037 A 
HETATM   14  C3  UNK     1      18.829   4.096  30.779  1.00  0.00     0.069 A 
HETATM   15  C7  UNK     1      19.048   5.370  30.255  1.00  0.00     0.037 A 
HETATM   16  C9  UNK     1      18.630   6.496  30.963  1.00  0.00     0.014 A 
BRANCH  14  17
HETATM   17  O1  UNK     1      19.236   2.996  30.088  1.00  0.00    -0.347 OA
BRANCH  17  18
HETATM   18  C2  UNK     1      18.386   1.851  30.129  1.00  0.00     0.214 C 
BRANCH  18  19
HETATM   19  C1  UNK     1      19.233   0.612  30.142  1.00  0.00    -0.033 A 
HETATM   20  C5  UNK     1      19.355  -0.126  31.315  1.00  0.00     0.027 A 
HETATM   21  C11 UNK     1      20.144  -1.277  31.326  1.00  0.00     0.038 A 
HETATM   22  C16 UNK     1      20.803  -1.682  30.166  1.00  0.00     0.018 A 
HETATM   23  C14 UNK     1      20.676  -0.936  28.994  1.00  0.00     0.002 A 
HETATM   24  C6  UNK     1      19.889   0.214  28.983  1.00  0.00     0.009 A 
BRANCH  21  25
HETATM   25  C19 UNK     1      20.277  -2.055  32.548  1.00  0.00     0.176 C 
HETATM   26  O3  UNK     1      21.108  -2.950  32.739  1.00  0.00    -0.646 OA
BRANCH  25  27
HETATM   27  O2  UNK     1      19.373  -1.691  33.497  1.00  0.00    -0.773 OA
HETATM   28  H17 UNK     1      18.669  -1.115  33.128  1.00  0.00     0.167 HD
ENDBRANCH  25  27
ENDBRANCH  21  25
ENDBRANCH  18  19
ENDBRANCH  17  18
ENDBRANCH  14  17
ENDBRANCH   2  11
TORSDOF 7
ENDMDL
MODEL 2
REMARK VINA RESULT:      -9.1      5.557     11.432
REMARK  7 active torsions:
REMARK  status: ('A' for Active; 'I' for Inactive)
REMARK    1  A    between atoms: C2_6  and  O1_1 
REMARK    2  A    between atoms: C3_7  and  O1_1 
REMARK    3  A    between atoms: C19_23  and  O2_2 
REMARK    4  A    between atoms: C1_5  and  C2_6 
REMARK    5  A    between atoms: C12_16  and  C4_8 
REMARK    6  A    between atoms: C11_15  and  C19_23 
REMARK    7  A    between atoms: C13_17  and  C15_19 
ROOT
HETATM    1  N1  UNK     1      18.109  -6.115  36.088  1.00  0.00    -0.191 NA
HETATM    2  C12 UNK     1      20.505  -3.816  37.074  1.00  0.00     0.034 C 
HETATM    3  C13 UNK     1      20.172  -5.114  37.292  1.00  0.00     0.055 C 
HETATM    4  C23 UNK     1      19.033  -5.665  36.627  1.00  0.00     0.100 C 
ENDROOT
BRANCH   3   5
HETATM    5  C15 UNK     1      20.949  -5.992  38.188  1.00  0.00    -0.015 A 
HETATM    6  C17 UNK     1      22.283  -5.708  38.424  1.00  0.00     0.013 A 
HETATM    7  C20 UNK     1      23.016  -6.539  39.271  1.00  0.00     0.001 A 
HETATM    8  C22 UNK     1      22.405  -7.639  39.870  1.00  0.00     0.000 A 
HETATM    9  C21 UNK     1      21.060  -7.911  39.621  1.00  0.00     0.001 A 
HETATM   10  C18 UNK     1      20.326  -7.081  38.773  1.00  0.00     0.013 A 
ENDBRANCH   3   5
BRANCH   2  11
HETATM   11  C4  UNK     1      19.814  -2.870  36.210  1.00  0.00    -0.035 A 
HETATM   12  C10 UNK     1      18.737  -2.134  36.702  1.00  0.00     0.014 A 
HETATM   13  C8  UNK     1      18.076  -1.226  35.874  1.00  0.00     0.037 A 
HETATM   14  C3  UNK     1      18.492  -1.056  34.553  1.00  0.00     0.069 A 
HETATM   15  C7  UNK     1      19.570  -1.793  34.062  1.00  0.00     0.037 A 
HETATM   16  C9  UNK     1      20.230  -2.700  34.890  1.00  0.00     0.014 A 
BRANCH  14  17
HETATM   17  O1  UNK     1      17.848  -0.170  33.746  1.00  0.00    -0.347 OA
BRANCH  17  18
HETATM   18  C2  UNK     1      18.402   1.141  33.647  1.00  0.00     0.214 C 
BRANCH  18  19
HETATM   19  C1  UNK     1      18.586   1.488  32.199  1.00  0.00    -0.033 A 
HETATM   20  C5  UNK     1      19.103   0.539  31.324  1.00  0.00     0.027 A 
HETATM   21  C11 UNK     1      19.275   0.863  29.978  1.00  0.00     0.038 A 
HETATM   22  C16 UNK     1      18.928   2.132  29.516  1.00  0.00     0.018 A 
HETATM   23  C14 UNK     1      18.410   3.078  30.399  1.00  0.00     0.002 A 
HETATM   24  C6  UNK     1      18.238   2.755  31.745  1.00  0.00     0.009 A 
BRANCH  21  25
HETATM   25  C19 UNK     1      19.816  -0.124  29.056  1.00  0.00     0.176 C 
HETATM   26  O3  UNK     1      20.909  -0.690  29.173  1.00  0.00    -0.646 OA
BRANCH  25  27
HETATM   27  O2  UNK     1      18.976  -0.379  28.016  1.00  0.00    -0.773 OA
HETATM   28  H17 UNK     1      19.256   0.089  27.199  1.00  0.00     0.167 HD
ENDBRANCH  25  27
ENDBRANCH  21  25
ENDBRANCH  18  19
ENDBRANCH  17  18
ENDBRANCH  14  17
ENDBRANCH   2  11
TORSDOF 7
ENDMDL
MODEL 3
REMARK VINA RESULT:      -9.0      4.835     11.035
REMARK  7 active torsions:
REMARK  status: ('A' for Active; 'I' for Inactive)
REMARK    1  A    between atoms: C2_6  and  O1_1 
REMARK    2  A    between atoms: C3_7  and  O1_1 
REMARK    3  A    between atoms: C19_23  and  O2_2 
REMARK    4  A    between atoms: C1_5  and  C2_6 
REMARK    5  A    between atoms: C12_16  and  C4_8 
REMARK    6  A    between atoms: C11_15  and  C19_23 
REMARK    7  A    between atoms: C13_17  and  C15_19 
ROOT
HETATM    1  N1  UNK     1      21.938  -1.764  35.361  1.00  0.00    -0.191 NA
HETATM    2  C12 UNK     1      18.659  -2.111  36.420  1.00  0.00     0.034 C 
HETATM    3  C13 UNK     1      19.804  -2.838  36.360  1.00  0.00     0.055 C 
HETATM    4  C23 UNK     1      20.981  -2.243  35.808  1.00  0.00     0.100 C 
ENDROOT
BRANCH   3   5
HETATM    5  C15 UNK     1      19.888  -4.226  36.852  1.00  0.00    -0.015 A 
HETATM    6  C17 UNK     1      18.894  -5.127  36.511  1.00  0.00     0.013 A 
HETATM    7  C20 UNK     1      18.975  -6.439  36.976  1.00  0.00     0.001 A 
HETATM    8  C22 UNK     1      20.049  -6.832  37.774  1.00  0.00     0.000 A 
HETATM    9  C21 UNK     1      21.042  -5.911  38.108  1.00  0.00     0.001 A 
HETATM   10  C18 UNK     1      20.961  -4.598  37.643  1.00  0.00     0.013 A 
ENDBRANCH   3   5
BRANCH   2  11
HETATM   11  C4  UNK     1      18.469  -0.739  35.973  1.00  0.00    -0.035 A 
HETATM   12  C10 UNK     1      18.317   0.285  36.907  1.00  0.00     0.014 A 
HETATM   13  C8  UNK     1      18.137   1.600  36.478  1.00  0.00     0.037 A 
HETATM   14  C3  UNK     1      18.107   1.890  35.114  1.00  0.00     0.069 A 
HETATM   15  C7  UNK     1      18.259   0.866  34.180  1.00  0.00     0.037 A 
HETATM   16  C9  UNK     1      18.439  -0.449  34.609  1.00  0.00     0.014 A 
BRANCH  14  17
HETATM   17  O1  UNK     1      17.932   3.173  34.696  1.00  0.00    -0.347 OA
BRANCH  17  18
HETATM   18  C2  UNK     1      18.351   3.487  33.368  1.00  0.00     0.214 C 
BRANCH  18  19
HETATM   19  C1  UNK     1      18.327   4.977  33.186  1.00  0.00    -0.033 A 
HETATM   20  C5  UNK     1      17.264   5.570  32.514  1.00  0.00     0.027 A 
HETATM   21  C11 UNK     1      17.243   6.955  32.344  1.00  0.00     0.038 A 
HETATM   22  C16 UNK     1      18.283   7.736  32.847  1.00  0.00     0.018 A 
HETATM   23  C14 UNK     1      19.346   7.133  33.520  1.00  0.00     0.002 A 
HETATM   24  C6  UNK     1      19.368   5.749  33.690  1.00  0.00     0.009 A 
BRANCH  21  25
HETATM   25  C19 UNK     1      16.135   7.585  31.642  1.00  0.00     0.176 C 
HETATM   26  O3  UNK     1      14.942   7.478  31.946  1.00  0.00    -0.646 OA
BRANCH  25  27
HETATM   27  O2  UNK     1      16.549   8.332  30.583  1.00  0.00    -0.773 OA
HETATM   28  H17 UNK     1      15.791   8.687  30.070  1.00  0.00     0.167 HD
ENDBRANCH  25  27
ENDBRANCH  21  25
ENDBRANCH  18  19
ENDBRANCH  17  18
ENDBRANCH  14  17
ENDBRANCH   2  11
TORSDOF 7
ENDMDL
MODEL 4
REMARK VINA RESULT:      -9.0      3.687     10.414
REMARK  7 active torsions:
REMARK  status: ('A' for Active; 'I' for Inactive)
REMARK    1  A    between atoms: C2_6  and  O1_1 
REMARK    2  A    between atoms: C3_7  and  O1_1 
REMARK    3  A    between atoms: C19_23  and  O2_2 
REMARK    4  A    between atoms: C1_5  and  C2_6 
REMARK    5  A    between atoms: C12_16  and  C4_8 
REMARK    6  A    between atoms: C11_15  and  C19_23 
REMARK    7  A    between atoms: C13_17  and  C15_19 
ROOT
HETATM    1  N1  UNK     1      17.779   2.477  28.134  1.00  0.00    -0.191 NA
HETATM    2  C12 UNK     1      19.147   2.555  31.316  1.00  0.00     0.034 C 
HETATM    3  C13 UNK     1      18.991   1.688  30.283  1.00  0.00     0.055 C 
HETATM    4  C23 UNK     1      18.322   2.125  29.098  1.00  0.00     0.100 C 
ENDROOT
BRANCH   3   5
HETATM    5  C15 UNK     1      19.497   0.302  30.327  1.00  0.00    -0.015 A 
HETATM    6  C17 UNK     1      19.351  -0.434  31.490  1.00  0.00     0.013 A 
HETATM    7  C20 UNK     1      19.828  -1.744  31.532  1.00  0.00     0.001 A 
HETATM    8  C22 UNK     1      20.444  -2.297  30.410  1.00  0.00     0.000 A 
HETATM    9  C21 UNK     1      20.583  -1.541  29.246  1.00  0.00     0.001 A 
HETATM   10  C18 UNK     1      20.106  -0.231  29.205  1.00  0.00     0.013 A 
ENDBRANCH   3   5
BRANCH   2  11
HETATM   11  C4  UNK     1      18.696   3.938  31.372  1.00  0.00    -0.035 A 
HETATM   12  C10 UNK     1      17.768   4.329  32.337  1.00  0.00     0.014 A 
HETATM   13  C8  UNK     1      17.336   5.655  32.392  1.00  0.00     0.037 A 
HETATM   14  C3  UNK     1      17.831   6.588  31.481  1.00  0.00     0.069 A 
HETATM   15  C7  UNK     1      18.759   6.195  30.516  1.00  0.00     0.037 A 
HETATM   16  C9  UNK     1      19.190   4.870  30.461  1.00  0.00     0.014 A 
BRANCH  14  17
HETATM   17  O1  UNK     1      17.410   7.881  31.535  1.00  0.00    -0.347 OA
BRANCH  17  18
HETATM   18  C2  UNK     1      16.005   8.111  31.447  1.00  0.00     0.214 C 
BRANCH  18  19
HETATM   19  C1  UNK     1      15.564   8.914  32.635  1.00  0.00    -0.033 A 
HETATM   20  C5  UNK     1      14.463   9.756  32.528  1.00  0.00     0.027 A 
HETATM   21  C11 UNK     1      14.055  10.502  33.633  1.00  0.00     0.038 A 
HETATM   22  C16 UNK     1      14.750  10.402  34.838  1.00  0.00     0.018 A 
HETATM   23  C14 UNK     1      15.854   9.556  34.938  1.00  0.00     0.002 A 
HETATM   24  C6  UNK     1      16.262   8.809  33.833  1.00  0.00     0.009 A 
BRANCH  21  25
HETATM   25  C19 UNK     1      12.904  11.386  33.530  1.00  0.00     0.176 C 
HETATM   26  O3  UNK     1      12.256  11.832  34.483  1.00  0.00    -0.646 OA
BRANCH  25  27
HETATM   27  O2  UNK     1      12.596  11.690  32.239  1.00  0.00    -0.773 OA
HETATM   28  H17 UNK     1      13.093  12.475  31.922  1.00  0.00     0.167 HD
ENDBRANCH  25  27
ENDBRANCH  21  25
ENDBRANCH  18  19
ENDBRANCH  17  18
ENDBRANCH  14  17
ENDBRANCH   2  11
TORSDOF 7
ENDMDL
MODEL 5
REMARK VINA RESULT:      -8.9      3.712     10.508
REMARK  7 active torsions:
REMARK  status: ('A' for Active; 'I' for Inactive)
REMARK    1  A    between atoms: C2_6  and  O1_1 
REMARK    2  A    between atoms: C3_7  and  O1_1 
REMARK    3  A    between atoms: C19_23  and  O2_2 
REMARK    4  A    between atoms: C1_5  and  C2_6 
REMARK    5  A    between atoms: C12_16  and  C4_8 
REMARK    6  A    between atoms: C11_15  and  C19_23 
REMARK    7  A    between atoms: C13_17  and  C15_19 
ROOT
HETATM    1  N1  UNK     1      17.765   2.621  28.188  1.00  0.00    -0.191 NA
HETATM    2  C12 UNK     1      19.139   2.588  31.368  1.00  0.00     0.034 C 
HETATM    3  C13 UNK     1      18.980   1.757  30.306  1.00  0.00     0.055 C 
HETATM    4  C23 UNK     1      18.309   2.236  29.138  1.00  0.00     0.100 C 
ENDROOT
BRANCH   3   5
HETATM    5  C15 UNK     1      19.483   0.370  30.302  1.00  0.00    -0.015 A 
HETATM    6  C17 UNK     1      20.026  -0.150  29.140  1.00  0.00     0.013 A 
HETATM    7  C20 UNK     1      20.501  -1.461  29.137  1.00  0.00     0.001 A 
HETATM    8  C22 UNK     1      20.428  -2.232  30.297  1.00  0.00     0.000 A 
HETATM    9  C21 UNK     1      19.878  -1.692  31.459  1.00  0.00     0.001 A 
HETATM   10  C18 UNK     1      19.402  -0.381  31.462  1.00  0.00     0.013 A 
ENDBRANCH   3   5
BRANCH   2  11
HETATM   11  C4  UNK     1      18.690   3.969  31.473  1.00  0.00    -0.035 A 
HETATM   12  C10 UNK     1      19.152   4.922  30.566  1.00  0.00     0.014 A 
HETATM   13  C8  UNK     1      18.721   6.245  30.665  1.00  0.00     0.037 A 
HETATM   14  C3  UNK     1      17.829   6.615  31.673  1.00  0.00     0.069 A 
HETATM   15  C7  UNK     1      17.369   5.661  32.580  1.00  0.00     0.037 A 
HETATM   16  C9  UNK     1      17.800   4.338  32.480  1.00  0.00     0.014 A 
BRANCH  14  17
HETATM   17  O1  UNK     1      17.409   7.905  31.769  1.00  0.00    -0.347 OA
BRANCH  17  18
HETATM   18  C2  UNK     1      17.749   8.612  32.961  1.00  0.00     0.214 C 
BRANCH  18  19
HETATM   19  C1  UNK     1      16.515   9.265  33.512  1.00  0.00    -0.033 A 
HETATM   20  C5  UNK     1      16.624  10.462  34.212  1.00  0.00     0.027 A 
HETATM   21  C11 UNK     1      15.476  11.067  34.725  1.00  0.00     0.038 A 
HETATM   22  C16 UNK     1      14.229  10.473  34.535  1.00  0.00     0.018 A 
HETATM   23  C14 UNK     1      14.129   9.272  33.832  1.00  0.00     0.002 A 
HETATM   24  C6  UNK     1      15.275   8.667  33.320  1.00  0.00     0.009 A 
BRANCH  21  25
HETATM   25  C19 UNK     1      15.581  12.319  35.459  1.00  0.00     0.176 C 
HETATM   26  O3  UNK     1      15.697  12.423  36.685  1.00  0.00    -0.646 OA
BRANCH  25  27
HETATM   27  O2  UNK     1      15.540  13.406  34.641  1.00  0.00    -0.773 OA
HETATM   28  H17 UNK     1      14.662  13.846  34.664  1.00  0.00     0.167 HD
ENDBRANCH  25  27
ENDBRANCH  21  25
ENDBRANCH  18  19
ENDBRANCH  17  18
ENDBRANCH  14  17
ENDBRANCH   2  11
TORSDOF 7
ENDMDL
MODEL 6
REMARK VINA RESULT:      -8.8      3.729     10.550
REMARK  7 active torsions:
REMARK  status: ('A' for Active; 'I' for Inactive)
REMARK    1  A    between atoms: C2_6  and  O1_1 
REMARK    2  A    between atoms: C3_7  and  O1_1 
REMARK    3  A    between atoms: C19_23  and  O2_2 
REMARK    4  A    between atoms: C1_5  and  C2_6 
REMARK    5  A    between atoms: C12_16  and  C4_8 
REMARK    6  A    between atoms: C11_15  and  C19_23 
REMARK    7  A    between atoms: C13_17  and  C15_19 
ROOT
HETATM    1  N1  UNK     1      17.852   2.025  33.426  1.00  0.00    -0.191 NA
HETATM    2  C12 UNK     1      18.910   3.955  30.750  1.00  0.00     0.034 C 
HETATM    3  C13 UNK     1      18.720   2.648  31.066  1.00  0.00     0.055 C 
HETATM    4  C23 UNK     1      18.241   2.306  32.369  1.00  0.00     0.100 C 
ENDROOT
BRANCH   3   5
HETATM    5  C15 UNK     1      18.981   1.555  30.110  1.00  0.00    -0.015 A 
HETATM    6  C17 UNK     1      18.228   1.475  28.952  1.00  0.00     0.013 A 
HETATM    7  C20 UNK     1      18.475   0.442  28.048  1.00  0.00     0.001 A 
HETATM    8  C22 UNK     1      19.472  -0.495  28.316  1.00  0.00     0.000 A 
HETATM    9  C21 UNK     1      20.222  -0.400  29.488  1.00  0.00     0.001 A 
HETATM   10  C18 UNK     1      19.974   0.633  30.392  1.00  0.00     0.013 A 
ENDBRANCH   3   5
BRANCH   2  11
HETATM   11  C4  UNK     1      18.678   5.105  31.611  1.00  0.00    -0.035 A 
HETATM   12  C10 UNK     1      17.375   5.484  31.932  1.00  0.00     0.014 A 
HETATM   13  C8  UNK     1      17.153   6.586  32.758  1.00  0.00     0.037 A 
HETATM   14  C3  UNK     1      18.234   7.309  33.262  1.00  0.00     0.069 A 
HETATM   15  C7  UNK     1      19.537   6.930  32.941  1.00  0.00     0.037 A 
HETATM   16  C9  UNK     1      19.759   5.828  32.115  1.00  0.00     0.014 A 
BRANCH  14  17
HETATM   17  O1  UNK     1      18.016   8.383  34.069  1.00  0.00    -0.347 OA
BRANCH  17  18
HETATM   18  C2  UNK     1      16.676   8.610  34.503  1.00  0.00     0.214 C 
BRANCH  18  19
HETATM   19  C1  UNK     1      16.389  10.082  34.458  1.00  0.00    -0.033 A 
HETATM   20  C5  UNK     1      17.406  10.972  34.133  1.00  0.00     0.027 A 
HETATM   21  C11 UNK     1      17.138  12.341  34.093  1.00  0.00     0.038 A 
HETATM   22  C16 UNK     1      15.856  12.810  34.377  1.00  0.00     0.018 A 
HETATM   23  C14 UNK     1      14.841  11.910  34.703  1.00  0.00     0.002 A 
HETATM   24  C6  UNK     1      15.108  10.542  34.744  1.00  0.00     0.009 A 
BRANCH  21  25
HETATM   25  C19 UNK     1      18.196  13.280  33.754  1.00  0.00     0.176 C 
HETATM   26  O3  UNK     1      18.278  14.444  34.160  1.00  0.00    -0.646 OA
BRANCH  25  27
HETATM   27  O2  UNK     1      19.125  12.737  32.921  1.00  0.00    -0.773 OA
HETATM   28  H17 UNK     1      19.038  11.761  32.865  1.00  0.00     0.167 HD
ENDBRANCH  25  27
ENDBRANCH  21  25
ENDBRANCH  18  19
ENDBRANCH  17  18
ENDBRANCH  14  17
ENDBRANCH   2  11
TORSDOF 7
ENDMDL
MODEL 7
REMARK VINA RESULT:      -8.8      3.795     10.472
REMARK  7 active torsions:
REMARK  status: ('A' for Active; 'I' for Inactive)
REMARK    1  A    between atoms: C2_6  and  O1_1 
REMARK    2  A    between atoms: C3_7  and  O1_1 
REMARK    3  A    between atoms: C19_23  and  O2_2 
REMARK    4  A    between atoms: C1_5  and  C2_6 
REMARK    5  A    between atoms: C12_16  and  C4_8 
REMARK    6  A    between atoms: C11_15  and  C19_23 
REMARK    7  A    between atoms: C13_17  and  C15_19 
ROOT
HETATM    1  N1  UNK     1      17.862   2.078  33.516  1.00  0.00    -0.191 NA
HETATM    2  C12 UNK     1      18.823   3.986  30.789  1.00  0.00     0.034 C 
HETATM    3  C13 UNK     1      18.685   2.681  31.135  1.00  0.00     0.055 C 
HETATM    4  C23 UNK     1      18.231   2.350  32.450  1.00  0.00     0.100 C 
ENDROOT
BRANCH   3   5
HETATM    5  C15 UNK     1      18.980   1.577  30.201  1.00  0.00    -0.015 A 
HETATM    6  C17 UNK     1      18.293   1.505  29.001  1.00  0.00     0.013 A 
HETATM    7  C20 UNK     1      18.572   0.462  28.118  1.00  0.00     0.001 A 
HETATM    8  C22 UNK     1      19.533  -0.493  28.448  1.00  0.00     0.000 A 
HETATM    9  C21 UNK     1      20.216  -0.405  29.661  1.00  0.00     0.001 A 
HETATM   10  C18 UNK     1      19.937   0.638  30.544  1.00  0.00     0.013 A 
ENDBRANCH   3   5
BRANCH   2  11
HETATM   11  C4  UNK     1      18.555   5.145  31.627  1.00  0.00    -0.035 A 
HETATM   12  C10 UNK     1      17.239   5.507  31.916  1.00  0.00     0.014 A 
HETATM   13  C8  UNK     1      16.982   6.617  32.720  1.00  0.00     0.037 A 
HETATM   14  C3  UNK     1      18.040   7.367  33.233  1.00  0.00     0.069 A 
HETATM   15  C7  UNK     1      19.356   7.006  32.943  1.00  0.00     0.037 A 
HETATM   16  C9  UNK     1      19.613   5.895  32.139  1.00  0.00     0.014 A 
BRANCH  14  17
HETATM   17  O1  UNK     1      17.789   8.450  34.018  1.00  0.00    -0.347 OA
BRANCH  17  18
HETATM   18  C2  UNK     1      16.494   8.537  34.611  1.00  0.00     0.214 C 
BRANCH  18  19
HETATM   19  C1  UNK     1      15.904   9.883  34.306  1.00  0.00    -0.033 A 
HETATM   20  C5  UNK     1      14.559   9.986  33.972  1.00  0.00     0.027 A 
HETATM   21  C11 UNK     1      14.012  11.237  33.687  1.00  0.00     0.038 A 
HETATM   22  C16 UNK     1      14.814  12.377  33.739  1.00  0.00     0.018 A 
HETATM   23  C14 UNK     1      16.163  12.266  34.074  1.00  0.00     0.002 A 
HETATM   24  C6  UNK     1      16.710  11.015  34.358  1.00  0.00     0.009 A 
BRANCH  21  25
HETATM   25  C19 UNK     1      12.605  11.354  33.337  1.00  0.00     0.176 C 
HETATM   26  O3  UNK     1      11.802  12.140  33.851  1.00  0.00    -0.646 OA
BRANCH  25  27
HETATM   27  O2  UNK     1      12.240  10.487  32.353  1.00  0.00    -0.773 OA
HETATM   28  H17 UNK     1      12.346   9.552  32.634  1.00  0.00     0.167 HD
ENDBRANCH  25  27
ENDBRANCH  21  25
ENDBRANCH  18  19
ENDBRANCH  17  18
ENDBRANCH  14  17
ENDBRANCH   2  11
TORSDOF 7
ENDMDL
MODEL 8
REMARK VINA RESULT:      -8.6     14.062     17.150
REMARK  7 active torsions:
REMARK  status: ('A' for Active; 'I' for Inactive)
REMARK    1  A    between atoms: C2_6  and  O1_1 
REMARK    2  A    between atoms: C3_7  and  O1_1 
REMARK    3  A    between atoms: C19_23  and  O2_2 
REMARK    4  A    between atoms: C1_5  and  C2_6 
REMARK    5  A    between atoms: C12_16  and  C4_8 
REMARK    6  A    between atoms: C11_15  and  C19_23 
REMARK    7  A    between atoms: C13_17  and  C15_19 
ROOT
HETATM    1  N1  UNK     1      25.713  -5.273  38.961  1.00  0.00    -0.191 NA
HETATM    2  C12 UNK     1      24.893  -8.586  38.373  1.00  0.00     0.034 C 
HETATM    3  C13 UNK     1      24.286  -7.419  38.707  1.00  0.00     0.055 C 
HETATM    4  C23 UNK     1      25.076  -6.235  38.847  1.00  0.00     0.100 C 
ENDROOT
BRANCH   3   5
HETATM    5  C15 UNK     1      22.830  -7.316  38.925  1.00  0.00    -0.015 A 
HETATM    6  C17 UNK     1      22.154  -8.382  39.494  1.00  0.00     0.013 A 
HETATM    7  C20 UNK     1      20.779  -8.284  39.701  1.00  0.00     0.001 A 
HETATM    8  C22 UNK     1      20.100  -7.122  39.336  1.00  0.00     0.000 A 
HETATM    9  C21 UNK     1      20.796  -6.057  38.764  1.00  0.00     0.001 A 
HETATM   10  C18 UNK     1      22.172  -6.156  38.557  1.00  0.00     0.013 A 
ENDBRANCH   3   5
BRANCH   2  11
HETATM   11  C4  UNK     1      26.313  -8.795  38.129  1.00  0.00    -0.035 A 
HETATM   12  C10 UNK     1      27.121  -9.326  39.134  1.00  0.00     0.014 A 
HETATM   13  C8  UNK     1      28.482  -9.527  38.900  1.00  0.00     0.037 A 
HETATM   14  C3  UNK     1      29.034  -9.196  37.662  1.00  0.00     0.069 A 
HETATM   15  C7  UNK     1      28.224  -8.665  36.658  1.00  0.00     0.037 A 
HETATM   16  C9  UNK     1      26.864  -8.464  36.892  1.00  0.00     0.014 A 
BRANCH  14  17
HETATM   17  O1  UNK     1      30.361  -9.392  37.434  1.00  0.00    -0.347 OA
BRANCH  17  18
HETATM   18  C2  UNK     1      31.271  -8.861  38.396  1.00  0.00     0.214 C 
BRANCH  18  19
HETATM   19  C1  UNK     1      31.385  -7.378  38.197  1.00  0.00    -0.033 A 
HETATM   20  C5  UNK     1      30.395  -6.539  38.695  1.00  0.00     0.027 A 
HETATM   21  C11 UNK     1      30.502  -5.160  38.507  1.00  0.00     0.038 A 
HETATM   22  C16 UNK     1      31.597  -4.631  37.824  1.00  0.00     0.018 A 
HETATM   23  C14 UNK     1      32.585  -5.480  37.327  1.00  0.00     0.002 A 
HETATM   24  C6  UNK     1      32.479  -6.858  37.514  1.00  0.00     0.009 A 
BRANCH  21  25
HETATM   25  C19 UNK     1      29.471  -4.274  39.025  1.00  0.00     0.176 C 
HETATM   26  O3  UNK     1      29.573  -3.570  40.036  1.00  0.00    -0.646 OA
BRANCH  25  27
HETATM   27  O2  UNK     1      28.342  -4.289  38.265  1.00  0.00    -0.773 OA
HETATM   28  H17 UNK     1      27.762  -5.048  38.489  1.00  0.00     0.167 HD
ENDBRANCH  25  27
ENDBRANCH  21  25
ENDBRANCH  18  19
ENDBRANCH  17  18
ENDBRANCH  14  17
ENDBRANCH   2  11
TORSDOF 7
ENDMDL
MODEL 9
REMARK VINA RESULT:      -8.5     22.794     24.746
REMARK  7 active torsions:
REMARK  status: ('A' for Active; 'I' for Inactive)
REMARK    1  A    between atoms: C2_6  and  O1_1 
REMARK    2  A    between atoms: C3_7  and  O1_1 
REMARK    3  A    between atoms: C19_23  and  O2_2 
REMARK    4  A    between atoms: C1_5  and  C2_6 
REMARK    5  A    between atoms: C12_16  and  C4_8 
REMARK    6  A    between atoms: C11_15  and  C19_23 
REMARK    7  A    between atoms: C13_17  and  C15_19 
ROOT
HETATM    1  N1  UNK     1      15.639  11.394   7.537  1.00  0.00    -0.191 NA
HETATM    2  C12 UNK     1      17.294   9.641  10.024  1.00  0.00     0.034 C 
HETATM    3  C13 UNK     1      17.509  10.684   9.182  1.00  0.00     0.055 C 
HETATM    4  C23 UNK     1      16.476  11.074   8.275  1.00  0.00     0.100 C 
ENDROOT
BRANCH   3   5
HETATM    5  C15 UNK     1      18.772  11.446   9.170  1.00  0.00    -0.015 A 
HETATM    6  C17 UNK     1      19.361  11.800  10.371  1.00  0.00     0.013 A 
HETATM    7  C20 UNK     1      20.556  12.519  10.359  1.00  0.00     0.001 A 
HETATM    8  C22 UNK     1      21.144  12.874   9.145  1.00  0.00     0.000 A 
HETATM    9  C21 UNK     1      20.536  12.510   7.943  1.00  0.00     0.001 A 
HETATM   10  C18 UNK     1      19.342  11.791   7.956  1.00  0.00     0.013 A 
ENDBRANCH   3   5
BRANCH   2  11
HETATM   11  C4  UNK     1      16.089   8.831  10.123  1.00  0.00    -0.035 A 
HETATM   12  C10 UNK     1      16.092   7.517   9.654  1.00  0.00     0.014 A 
HETATM   13  C8  UNK     1      14.937   6.740   9.750  1.00  0.00     0.037 A 
HETATM   14  C3  UNK     1      13.780   7.278  10.312  1.00  0.00     0.069 A 
HETATM   15  C7  UNK     1      13.777   8.591  10.781  1.00  0.00     0.037 A 
HETATM   16  C9  UNK     1      14.932   9.368  10.685  1.00  0.00     0.014 A 
BRANCH  14  17
HETATM   17  O1  UNK     1      12.654   6.519  10.406  1.00  0.00    -0.347 OA
BRANCH  17  18
HETATM   18  C2  UNK     1      12.551   5.397   9.531  1.00  0.00     0.214 C 
BRANCH  18  19
HETATM   19  C1  UNK     1      11.596   5.727   8.421  1.00  0.00    -0.033 A 
HETATM   20  C5  UNK     1      10.239   5.858   8.697  1.00  0.00     0.027 A 
HETATM   21  C11 UNK     1       9.352   6.164   7.664  1.00  0.00     0.038 A 
HETATM   22  C16 UNK     1       9.827   6.336   6.364  1.00  0.00     0.018 A 
HETATM   23  C14 UNK     1      11.189   6.202   6.096  1.00  0.00     0.002 A 
HETATM   24  C6  UNK     1      12.076   5.896   7.127  1.00  0.00     0.009 A 
BRANCH  21  25
HETATM   25  C19 UNK     1       7.931   6.303   7.944  1.00  0.00     0.176 C 
HETATM   26  O3  UNK     1       7.286   5.608   8.736  1.00  0.00    -0.646 OA
BRANCH  25  27
HETATM   27  O2  UNK     1       7.357   7.309   7.229  1.00  0.00    -0.773 OA
HETATM   28  H17 UNK     1       7.565   8.190   7.608  1.00  0.00     0.167 HD
ENDBRANCH  25  27
ENDBRANCH  21  25
ENDBRANCH  18  19
ENDBRANCH  17  18
ENDBRANCH  14  17
ENDBRANCH   2  11
TORSDOF 7
ENDMDL
MODEL 10
REMARK VINA RESULT:      -8.5     22.532     24.628
REMARK  7 active torsions:
REMARK  status: ('A' for Active; 'I' for Inactive)
REMARK    1  A    between atoms: C2_6  and  O1_1 
REMARK    2  A    between atoms: C3_7  and  O1_1 
REMARK    3  A    between atoms: C19_23  and  O2_2 
REMARK    4  A    between atoms: C1_5  and  C2_6 
REMARK    5  A    between atoms: C12_16  and  C4_8 
REMARK    6  A    between atoms: C11_15  and  C19_23 
REMARK    7  A    between atoms: C13_17  and  C15_19 
ROOT
HETATM    1  N1  UNK     1      16.233  12.298  11.363  1.00  0.00    -0.191 NA
HETATM    2  C12 UNK     1      17.549   9.816   9.335  1.00  0.00     0.034 C 
HETATM    3  C13 UNK     1      17.884  11.043   9.812  1.00  0.00     0.055 C 
HETATM    4  C23 UNK     1      16.971  11.734  10.668  1.00  0.00     0.100 C 
ENDROOT
BRANCH   3   5
HETATM    5  C15 UNK     1      19.167  11.696   9.487  1.00  0.00    -0.015 A 
HETATM    6  C17 UNK     1      20.167  11.735  10.443  1.00  0.00     0.013 A 
HETATM    7  C20 UNK     1      21.380  12.352  10.135  1.00  0.00     0.001 A 
HETATM    8  C22 UNK     1      21.573  12.920   8.877  1.00  0.00     0.000 A 
HETATM    9  C21 UNK     1      20.554  12.872   7.926  1.00  0.00     0.001 A 
HETATM   10  C18 UNK     1      19.342  12.255   8.233  1.00  0.00     0.013 A 
ENDBRANCH   3   5
BRANCH   2  11
HETATM   11  C4  UNK     1      16.319   9.083   9.597  1.00  0.00    -0.035 A 
HETATM   12  C10 UNK     1      15.144   9.432   8.932  1.00  0.00     0.014 A 
HETATM   13  C8  UNK     1      13.966   8.728   9.183  1.00  0.00     0.037 A 
HETATM   14  C3  UNK     1      13.963   7.677  10.100  1.00  0.00     0.069 A 
HETATM   15  C7  UNK     1      15.138   7.329  10.765  1.00  0.00     0.037 A 
HETATM   16  C9  UNK     1      16.316   8.032  10.514  1.00  0.00     0.014 A 
BRANCH  14  17
HETATM   17  O1  UNK     1      12.813   6.990  10.344  1.00  0.00    -0.347 OA
BRANCH  17  18
HETATM   18  C2  UNK     1      12.650   5.739   9.678  1.00  0.00     0.214 C 
BRANCH  18  19
HETATM   19  C1  UNK     1      11.711   5.918   8.521  1.00  0.00    -0.033 A 
HETATM   20  C5  UNK     1      10.341   5.981   8.749  1.00  0.00     0.027 A 
HETATM   21  C11 UNK     1       9.469   6.146   7.673  1.00  0.00     0.038 A 
HETATM   22  C16 UNK     1       9.973   6.248   6.376  1.00  0.00     0.018 A 
HETATM   23  C14 UNK     1      11.349   6.184   6.155  1.00  0.00     0.002 A 
HETATM   24  C6  UNK     1      12.220   6.018   7.231  1.00  0.00     0.009 A 
BRANCH  21  25
HETATM   25  C19 UNK     1       8.035   6.213   7.903  1.00  0.00     0.176 C 
HETATM   26  O3  UNK     1       7.388   5.445   8.623  1.00  0.00    -0.646 OA
BRANCH  25  27
HETATM   27  O2  UNK     1       7.448   7.240   7.229  1.00  0.00    -0.773 OA
HETATM   28  H17 UNK     1       7.655   7.212   6.270  1.00  0.00     0.167 HD
ENDBRANCH  25  27
ENDBRANCH  21  25
ENDBRANCH  18  19
ENDBRANCH  17  18
ENDBRANCH  14  17
ENDBRANCH   2  11
TORSDOF 7
ENDMDL
