MODEL 1
REMARK VINA RESULT:      -9.0      0.000      0.000
REMARK  3 active torsions:
REMARK  status: ('A' for Active; 'I' for Inactive)
REMARK    1  A    between atoms: C3_8  and  N1_4 
REMARK    2  A    between atoms: N1_4  and  N2_5 
REMARK    3  A    between atoms: C12_17  and  N2_5 
ROOT
HETATM    1  O1  UNK     1      18.844   0.333  32.769  1.00  0.00    -0.274 OA
HETATM    2  O2  UNK     1      19.085   2.819  29.512  1.00  0.00    -0.286 OA
HETATM    3  O3  UNK     1      18.037   2.006  34.094  1.00  0.00    -0.259 OA
HETATM    4  C1  UNK     1      18.526   2.530  31.816  1.00  0.00     0.114 A 
HETATM    5  C2  UNK     1      19.406   0.672  30.406  1.00  0.00     0.049 A 
HETATM    6  C3  UNK     1      18.148   3.809  31.956  1.00  0.00     0.042 C 
HETATM    7  C4  UNK     1      19.010   2.084  30.487  1.00  0.00     0.203 A 
HETATM    8  C5  UNK     1      19.312  -0.141  31.528  1.00  0.00     0.093 A 
HETATM    9  C6  UNK     1      18.435   1.643  32.994  1.00  0.00     0.304 A 
HETATM   10  C7  UNK     1      19.880   0.137  29.205  1.00  0.00     0.018 A 
HETATM   11  C8  UNK     1      19.683  -1.485  31.475  1.00  0.00     0.038 A 
HETATM   12  C9  UNK     1      18.218   4.759  30.793  1.00  0.00     0.071 C 
HETATM   13  C10 UNK     1      20.253  -1.208  29.144  1.00  0.00     0.001 A 
HETATM   14  C11 UNK     1      20.155  -2.017  30.276  1.00  0.00     0.003 A 
ENDROOT
BRANCH   6  15
HETATM   15  N1  UNK     1      17.684   4.336  33.130  1.00  0.00    -0.304 N 
HETATM   16  H2  UNK     1      16.766   4.065  33.458  1.00  0.00     0.186 HD
BRANCH  15  17
HETATM   17  N2  UNK     1      18.392   5.133  33.947  1.00  0.00    -0.301 N 
HETATM   18  H8  UNK     1      18.868   4.694  34.728  1.00  0.00     0.187 HD
BRANCH  17  19
HETATM   19  C12 UNK     1      18.394   6.537  33.906  1.00  0.00     0.048 A 
HETATM   20  C14 UNK     1      19.498   7.253  34.379  1.00  0.00     0.031 A 
HETATM   21  C16 UNK     1      19.501   8.648  34.337  1.00  0.00     0.002 A 
HETATM   22  C17 UNK     1      18.400   9.331  33.823  1.00  0.00     0.000 A 
HETATM   23  C15 UNK     1      17.297   8.622  33.350  1.00  0.00     0.002 A 
HETATM   24  C13 UNK     1      17.293   7.228  33.391  1.00  0.00     0.031 A 
ENDBRANCH  17  19
ENDBRANCH  15  17
ENDBRANCH   6  15
TORSDOF 3
ENDMDL
MODEL 2
REMARK VINA RESULT:      -9.0      1.084      2.542
REMARK  3 active torsions:
REMARK  status: ('A' for Active; 'I' for Inactive)
REMARK    1  A    between atoms: C3_8  and  N1_4 
REMARK    2  A    between atoms: N1_4  and  N2_5 
REMARK    3  A    between atoms: C12_17  and  N2_5 
ROOT
HETATM    1  O1  UNK     1      19.294   1.496  29.223  1.00  0.00    -0.274 OA
HETATM    2  O2  UNK     1      18.898   0.699  33.231  1.00  0.00    -0.286 OA
HETATM    3  O3  UNK     1      18.515   3.625  29.483  1.00  0.00    -0.259 OA
HETATM    4  C1  UNK     1      18.664   2.251  31.430  1.00  0.00     0.114 A 
HETATM    5  C2  UNK     1      19.520  -0.067  31.100  1.00  0.00     0.049 A 
HETATM    6  C3  UNK     1      18.197   3.217  32.233  1.00  0.00     0.042 C 
HETATM    7  C4  UNK     1      19.014   0.944  32.037  1.00  0.00     0.203 A 
HETATM    8  C5  UNK     1      19.640   0.237  29.750  1.00  0.00     0.093 A 
HETATM    9  C6  UNK     1      18.803   2.548  29.990  1.00  0.00     0.304 A 
HETATM   10  C7  UNK     1      19.882  -1.338  31.556  1.00  0.00     0.018 A 
HETATM   11  C8  UNK     1      20.118  -0.708  28.841  1.00  0.00     0.038 A 
HETATM   12  C9  UNK     1      18.034   2.975  33.709  1.00  0.00     0.071 C 
HETATM   13  C10 UNK     1      20.361  -2.289  30.651  1.00  0.00     0.001 A 
HETATM   14  C11 UNK     1      20.478  -1.975  29.297  1.00  0.00     0.003 A 
ENDROOT
BRANCH   6  15
HETATM   15  N1  UNK     1      17.842   4.462  31.791  1.00  0.00    -0.304 N 
HETATM   16  H2  UNK     1      16.867   4.653  31.597  1.00  0.00     0.186 HD
BRANCH  15  17
HETATM   17  N2  UNK     1      18.683   5.504  31.670  1.00  0.00    -0.301 N 
HETATM   18  H8  UNK     1      19.458   5.403  31.024  1.00  0.00     0.187 HD
BRANCH  17  19
HETATM   19  C12 UNK     1      18.671   6.650  32.481  1.00  0.00     0.048 A 
HETATM   20  C14 UNK     1      17.577   7.521  32.452  1.00  0.00     0.031 A 
HETATM   21  C16 UNK     1      17.565   8.660  33.258  1.00  0.00     0.002 A 
HETATM   22  C17 UNK     1      18.646   8.933  34.095  1.00  0.00     0.000 A 
HETATM   23  C15 UNK     1      19.739   8.068  34.127  1.00  0.00     0.002 A 
HETATM   24  C13 UNK     1      19.752   6.930  33.322  1.00  0.00     0.031 A 
ENDBRANCH  17  19
ENDBRANCH  15  17
ENDBRANCH   6  15
TORSDOF 3
ENDMDL
MODEL 3
REMARK VINA RESULT:      -8.5      7.541      9.798
REMARK  3 active torsions:
REMARK  status: ('A' for Active; 'I' for Inactive)
REMARK    1  A    between atoms: C3_8  and  N1_4 
REMARK    2  A    between atoms: N1_4  and  N2_5 
REMARK    3  A    between atoms: C12_17  and  N2_5 
ROOT
HETATM    1  O1  UNK     1      18.393  -7.802  36.735  1.00  0.00    -0.274 OA
HETATM    2  O2  UNK     1      21.849  -5.641  37.228  1.00  0.00    -0.286 OA
HETATM    3  O3  UNK     1      17.123  -5.909  36.633  1.00  0.00    -0.259 OA
HETATM    4  C1  UNK     1      19.479  -5.652  36.933  1.00  0.00     0.114 A 
HETATM    5  C2  UNK     1      20.827  -7.746  37.039  1.00  0.00     0.049 A 
HETATM    6  C3  UNK     1      19.399  -4.314  36.961  1.00  0.00     0.042 C 
HETATM    7  C4  UNK     1      20.815  -6.279  37.080  1.00  0.00     0.203 A 
HETATM    8  C5  UNK     1      19.638  -8.445  36.871  1.00  0.00     0.093 A 
HETATM    9  C6  UNK     1      18.229  -6.421  36.755  1.00  0.00     0.304 A 
HETATM   10  C7  UNK     1      22.028  -8.449  37.168  1.00  0.00     0.018 A 
HETATM   11  C8  UNK     1      19.625  -9.840  36.829  1.00  0.00     0.038 A 
HETATM   12  C9  UNK     1      20.637  -3.478  37.139  1.00  0.00     0.071 C 
HETATM   13  C10 UNK     1      22.023  -9.845  37.127  1.00  0.00     0.001 A 
HETATM   14  C11 UNK     1      20.824 -10.540  36.958  1.00  0.00     0.003 A 
ENDROOT
BRANCH   6  15
HETATM   15  N1  UNK     1      18.226  -3.623  36.835  1.00  0.00    -0.304 N 
HETATM   16  H2  UNK     1      17.453  -3.857  37.446  1.00  0.00     0.186 HD
BRANCH  15  17
HETATM   17  N2  UNK     1      18.033  -2.580  36.010  1.00  0.00    -0.301 N 
HETATM   18  H8  UNK     1      18.373  -2.670  35.059  1.00  0.00     0.187 HD
BRANCH  17  19
HETATM   19  C12 UNK     1      17.548  -1.321  36.400  1.00  0.00     0.048 A 
HETATM   20  C14 UNK     1      16.561  -0.682  35.643  1.00  0.00     0.031 A 
HETATM   21  C16 UNK     1      16.079   0.569  36.029  1.00  0.00     0.002 A 
HETATM   22  C17 UNK     1      16.583   1.187  37.173  1.00  0.00     0.000 A 
HETATM   23  C15 UNK     1      17.567   0.554  37.931  1.00  0.00     0.002 A 
HETATM   24  C13 UNK     1      18.049  -0.696  37.546  1.00  0.00     0.031 A 
ENDBRANCH  17  19
ENDBRANCH  15  17
ENDBRANCH   6  15
TORSDOF 3
ENDMDL
MODEL 4
REMARK VINA RESULT:      -8.5      1.953      7.603
REMARK  3 active torsions:
REMARK  status: ('A' for Active; 'I' for Inactive)
REMARK    1  A    between atoms: C3_8  and  N1_4 
REMARK    2  A    between atoms: N1_4  and  N2_5 
REMARK    3  A    between atoms: C12_17  and  N2_5 
ROOT
HETATM    1  O1  UNK     1      17.520   5.099  34.141  1.00  0.00    -0.274 OA
HETATM    2  O2  UNK     1      18.229   6.753  30.452  1.00  0.00    -0.286 OA
HETATM    3  O3  UNK     1      18.182   3.032  33.437  1.00  0.00    -0.259 OA
HETATM    4  C1  UNK     1      18.248   4.820  31.855  1.00  0.00     0.114 A 
HETATM    5  C2  UNK     1      17.516   7.060  32.668  1.00  0.00     0.049 A 
HETATM    6  C3  UNK     1      18.710   4.029  30.876  1.00  0.00     0.042 C 
HETATM    7  C4  UNK     1      18.021   6.253  31.550  1.00  0.00     0.203 A 
HETATM    8  C5  UNK     1      17.286   6.467  33.903  1.00  0.00     0.093 A 
HETATM    9  C6  UNK     1      17.996   4.215  33.179  1.00  0.00     0.304 A 
HETATM   10  C7  UNK     1      17.262   8.424  32.500  1.00  0.00     0.018 A 
HETATM   11  C8  UNK     1      16.806   7.213  34.980  1.00  0.00     0.038 A 
HETATM   12  C9  UNK     1      18.985   4.587  29.506  1.00  0.00     0.071 C 
HETATM   13  C10 UNK     1      16.782   9.177  33.574  1.00  0.00     0.001 A 
HETATM   14  C11 UNK     1      16.554   8.574  34.811  1.00  0.00     0.003 A 
ENDROOT
BRANCH   6  15
HETATM   15  N1  UNK     1      18.959   2.694  31.036  1.00  0.00    -0.304 N 
HETATM   16  H2  UNK     1      18.739   2.258  31.924  1.00  0.00     0.186 HD
BRANCH  15  17
HETATM   17  N2  UNK     1      19.400   1.872  30.069  1.00  0.00    -0.301 N 
HETATM   18  H8  UNK     1      19.407   2.232  29.120  1.00  0.00     0.187 HD
BRANCH  17  19
HETATM   19  C12 UNK     1      19.697   0.510  30.238  1.00  0.00     0.048 A 
HETATM   20  C14 UNK     1      20.296  -0.213  29.202  1.00  0.00     0.031 A 
HETATM   21  C16 UNK     1      20.591  -1.567  29.370  1.00  0.00     0.002 A 
HETATM   22  C17 UNK     1      20.289  -2.202  30.574  1.00  0.00     0.000 A 
HETATM   23  C15 UNK     1      19.692  -1.485  31.610  1.00  0.00     0.002 A 
HETATM   24  C13 UNK     1      19.396  -0.133  31.443  1.00  0.00     0.031 A 
ENDBRANCH  17  19
ENDBRANCH  15  17
ENDBRANCH   6  15
TORSDOF 3
ENDMDL
MODEL 5
REMARK VINA RESULT:      -8.5     12.878     15.385
REMARK  3 active torsions:
REMARK  status: ('A' for Active; 'I' for Inactive)
REMARK    1  A    between atoms: C3_8  and  N1_4 
REMARK    2  A    between atoms: N1_4  and  N2_5 
REMARK    3  A    between atoms: C12_17  and  N2_5 
ROOT
HETATM    1  O1  UNK     1      28.052  -4.809  38.677  1.00  0.00    -0.274 OA
HETATM    2  O2  UNK     1      28.798  -8.842  38.514  1.00  0.00    -0.286 OA
HETATM    3  O3  UNK     1      25.802  -5.145  38.857  1.00  0.00    -0.259 OA
HETATM    4  C1  UNK     1      27.205  -7.071  38.692  1.00  0.00     0.114 A 
HETATM    5  C2  UNK     1      29.655  -6.656  38.497  1.00  0.00     0.049 A 
HETATM    6  C3  UNK     1      26.168  -7.918  38.759  1.00  0.00     0.042 C 
HETATM    7  C4  UNK     1      28.568  -7.641  38.564  1.00  0.00     0.203 A 
HETATM    8  C5  UNK     1      29.366  -5.299  38.554  1.00  0.00     0.093 A 
HETATM    9  C6  UNK     1      26.926  -5.621  38.751  1.00  0.00     0.304 A 
HETATM   10  C7  UNK     1      30.983  -7.074  38.374  1.00  0.00     0.018 A 
HETATM   11  C8  UNK     1      30.382  -4.345  38.492  1.00  0.00     0.038 A 
HETATM   12  C9  UNK     1      26.389  -9.405  38.703  1.00  0.00     0.071 C 
HETATM   13  C10 UNK     1      32.006  -6.124  38.311  1.00  0.00     0.001 A 
HETATM   14  C11 UNK     1      31.707  -4.763  38.370  1.00  0.00     0.003 A 
ENDROOT
BRANCH   6  15
HETATM   15  N1  UNK     1      24.867  -7.513  38.879  1.00  0.00    -0.304 N 
HETATM   16  H2  UNK     1      24.645  -6.534  38.746  1.00  0.00     0.186 HD
BRANCH  15  17
HETATM   17  N2  UNK     1      23.822  -8.333  39.077  1.00  0.00    -0.301 N 
HETATM   18  H8  UNK     1      24.009  -9.330  39.093  1.00  0.00     0.187 HD
BRANCH  17  19
HETATM   19  C12 UNK     1      22.475  -7.936  39.099  1.00  0.00     0.048 A 
HETATM   20  C14 UNK     1      22.127  -6.613  38.811  1.00  0.00     0.031 A 
HETATM   21  C16 UNK     1      20.788  -6.218  38.833  1.00  0.00     0.002 A 
HETATM   22  C17 UNK     1      19.794  -7.144  39.143  1.00  0.00     0.000 A 
HETATM   23  C15 UNK     1      20.136  -8.465  39.432  1.00  0.00     0.002 A 
HETATM   24  C13 UNK     1      21.473  -8.860  39.410  1.00  0.00     0.031 A 
ENDBRANCH  17  19
ENDBRANCH  15  17
ENDBRANCH   6  15
TORSDOF 3
ENDMDL
MODEL 6
REMARK VINA RESULT:      -8.4      5.140      8.692
REMARK  3 active torsions:
REMARK  status: ('A' for Active; 'I' for Inactive)
REMARK    1  A    between atoms: C3_8  and  N1_4 
REMARK    2  A    between atoms: N1_4  and  N2_5 
REMARK    3  A    between atoms: C12_17  and  N2_5 
ROOT
HETATM    1  O1  UNK     1      20.680  -2.410  31.507  1.00  0.00    -0.274 OA
HETATM    2  O2  UNK     1      18.443   0.529  33.297  1.00  0.00    -0.286 OA
HETATM    3  O3  UNK     1      20.914  -3.548  33.471  1.00  0.00    -0.259 OA
HETATM    4  C1  UNK     1      19.655  -1.519  33.505  1.00  0.00     0.114 A 
HETATM    5  C2  UNK     1      19.425  -0.310  31.337  1.00  0.00     0.049 A 
HETATM    6  C3  UNK     1      19.401  -1.616  34.817  1.00  0.00     0.042 C 
HETATM    7  C4  UNK     1      19.110  -0.351  32.770  1.00  0.00     0.203 A 
HETATM    8  C5  UNK     1      20.186  -1.321  30.764  1.00  0.00     0.093 A 
HETATM    9  C6  UNK     1      20.461  -2.582  32.869  1.00  0.00     0.304 A 
HETATM   10  C7  UNK     1      18.967   0.743  30.540  1.00  0.00     0.018 A 
HETATM   11  C8  UNK     1      20.499  -1.302  29.404  1.00  0.00     0.038 A 
HETATM   12  C9  UNK     1      18.586  -0.565  35.520  1.00  0.00     0.071 C 
HETATM   13  C10 UNK     1      19.276   0.769  29.178  1.00  0.00     0.001 A 
HETATM   14  C11 UNK     1      20.041  -0.251  28.611  1.00  0.00     0.003 A 
ENDROOT
BRANCH   6  15
HETATM   15  N1  UNK     1      19.849  -2.645  35.600  1.00  0.00    -0.304 N 
HETATM   16  H2  UNK     1      20.810  -2.636  35.918  1.00  0.00     0.186 HD
BRANCH  15  17
HETATM   17  N2  UNK     1      19.083  -3.646  36.064  1.00  0.00    -0.301 N 
HETATM   18  H8  UNK     1      18.077  -3.531  36.000  1.00  0.00     0.187 HD
BRANCH  17  19
HETATM   19  C12 UNK     1      19.554  -4.761  36.777  1.00  0.00     0.048 A 
HETATM   20  C14 UNK     1      18.847  -5.968  36.743  1.00  0.00     0.031 A 
HETATM   21  C16 UNK     1      19.315  -7.075  37.451  1.00  0.00     0.002 A 
HETATM   22  C17 UNK     1      20.491  -6.981  38.196  1.00  0.00     0.000 A 
HETATM   23  C15 UNK     1      21.199  -5.780  38.232  1.00  0.00     0.002 A 
HETATM   24  C13 UNK     1      20.731  -4.673  37.525  1.00  0.00     0.031 A 
ENDBRANCH  17  19
ENDBRANCH  15  17
ENDBRANCH   6  15
TORSDOF 3
ENDMDL
MODEL 7
REMARK VINA RESULT:      -8.4     22.903     24.673
REMARK  3 active torsions:
REMARK  status: ('A' for Active; 'I' for Inactive)
REMARK    1  A    between atoms: C3_8  and  N1_4 
REMARK    2  A    between atoms: N1_4  and  N2_5 
REMARK    3  A    between atoms: C12_17  and  N2_5 
ROOT
HETATM    1  O1  UNK     1      13.765   9.338  10.180  1.00  0.00    -0.274 OA
HETATM    2  O2  UNK     1      16.733   6.537   9.735  1.00  0.00    -0.286 OA
HETATM    3  O3  UNK     1      12.145   7.734  10.262  1.00  0.00    -0.259 OA
HETATM    4  C1  UNK     1      14.408   7.016   9.996  1.00  0.00     0.114 A 
HETATM    5  C2  UNK     1      16.144   8.803   9.911  1.00  0.00     0.049 A 
HETATM    6  C3  UNK     1      14.067   5.720   9.966  1.00  0.00     0.042 C 
HETATM    7  C4  UNK     1      15.843   7.367   9.869  1.00  0.00     0.203 A 
HETATM    8  C5  UNK     1      15.115   9.724  10.062  1.00  0.00     0.093 A 
HETATM    9  C6  UNK     1      13.332   8.017  10.157  1.00  0.00     0.304 A 
HETATM   10  C7  UNK     1      17.462   9.255   9.799  1.00  0.00     0.018 A 
HETATM   11  C8  UNK     1      15.376  11.093  10.104  1.00  0.00     0.038 A 
HETATM   12  C9  UNK     1      15.117   4.656   9.805  1.00  0.00     0.071 C 
HETATM   13  C10 UNK     1      17.731  10.625   9.840  1.00  0.00     0.001 A 
HETATM   14  C11 UNK     1      16.691  11.543   9.992  1.00  0.00     0.003 A 
ENDROOT
BRANCH   6  15
HETATM   15  N1  UNK     1      12.778   5.275  10.075  1.00  0.00    -0.304 N 
HETATM   16  H2  UNK     1      12.265   5.466  10.927  1.00  0.00     0.186 HD
BRANCH  15  17
HETATM   17  N2  UNK     1      12.090   4.666   9.095  1.00  0.00    -0.301 N 
HETATM   18  H8  UNK     1      12.228   3.668   8.981  1.00  0.00     0.187 HD
BRANCH  17  19
HETATM   19  C12 UNK     1      11.324   5.322   8.117  1.00  0.00     0.048 A 
HETATM   20  C14 UNK     1       9.982   5.627   8.362  1.00  0.00     0.031 A 
HETATM   21  C16 UNK     1       9.221   6.278   7.390  1.00  0.00     0.002 A 
HETATM   22  C17 UNK     1       9.800   6.628   6.170  1.00  0.00     0.000 A 
HETATM   23  C15 UNK     1      11.138   6.326   5.922  1.00  0.00     0.002 A 
HETATM   24  C13 UNK     1      11.899   5.674   6.892  1.00  0.00     0.031 A 
ENDBRANCH  17  19
ENDBRANCH  15  17
ENDBRANCH   6  15
TORSDOF 3
ENDMDL
MODEL 8
REMARK VINA RESULT:      -8.2     13.596     15.496
REMARK  3 active torsions:
REMARK  status: ('A' for Active; 'I' for Inactive)
REMARK    1  A    between atoms: C3_8  and  N1_4 
REMARK    2  A    between atoms: N1_4  and  N2_5 
REMARK    3  A    between atoms: C12_17  and  N2_5 
ROOT
HETATM    1  O1  UNK     1      28.286  -8.236  38.323  1.00  0.00    -0.274 OA
HETATM    2  O2  UNK     1      26.050  -4.862  39.011  1.00  0.00    -0.286 OA
HETATM    3  O3  UNK     1      26.436  -9.571  38.347  1.00  0.00    -0.259 OA
HETATM    4  C1  UNK     1      26.121  -7.228  38.690  1.00  0.00     0.114 A 
HETATM    5  C2  UNK     1      28.169  -5.808  38.657  1.00  0.00     0.049 A 
HETATM    6  C3  UNK     1      24.793  -7.354  38.816  1.00  0.00     0.042 C 
HETATM    7  C4  UNK     1      26.710  -5.872  38.805  1.00  0.00     0.203 A 
HETATM    8  C5  UNK     1      28.895  -6.969  38.425  1.00  0.00     0.093 A 
HETATM    9  C6  UNK     1      26.917  -8.448  38.443  1.00  0.00     0.304 A 
HETATM   10  C7  UNK     1      28.839  -4.584  38.747  1.00  0.00     0.018 A 
HETATM   11  C8  UNK     1      30.282  -6.933  38.281  1.00  0.00     0.038 A 
HETATM   12  C9  UNK     1      23.929  -6.149  39.069  1.00  0.00     0.071 C 
HETATM   13  C10 UNK     1      30.227  -4.540  38.604  1.00  0.00     0.001 A 
HETATM   14  C11 UNK     1      30.948  -5.712  38.371  1.00  0.00     0.003 A 
ENDROOT
BRANCH   6  15
HETATM   15  N1  UNK     1      24.135  -8.551  38.728  1.00  0.00    -0.304 N 
HETATM   16  H2  UNK     1      24.252  -9.229  39.471  1.00  0.00     0.186 HD
BRANCH  15  17
HETATM   17  N2  UNK     1      23.259  -8.877  37.763  1.00  0.00    -0.301 N 
HETATM   18  H8  UNK     1      23.550  -8.730  36.802  1.00  0.00     0.187 HD
BRANCH  17  19
HETATM   19  C12 UNK     1      21.922  -9.250  37.976  1.00  0.00     0.048 A 
HETATM   20  C14 UNK     1      21.196  -8.689  39.032  1.00  0.00     0.031 A 
HETATM   21  C16 UNK     1      19.867  -9.059  39.244  1.00  0.00     0.002 A 
HETATM   22  C17 UNK     1      19.260  -9.990  38.402  1.00  0.00     0.000 A 
HETATM   23  C15 UNK     1      19.980 -10.551  37.348  1.00  0.00     0.002 A 
HETATM   24  C13 UNK     1      21.308 -10.183  37.136  1.00  0.00     0.031 A 
ENDBRANCH  17  19
ENDBRANCH  15  17
ENDBRANCH   6  15
TORSDOF 3
ENDMDL
MODEL 9
REMARK VINA RESULT:      -8.1      7.880     10.301
REMARK  3 active torsions:
REMARK  status: ('A' for Active; 'I' for Inactive)
REMARK    1  A    between atoms: C3_8  and  N1_4 
REMARK    2  A    between atoms: N1_4  and  N2_5 
REMARK    3  A    between atoms: C12_17  and  N2_5 
ROOT
HETATM    1  O1  UNK     1      22.116  -6.984  36.985  1.00  0.00    -0.274 OA
HETATM    2  O2  UNK     1      18.383  -8.443  36.097  1.00  0.00    -0.286 OA
HETATM    3  O3  UNK     1      21.310  -4.872  37.296  1.00  0.00    -0.259 OA
HETATM    4  C1  UNK     1      19.751  -6.580  36.698  1.00  0.00     0.114 A 
HETATM    5  C2  UNK     1      20.675  -8.871  36.368  1.00  0.00     0.049 A 
HETATM    6  C3  UNK     1      18.712  -5.733  36.712  1.00  0.00     0.042 C 
HETATM    7  C4  UNK     1      19.493  -8.001  36.364  1.00  0.00     0.203 A 
HETATM    8  C5  UNK     1      21.923  -8.344  36.673  1.00  0.00     0.093 A 
HETATM    9  C6  UNK     1      21.091  -6.045  37.019  1.00  0.00     0.304 A 
HETATM   10  C7  UNK     1      20.556 -10.231  36.067  1.00  0.00     0.018 A 
HETATM   11  C8  UNK     1      23.061  -9.151  36.683  1.00  0.00     0.038 A 
HETATM   12  C9  UNK     1      17.324  -6.218  36.394  1.00  0.00     0.071 C 
HETATM   13  C10 UNK     1      21.691 -11.046  36.075  1.00  0.00     0.001 A 
HETATM   14  C11 UNK     1      22.941 -10.508  36.382  1.00  0.00     0.003 A 
ENDROOT
BRANCH   6  15
HETATM   15  N1  UNK     1      18.825  -4.402  37.007  1.00  0.00    -0.304 N 
HETATM   16  H2  UNK     1      18.875  -4.118  37.977  1.00  0.00     0.186 HD
BRANCH  15  17
HETATM   17  N2  UNK     1      18.965  -3.423  36.097  1.00  0.00    -0.301 N 
HETATM   18  H8  UNK     1      19.438  -3.657  35.231  1.00  0.00     0.187 HD
BRANCH  17  19
HETATM   19  C12 UNK     1      18.659  -2.069  36.313  1.00  0.00     0.048 A 
HETATM   20  C14 UNK     1      18.105  -1.658  37.529  1.00  0.00     0.031 A 
HETATM   21  C16 UNK     1      17.801  -0.313  37.744  1.00  0.00     0.002 A 
HETATM   22  C17 UNK     1      18.049   0.625  36.743  1.00  0.00     0.000 A 
HETATM   23  C15 UNK     1      18.601   0.220  35.528  1.00  0.00     0.002 A 
HETATM   24  C13 UNK     1      18.905  -1.124  35.313  1.00  0.00     0.031 A 
ENDBRANCH  17  19
ENDBRANCH  15  17
ENDBRANCH   6  15
TORSDOF 3
ENDMDL
MODEL 10
REMARK VINA RESULT:      -8.1      7.599     10.535
REMARK  3 active torsions:
REMARK  status: ('A' for Active; 'I' for Inactive)
REMARK    1  A    between atoms: C3_8  and  N1_4 
REMARK    2  A    between atoms: N1_4  and  N2_5 
REMARK    3  A    between atoms: C12_17  and  N2_5 
ROOT
HETATM    1  O1  UNK     1      19.549  -8.281  35.689  1.00  0.00    -0.274 OA
HETATM    2  O2  UNK     1      20.247  -5.870  38.937  1.00  0.00    -0.286 OA
HETATM    3  O3  UNK     1      19.624  -6.511  34.251  1.00  0.00    -0.259 OA
HETATM    4  C1  UNK     1      19.950  -6.070  36.576  1.00  0.00     0.114 A 
HETATM    5  C2  UNK     1      19.859  -8.032  38.109  1.00  0.00     0.049 A 
HETATM    6  C3  UNK     1      20.107  -4.753  36.375  1.00  0.00     0.042 C 
HETATM    7  C4  UNK     1      20.040  -6.583  37.964  1.00  0.00     0.203 A 
HETATM    8  C5  UNK     1      19.624  -8.818  36.988  1.00  0.00     0.093 A 
HETATM    9  C6  UNK     1      19.699  -6.929  35.400  1.00  0.00     0.304 A 
HETATM   10  C7  UNK     1      19.921  -8.632  39.370  1.00  0.00     0.018 A 
HETATM   11  C8  UNK     1      19.449 -10.198  37.102  1.00  0.00     0.038 A 
HETATM   12  C9  UNK     1      20.365  -3.828  37.532  1.00  0.00     0.071 C 
HETATM   13  C10 UNK     1      19.747 -10.012  39.492  1.00  0.00     0.001 A 
HETATM   14  C11 UNK     1      19.511 -10.794  38.361  1.00  0.00     0.003 A 
ENDROOT
BRANCH   6  15
HETATM   15  N1  UNK     1      20.047  -4.164  35.142  1.00  0.00    -0.304 N 
HETATM   16  H2  UNK     1      20.163  -4.741  34.318  1.00  0.00     0.186 HD
BRANCH  15  17
HETATM   17  N2  UNK     1      19.755  -2.871  34.922  1.00  0.00    -0.301 N 
HETATM   18  H8  UNK     1      19.343  -2.350  35.689  1.00  0.00     0.187 HD
BRANCH  17  19
HETATM   19  C12 UNK     1      19.820  -2.228  33.675  1.00  0.00     0.048 A 
HETATM   20  C14 UNK     1      20.764  -2.630  32.725  1.00  0.00     0.031 A 
HETATM   21  C16 UNK     1      20.829  -1.992  31.486  1.00  0.00     0.002 A 
HETATM   22  C17 UNK     1      19.950  -0.950  31.192  1.00  0.00     0.000 A 
HETATM   23  C15 UNK     1      19.007  -0.546  32.136  1.00  0.00     0.002 A 
HETATM   24  C13 UNK     1      18.942  -1.183  33.374  1.00  0.00     0.031 A 
ENDBRANCH  17  19
ENDBRANCH  15  17
ENDBRANCH   6  15
TORSDOF 3
ENDMDL
