MODEL 1
REMARK VINA RESULT:      -8.0      0.000      0.000
REMARK  4 active torsions:
REMARK  status: ('A' for Active; 'I' for Inactive)
REMARK    1  A    between atoms: C5_10  and  O2_2 
REMARK    2  A    between atoms: C11_16  and  O3_3 
REMARK    3  A    between atoms: C12_17  and  O4_4 
REMARK    4  A    between atoms: C1_6  and  C2_7 
ROOT
HETATM    1  O1  UNK     1      18.880   6.285  31.755  1.00  0.00    -0.309 OA
HETATM    2  O5  UNK     1      18.034   3.210  34.290  1.00  0.00    -0.287 OA
HETATM    3  C1  UNK     1      18.745   6.484  33.120  1.00  0.00     0.093 A 
HETATM    4  C3  UNK     1      18.422   3.921  32.070  1.00  0.00     0.051 A 
HETATM    5  C4  UNK     1      18.714   5.017  31.259  1.00  0.00     0.090 A 
HETATM    6  C6  UNK     1      18.473   5.510  34.003  1.00  0.00     0.094 A 
HETATM    7  C7  UNK     1      18.286   4.126  33.520  1.00  0.00     0.187 A 
HETATM    8  C8  UNK     1      18.263   2.650  31.510  1.00  0.00     0.055 A 
HETATM    9  C10 UNK     1      18.849   4.848  29.882  1.00  0.00     0.041 A 
HETATM   10  C12 UNK     1      18.400   2.486  30.132  1.00  0.00     0.069 A 
HETATM   11  C13 UNK     1      18.692   3.581  29.319  1.00  0.00     0.039 A 
ENDROOT
BRANCH   3  12
HETATM   12  C2  UNK     1      18.952   7.882  33.546  1.00  0.00     0.034 A 
HETATM   13  C5  UNK     1      17.933   8.834  33.440  1.00  0.00     0.114 A 
HETATM   14  C11 UNK     1      18.154  10.149  33.849  1.00  0.00     0.102 A 
HETATM   15  C15 UNK     1      19.395  10.519  34.366  1.00  0.00     0.040 A 
HETATM   16  C14 UNK     1      20.416   9.574  34.474  1.00  0.00     0.004 A 
HETATM   17  C9  UNK     1      20.194   8.258  34.065  1.00  0.00     0.017 A 
BRANCH  13  18
HETATM   18  O2  UNK     1      16.714   8.486  32.936  1.00  0.00    -0.352 OA
HETATM   19  C16 UNK     1      15.715   8.095  33.873  1.00  0.00     0.210 C 
ENDBRANCH  13  18
BRANCH  14  20
HETATM   20  O3  UNK     1      17.167  11.083  33.749  1.00  0.00    -0.353 OA
HETATM   21  C17 UNK     1      17.420  12.358  34.336  1.00  0.00     0.210 C 
ENDBRANCH  14  20
ENDBRANCH   3  12
BRANCH  10  22
HETATM   22  O4  UNK     1      18.248   1.250  29.577  1.00  0.00    -0.356 OA
HETATM   23  C18 UNK     1      19.427   0.601  29.105  1.00  0.00     0.210 C 
ENDBRANCH  10  22
TORSDOF 4
ENDMDL
MODEL 2
REMARK VINA RESULT:      -7.9      8.813     11.420
REMARK  4 active torsions:
REMARK  status: ('A' for Active; 'I' for Inactive)
REMARK    1  A    between atoms: C5_10  and  O2_2 
REMARK    2  A    between atoms: C11_16  and  O3_3 
REMARK    3  A    between atoms: C12_17  and  O4_4 
REMARK    4  A    between atoms: C1_6  and  C2_7 
ROOT
HETATM    1  O1  UNK     1      18.742  -4.452  36.485  1.00  0.00    -0.309 OA
HETATM    2  O5  UNK     1      22.407  -5.240  38.081  1.00  0.00    -0.287 OA
HETATM    3  C1  UNK     1      19.558  -3.441  36.970  1.00  0.00     0.093 A 
HETATM    4  C3  UNK     1      20.433  -6.085  37.094  1.00  0.00     0.051 A 
HETATM    5  C4  UNK     1      19.192  -5.746  36.558  1.00  0.00     0.090 A 
HETATM    6  C6  UNK     1      20.774  -3.639  37.500  1.00  0.00     0.094 A 
HETATM    7  C7  UNK     1      21.304  -5.015  37.602  1.00  0.00     0.187 A 
HETATM    8  C8  UNK     1      20.840  -7.421  37.144  1.00  0.00     0.055 A 
HETATM    9  C10 UNK     1      18.348  -6.742  36.069  1.00  0.00     0.041 A 
HETATM   10  C12 UNK     1      19.994  -8.415  36.653  1.00  0.00     0.069 A 
HETATM   11  C13 UNK     1      18.750  -8.078  36.116  1.00  0.00     0.039 A 
ENDROOT
BRANCH   3  12
HETATM   12  C2  UNK     1      18.981  -2.088  36.834  1.00  0.00     0.034 A 
HETATM   13  C5  UNK     1      19.340  -1.246  35.777  1.00  0.00     0.114 A 
HETATM   14  C11 UNK     1      18.781   0.028  35.671  1.00  0.00     0.102 A 
HETATM   15  C15 UNK     1      17.859   0.465  36.622  1.00  0.00     0.040 A 
HETATM   16  C14 UNK     1      17.496  -0.371  37.679  1.00  0.00     0.004 A 
HETATM   17  C9  UNK     1      18.056  -1.645  37.784  1.00  0.00     0.017 A 
BRANCH  13  18
HETATM   18  O2  UNK     1      20.241  -1.661  34.840  1.00  0.00    -0.352 OA
HETATM   19  C16 UNK     1      19.717  -2.093  33.587  1.00  0.00     0.210 C 
ENDBRANCH  13  18
BRANCH  14  20
HETATM   20  O3  UNK     1      19.125   0.855  34.645  1.00  0.00    -0.353 OA
HETATM   21  C17 UNK     1      18.104   1.705  34.128  1.00  0.00     0.210 C 
ENDBRANCH  14  20
ENDBRANCH   3  12
BRANCH  10  22
HETATM   22  O4  UNK     1      20.382  -9.721  36.696  1.00  0.00    -0.356 OA
HETATM   23  C18 UNK     1      19.513 -10.634  37.362  1.00  0.00     0.210 C 
ENDBRANCH  10  22
TORSDOF 4
ENDMDL
MODEL 3
REMARK VINA RESULT:      -7.7     22.930     25.095
REMARK  4 active torsions:
REMARK  status: ('A' for Active; 'I' for Inactive)
REMARK    1  A    between atoms: C5_10  and  O2_2 
REMARK    2  A    between atoms: C11_16  and  O3_3 
REMARK    3  A    between atoms: C12_17  and  O4_4 
REMARK    4  A    between atoms: C1_6  and  C2_7 
ROOT
HETATM    1  O1  UNK     1      12.969   8.410   8.184  1.00  0.00    -0.309 OA
HETATM    2  O5  UNK     1      14.936   5.837  10.656  1.00  0.00    -0.287 OA
HETATM    3  C1  UNK     1      12.413   7.199   8.566  1.00  0.00     0.093 A 
HETATM    4  C3  UNK     1      14.946   7.897   9.499  1.00  0.00     0.051 A 
HETATM    5  C4  UNK     1      14.218   8.732   8.653  1.00  0.00     0.090 A 
HETATM    6  C6  UNK     1      13.010   6.315   9.381  1.00  0.00     0.094 A 
HETATM    7  C7  UNK     1      14.356   6.616   9.913  1.00  0.00     0.187 A 
HETATM    8  C8  UNK     1      16.215   8.277   9.946  1.00  0.00     0.055 A 
HETATM    9  C10 UNK     1      14.755   9.953   8.247  1.00  0.00     0.041 A 
HETATM   10  C12 UNK     1      16.748   9.499   9.539  1.00  0.00     0.069 A 
HETATM   11  C13 UNK     1      16.021  10.336   8.691  1.00  0.00     0.039 A 
ENDROOT
BRANCH   3  12
HETATM   12  C2  UNK     1      11.066   6.957   8.012  1.00  0.00     0.034 A 
HETATM   13  C5  UNK     1       9.915   7.384   8.682  1.00  0.00     0.114 A 
HETATM   14  C11 UNK     1       8.654   7.144   8.137  1.00  0.00     0.102 A 
HETATM   15  C15 UNK     1       8.537   6.473   6.920  1.00  0.00     0.040 A 
HETATM   16  C14 UNK     1       9.681   6.043   6.247  1.00  0.00     0.004 A 
HETATM   17  C9  UNK     1      10.943   6.285   6.792  1.00  0.00     0.017 A 
BRANCH  13  18
HETATM   18  O2  UNK     1      10.015   8.042   9.874  1.00  0.00    -0.352 OA
HETATM   19  C16 UNK     1      10.005   9.466   9.829  1.00  0.00     0.210 C 
ENDBRANCH  13  18
BRANCH  14  20
HETATM   20  O3  UNK     1       7.527   7.557   8.783  1.00  0.00    -0.353 OA
HETATM   21  C17 UNK     1       7.040   6.724   9.832  1.00  0.00     0.210 C 
ENDBRANCH  14  20
ENDBRANCH   3  12
BRANCH  10  22
HETATM   22  O4  UNK     1      17.984   9.879   9.970  1.00  0.00    -0.356 OA
HETATM   23  C18 UNK     1      18.372  11.228   9.719  1.00  0.00     0.210 C 
ENDBRANCH  10  22
TORSDOF 4
ENDMDL
MODEL 4
REMARK VINA RESULT:      -7.7      1.468      7.318
REMARK  4 active torsions:
REMARK  status: ('A' for Active; 'I' for Inactive)
REMARK    1  A    between atoms: C5_10  and  O2_2 
REMARK    2  A    between atoms: C11_16  and  O3_3 
REMARK    3  A    between atoms: C12_17  and  O4_4 
REMARK    4  A    between atoms: C1_6  and  C2_7 
ROOT
HETATM    1  O1  UNK     1      17.051   6.810  32.840  1.00  0.00    -0.309 OA
HETATM    2  O5  UNK     1      20.202   8.826  34.455  1.00  0.00    -0.287 OA
HETATM    3  C1  UNK     1      18.292   6.213  32.998  1.00  0.00     0.093 A 
HETATM    4  C3  UNK     1      17.934   8.863  33.792  1.00  0.00     0.051 A 
HETATM    5  C4  UNK     1      16.898   8.115  33.235  1.00  0.00     0.090 A 
HETATM    6  C6  UNK     1      19.363   6.825  33.528  1.00  0.00     0.094 A 
HETATM    7  C7  UNK     1      19.250   8.231  33.969  1.00  0.00     0.187 A 
HETATM    8  C8  UNK     1      17.721  10.189  34.177  1.00  0.00     0.055 A 
HETATM    9  C10 UNK     1      15.640   8.691  33.057  1.00  0.00     0.041 A 
HETATM   10  C12 UNK     1      16.462  10.761  33.998  1.00  0.00     0.069 A 
HETATM   11  C13 UNK     1      15.423  10.015  33.440  1.00  0.00     0.039 A 
ENDROOT
BRANCH   3  12
HETATM   12  C2  UNK     1      18.344   4.808  32.549  1.00  0.00     0.034 A 
HETATM   13  C5  UNK     1      18.573   4.479  31.210  1.00  0.00     0.114 A 
HETATM   14  C11 UNK     1      18.617   3.143  30.811  1.00  0.00     0.102 A 
HETATM   15  C15 UNK     1      18.431   2.129  31.750  1.00  0.00     0.040 A 
HETATM   16  C14 UNK     1      18.200   2.451  33.088  1.00  0.00     0.004 A 
HETATM   17  C9  UNK     1      18.158   3.787  33.486  1.00  0.00     0.017 A 
BRANCH  13  18
HETATM   18  O2  UNK     1      18.758   5.461  30.280  1.00  0.00    -0.352 OA
HETATM   19  C16 UNK     1      20.097   5.890  30.050  1.00  0.00     0.210 C 
ENDBRANCH  13  18
BRANCH  14  20
HETATM   20  O3  UNK     1      18.841   2.814  29.508  1.00  0.00    -0.353 OA
HETATM   21  C17 UNK     1      17.892   1.949  28.887  1.00  0.00     0.210 C 
ENDBRANCH  14  20
ENDBRANCH   3  12
BRANCH  10  22
HETATM   22  O4  UNK     1      16.243  12.054  34.371  1.00  0.00    -0.356 OA
HETATM   23  C18 UNK     1      17.378  12.807  34.794  1.00  0.00     0.210 C 
ENDBRANCH  10  22
TORSDOF 4
ENDMDL
MODEL 5
REMARK VINA RESULT:      -7.5      8.394     12.235
REMARK  4 active torsions:
REMARK  status: ('A' for Active; 'I' for Inactive)
REMARK    1  A    between atoms: C5_10  and  O2_2 
REMARK    2  A    between atoms: C11_16  and  O3_3 
REMARK    3  A    between atoms: C12_17  and  O4_4 
REMARK    4  A    between atoms: C1_6  and  C2_7 
ROOT
HETATM    1  O1  UNK     1      20.383  -3.601  34.913  1.00  0.00    -0.309 OA
HETATM    2  O5  UNK     1      17.829  -0.863  36.519  1.00  0.00    -0.287 OA
HETATM    3  C1  UNK     1      19.949  -3.693  36.227  1.00  0.00     0.093 A 
HETATM    4  C3  UNK     1      19.066  -1.579  34.637  1.00  0.00     0.051 A 
HETATM    5  C4  UNK     1      19.938  -2.551  34.150  1.00  0.00     0.090 A 
HETATM    6  C6  UNK     1      19.105  -2.826  36.807  1.00  0.00     0.094 A 
HETATM    7  C7  UNK     1      18.597  -1.678  36.028  1.00  0.00     0.187 A 
HETATM    8  C8  UNK     1      18.645  -0.530  33.815  1.00  0.00     0.055 A 
HETATM    9  C10 UNK     1      20.396  -2.480  32.835  1.00  0.00     0.041 A 
HETATM   10  C12 UNK     1      19.105  -0.464  32.500  1.00  0.00     0.069 A 
HETATM   11  C13 UNK     1      19.979  -1.435  32.010  1.00  0.00     0.039 A 
ENDROOT
BRANCH   3  12
HETATM   12  C2  UNK     1      20.481  -4.864  36.953  1.00  0.00     0.034 A 
HETATM   13  C5  UNK     1      19.920  -6.135  36.797  1.00  0.00     0.114 A 
HETATM   14  C11 UNK     1      20.441  -7.225  37.494  1.00  0.00     0.102 A 
HETATM   15  C15 UNK     1      21.526  -7.048  38.352  1.00  0.00     0.040 A 
HETATM   16  C14 UNK     1      22.090  -5.781  38.513  1.00  0.00     0.004 A 
HETATM   17  C9  UNK     1      21.569  -4.692  37.814  1.00  0.00     0.017 A 
BRANCH  13  18
HETATM   18  O2  UNK     1      18.858  -6.322  35.960  1.00  0.00    -0.352 OA
HETATM   19  C16 UNK     1      17.563  -6.341  36.554  1.00  0.00     0.210 C 
ENDBRANCH  13  18
BRANCH  14  20
HETATM   20  O3  UNK     1      19.901  -8.467  37.348  1.00  0.00    -0.353 OA
HETATM   21  C17 UNK     1      19.322  -9.062  38.507  1.00  0.00     0.210 C 
ENDBRANCH  14  20
ENDBRANCH   3  12
BRANCH  10  22
HETATM   22  O4  UNK     1      18.700   0.555  31.689  1.00  0.00    -0.356 OA
HETATM   23  C18 UNK     1      19.431   0.751  30.481  1.00  0.00     0.210 C 
ENDBRANCH  10  22
TORSDOF 4
ENDMDL
MODEL 6
REMARK VINA RESULT:      -7.5      2.108      3.757
REMARK  4 active torsions:
REMARK  status: ('A' for Active; 'I' for Inactive)
REMARK    1  A    between atoms: C5_10  and  O2_2 
REMARK    2  A    between atoms: C11_16  and  O3_3 
REMARK    3  A    between atoms: C12_17  and  O4_4 
REMARK    4  A    between atoms: C1_6  and  C2_7 
ROOT
HETATM    1  O1  UNK     1      17.973   3.582  33.246  1.00  0.00    -0.309 OA
HETATM    2  O5  UNK     1      19.047   2.512  29.464  1.00  0.00    -0.287 OA
HETATM    3  C1  UNK     1      18.048   4.512  32.220  1.00  0.00     0.093 A 
HETATM    4  C3  UNK     1      18.654   1.841  31.695  1.00  0.00     0.051 A 
HETATM    5  C4  UNK     1      18.278   2.274  32.966  1.00  0.00     0.090 A 
HETATM    6  C6  UNK     1      18.390   4.217  30.956  1.00  0.00     0.094 A 
HETATM    7  C7  UNK     1      18.728   2.823  30.603  1.00  0.00     0.187 A 
HETATM    8  C8  UNK     1      18.954   0.495  31.468  1.00  0.00     0.055 A 
HETATM    9  C10 UNK     1      18.200   1.363  34.018  1.00  0.00     0.041 A 
HETATM   10  C12 UNK     1      18.874  -0.413  32.523  1.00  0.00     0.069 A 
HETATM   11  C13 UNK     1      18.498   0.018  33.795  1.00  0.00     0.039 A 
ENDROOT
BRANCH   3  12
HETATM   12  C2  UNK     1      17.691   5.885  32.628  1.00  0.00     0.034 A 
HETATM   13  C5  UNK     1      18.584   6.687  33.345  1.00  0.00     0.114 A 
HETATM   14  C11 UNK     1      18.223   7.981  33.719  1.00  0.00     0.102 A 
HETATM   15  C15 UNK     1      16.966   8.480  33.378  1.00  0.00     0.040 A 
HETATM   16  C14 UNK     1      16.070   7.685  32.663  1.00  0.00     0.004 A 
HETATM   17  C9  UNK     1      16.433   6.390  32.288  1.00  0.00     0.017 A 
BRANCH  13  18
HETATM   18  O2  UNK     1      19.818   6.212  33.686  1.00  0.00    -0.352 OA
HETATM   19  C16 UNK     1      20.885   6.478  32.780  1.00  0.00     0.210 C 
ENDBRANCH  13  18
BRANCH  14  20
HETATM   20  O3  UNK     1      19.087   8.770  34.418  1.00  0.00    -0.353 OA
HETATM   21  C17 UNK     1      19.072  10.165  34.125  1.00  0.00     0.210 C 
ENDBRANCH  14  20
ENDBRANCH   3  12
BRANCH  10  22
HETATM   22  O4  UNK     1      19.164  -1.728  32.311  1.00  0.00    -0.356 OA
HETATM   23  C18 UNK     1      20.076  -2.030  31.257  1.00  0.00     0.210 C 
ENDBRANCH  10  22
TORSDOF 4
ENDMDL
MODEL 7
REMARK VINA RESULT:      -7.5      8.991     13.025
REMARK  4 active torsions:
REMARK  status: ('A' for Active; 'I' for Inactive)
REMARK    1  A    between atoms: C5_10  and  O2_2 
REMARK    2  A    between atoms: C11_16  and  O3_3 
REMARK    3  A    between atoms: C12_17  and  O4_4 
REMARK    4  A    between atoms: C1_6  and  C2_7 
ROOT
HETATM    1  O1  UNK     1      19.189  -3.240  37.602  1.00  0.00    -0.309 OA
HETATM    2  O5  UNK     1      20.412  -2.338  33.822  1.00  0.00    -0.287 OA
HETATM    3  C1  UNK     1      19.953  -4.123  36.854  1.00  0.00     0.093 A 
HETATM    4  C3  UNK     1      19.221  -1.669  35.750  1.00  0.00     0.051 A 
HETATM    5  C4  UNK     1      18.839  -2.039  37.038  1.00  0.00     0.090 A 
HETATM    6  C6  UNK     1      20.388  -3.878  35.608  1.00  0.00     0.094 A 
HETATM    7  C7  UNK     1      20.038  -2.599  34.956  1.00  0.00     0.187 A 
HETATM    8  C8  UNK     1      18.835  -0.432  35.226  1.00  0.00     0.055 A 
HETATM    9  C10 UNK     1      18.065  -1.174  37.811  1.00  0.00     0.041 A 
HETATM   10  C12 UNK     1      18.062   0.430  36.002  1.00  0.00     0.069 A 
HETATM   11  C13 UNK     1      17.677   0.062  37.292  1.00  0.00     0.039 A 
ENDROOT
BRANCH   3  12
HETATM   12  C2  UNK     1      20.280  -5.378  37.559  1.00  0.00     0.034 A 
HETATM   13  C5  UNK     1      19.380  -6.447  37.598  1.00  0.00     0.114 A 
HETATM   14  C11 UNK     1      19.712  -7.623  38.270  1.00  0.00     0.102 A 
HETATM   15  C15 UNK     1      20.948  -7.735  38.908  1.00  0.00     0.040 A 
HETATM   16  C14 UNK     1      21.850  -6.671  38.874  1.00  0.00     0.004 A 
HETATM   17  C9  UNK     1      21.517  -5.496  38.200  1.00  0.00     0.017 A 
BRANCH  13  18
HETATM   18  O2  UNK     1      18.168  -6.352  36.978  1.00  0.00    -0.352 OA
HETATM   19  C16 UNK     1      18.034  -7.001  35.717  1.00  0.00     0.210 C 
ENDBRANCH  13  18
BRANCH  14  20
HETATM   20  O3  UNK     1      18.842  -8.670  38.313  1.00  0.00    -0.353 OA
HETATM   21  C17 UNK     1      19.305  -9.919  37.805  1.00  0.00     0.210 C 
ENDBRANCH  14  20
ENDBRANCH   3  12
BRANCH  10  22
HETATM   22  O4  UNK     1      17.680   1.639  35.501  1.00  0.00    -0.356 OA
HETATM   23  C18 UNK     1      18.104   1.955  34.176  1.00  0.00     0.210 C 
ENDBRANCH  10  22
TORSDOF 4
ENDMDL
MODEL 8
REMARK VINA RESULT:      -7.3     24.093     25.836
REMARK  4 active torsions:
REMARK  status: ('A' for Active; 'I' for Inactive)
REMARK    1  A    between atoms: C5_10  and  O2_2 
REMARK    2  A    between atoms: C11_16  and  O3_3 
REMARK    3  A    between atoms: C12_17  and  O4_4 
REMARK    4  A    between atoms: C1_6  and  C2_7 
ROOT
HETATM    1  O1  UNK     1       7.632   4.580   9.080  1.00  0.00    -0.309 OA
HETATM    2  O5  UNK     1       6.241   7.603  11.432  1.00  0.00    -0.287 OA
HETATM    3  C1  UNK     1       8.113   5.875   8.962  1.00  0.00     0.093 A 
HETATM    4  C3  UNK     1       6.136   5.316  10.847  1.00  0.00     0.051 A 
HETATM    5  C4  UNK     1       6.657   4.328  10.012  1.00  0.00     0.090 A 
HETATM    6  C6  UNK     1       7.698   6.908   9.711  1.00  0.00     0.094 A 
HETATM    7  C7  UNK     1       6.650   6.689  10.730  1.00  0.00     0.187 A 
HETATM    8  C8  UNK     1       5.143   5.002  11.779  1.00  0.00     0.055 A 
HETATM    9  C10 UNK     1       6.187   3.018  10.105  1.00  0.00     0.041 A 
HETATM   10  C12 UNK     1       4.677   3.691  11.869  1.00  0.00     0.069 A 
HETATM   11  C13 UNK     1       5.197   2.700  11.034  1.00  0.00     0.039 A 
ENDROOT
BRANCH   3  12
HETATM   12  C2  UNK     1       9.164   6.032   7.936  1.00  0.00     0.034 A 
HETATM   13  C5  UNK     1      10.520   5.949   8.264  1.00  0.00     0.114 A 
HETATM   14  C11 UNK     1      11.494   6.101   7.276  1.00  0.00     0.102 A 
HETATM   15  C15 UNK     1      11.114   6.338   5.955  1.00  0.00     0.040 A 
HETATM   16  C14 UNK     1       9.762   6.423   5.622  1.00  0.00     0.004 A 
HETATM   17  C9  UNK     1       8.789   6.270   6.610  1.00  0.00     0.017 A 
BRANCH  13  18
HETATM   18  O2  UNK     1      10.906   5.717   9.552  1.00  0.00    -0.352 OA
HETATM   19  C16 UNK     1      11.005   4.355   9.962  1.00  0.00     0.210 C 
ENDBRANCH  13  18
BRANCH  14  20
HETATM   20  O3  UNK     1      12.818   6.020   7.587  1.00  0.00    -0.353 OA
HETATM   21  C17 UNK     1      13.522   7.250   7.741  1.00  0.00     0.210 C 
ENDBRANCH  14  20
ENDBRANCH   3  12
BRANCH  10  22
HETATM   22  O4  UNK     1       3.709   3.374  12.775  1.00  0.00    -0.356 OA
HETATM   23  C18 UNK     1       4.090   2.536  13.864  1.00  0.00     0.210 C 
ENDBRANCH  10  22
TORSDOF 4
ENDMDL
MODEL 9
REMARK VINA RESULT:      -7.3      2.048      3.066
REMARK  4 active torsions:
REMARK  status: ('A' for Active; 'I' for Inactive)
REMARK    1  A    between atoms: C5_10  and  O2_2 
REMARK    2  A    between atoms: C11_16  and  O3_3 
REMARK    3  A    between atoms: C12_17  and  O4_4 
REMARK    4  A    between atoms: C1_6  and  C2_7 
ROOT
HETATM    1  O1  UNK     1      18.319   4.555  34.234  1.00  0.00    -0.309 OA
HETATM    2  O5  UNK     1      18.256   3.034  30.455  1.00  0.00    -0.287 OA
HETATM    3  C1  UNK     1      18.285   5.378  33.119  1.00  0.00     0.093 A 
HETATM    4  C3  UNK     1      18.320   2.610  32.778  1.00  0.00     0.051 A 
HETATM    5  C4  UNK     1      18.338   3.196  34.043  1.00  0.00     0.090 A 
HETATM    6  C6  UNK     1      18.258   4.935  31.852  1.00  0.00     0.094 A 
HETATM    7  C7  UNK     1      18.277   3.480  31.593  1.00  0.00     0.187 A 
HETATM    8  C8  UNK     1      18.342   1.219  32.644  1.00  0.00     0.055 A 
HETATM    9  C10 UNK     1      18.378   2.393  35.183  1.00  0.00     0.041 A 
HETATM   10  C12 UNK     1      18.381   0.420  33.785  1.00  0.00     0.069 A 
HETATM   11  C13 UNK     1      18.399   1.004  35.053  1.00  0.00     0.039 A 
ENDROOT
BRANCH   3  12
HETATM   12  C2  UNK     1      18.259   6.819  33.438  1.00  0.00     0.034 A 
HETATM   13  C5  UNK     1      17.063   7.544  33.434  1.00  0.00     0.114 A 
HETATM   14  C11 UNK     1      17.064   8.905  33.739  1.00  0.00     0.102 A 
HETATM   15  C15 UNK     1      18.262   9.548  34.050  1.00  0.00     0.040 A 
HETATM   16  C14 UNK     1      19.459   8.830  34.056  1.00  0.00     0.004 A 
HETATM   17  C9  UNK     1      19.456   7.468  33.751  1.00  0.00     0.017 A 
BRANCH  13  18
HETATM   18  O2  UNK     1      15.883   6.928  33.131  1.00  0.00    -0.352 OA
HETATM   19  C16 UNK     1      15.324   7.196  31.849  1.00  0.00     0.210 C 
ENDBRANCH  13  18
BRANCH  14  20
HETATM   20  O3  UNK     1      15.904   9.619  33.737  1.00  0.00    -0.353 OA
HETATM   21  C17 UNK     1      15.285   9.852  35.001  1.00  0.00     0.210 C 
ENDBRANCH  14  20
ENDBRANCH   3  12
BRANCH  10  22
HETATM   22  O4  UNK     1      18.401  -0.937  33.664  1.00  0.00    -0.356 OA
HETATM   23  C18 UNK     1      19.096  -1.479  32.543  1.00  0.00     0.210 C 
ENDBRANCH  10  22
TORSDOF 4
ENDMDL
MODEL 10
REMARK VINA RESULT:      -7.1      1.683      7.536
REMARK  4 active torsions:
REMARK  status: ('A' for Active; 'I' for Inactive)
REMARK    1  A    between atoms: C5_10  and  O2_2 
REMARK    2  A    between atoms: C11_16  and  O3_3 
REMARK    3  A    between atoms: C12_17  and  O4_4 
REMARK    4  A    between atoms: C1_6  and  C2_7 
ROOT
HETATM    1  O1  UNK     1      17.150   5.208  32.133  1.00  0.00    -0.309 OA
HETATM    2  O5  UNK     1      20.421   7.316  33.338  1.00  0.00    -0.287 OA
HETATM    3  C1  UNK     1      18.437   4.783  31.842  1.00  0.00     0.093 A 
HETATM    4  C3  UNK     1      18.065   7.144  33.279  1.00  0.00     0.051 A 
HETATM    5  C4  UNK     1      16.990   6.374  32.839  1.00  0.00     0.090 A 
HETATM    6  C6  UNK     1      19.551   5.432  32.217  1.00  0.00     0.094 A 
HETATM    7  C7  UNK     1      19.432   6.693  32.979  1.00  0.00     0.187 A 
HETATM    8  C8  UNK     1      17.843   8.324  33.994  1.00  0.00     0.055 A 
HETATM    9  C10 UNK     1      15.684   6.780  33.111  1.00  0.00     0.041 A 
HETATM   10  C12 UNK     1      16.536   8.726  34.265  1.00  0.00     0.069 A 
HETATM   11  C13 UNK     1      15.458   7.957  33.825  1.00  0.00     0.039 A 
ENDROOT
BRANCH   3  12
HETATM   12  C2  UNK     1      18.494   3.515  31.088  1.00  0.00     0.034 A 
HETATM   13  C5  UNK     1      18.725   2.295  31.730  1.00  0.00     0.114 A 
HETATM   14  C11 UNK     1      18.774   1.111  30.995  1.00  0.00     0.102 A 
HETATM   15  C15 UNK     1      18.592   1.142  29.612  1.00  0.00     0.040 A 
HETATM   16  C14 UNK     1      18.361   2.356  28.965  1.00  0.00     0.004 A 
HETATM   17  C9  UNK     1      18.312   3.540  29.702  1.00  0.00     0.017 A 
BRANCH  13  18
HETATM   18  O2  UNK     1      18.905   2.250  33.082  1.00  0.00    -0.352 OA
HETATM   19  C16 UNK     1      17.789   1.842  33.869  1.00  0.00     0.210 C 
ENDBRANCH  13  18
BRANCH  14  20
HETATM   20  O3  UNK     1      18.999  -0.083  31.612  1.00  0.00    -0.353 OA
HETATM   21  C17 UNK     1      20.035  -0.903  31.078  1.00  0.00     0.210 C 
ENDBRANCH  14  20
ENDBRANCH   3  12
BRANCH  10  22
HETATM   22  O4  UNK     1      16.309   9.875  34.963  1.00  0.00    -0.356 OA
HETATM   23  C18 UNK     1      16.637  11.103  34.316  1.00  0.00     0.210 C 
ENDBRANCH  10  22
TORSDOF 4
ENDMDL
