MODEL 1
REMARK VINA RESULT:      -7.8      0.000      0.000
REMARK  9 active torsions:
REMARK  status: ('A' for Active; 'I' for Inactive)
REMARK    1  A    between atoms: C12_21  and  O2_2 
REMARK    2  A    between atoms: C14_23  and  O5_5 
REMARK    3  A    between atoms: C21_30  and  O5_5 
REMARK    4  A    between atoms: C25_34  and  O8_8 
REMARK    5  A    between atoms: C26_35  and  O8_8 
REMARK    6  A    between atoms: C12_21  and  C2_11 
REMARK    7  A    between atoms: C11_20  and  C6_15 
REMARK    8  A    between atoms: C14_23  and  C8_17 
REMARK    9  A    between atoms: C21_30  and  C25_34 
ROOT
HETATM    1  O1  UNK     1      29.168  -8.065  36.655  1.00  0.00    -0.292 OA
HETATM    2  N1  UNK     1      33.537  -6.242  36.503  1.00  0.00    -0.362 N 
HETATM    3  C1  UNK     1      30.524  -5.311  38.587  1.00  0.00     0.008 C 
HETATM    4  C2  UNK     1      29.800  -6.662  38.502  1.00  0.00     0.164 C 
HETATM    5  C3  UNK     1      32.017  -5.527  38.294  1.00  0.00     0.063 C 
HETATM    6  C4  UNK     1      31.343  -7.135  36.478  1.00  0.00     0.025 C 
HETATM    7  C5  UNK     1      32.271  -6.338  37.049  1.00  0.00     0.020 C 
HETATM    8  C6  UNK     1      31.636  -7.883  35.178  1.00  0.00     0.104 C 
HETATM    9  C7  UNK     1      30.020  -7.330  37.154  1.00  0.00     0.172 C 
HETATM   10  C8  UNK     1      33.120  -7.835  34.803  1.00  0.00     0.052 C 
HETATM   11  C9  UNK     1      29.928  -4.240  37.658  1.00  0.00     0.011 C 
HETATM   12  C10 UNK     1      33.984  -7.012  35.441  1.00  0.00     0.018 C 
HETATM   13  C13 UNK     1      35.442  -6.850  35.107  1.00  0.00     0.069 C 
HETATM   14  H9  UNK     1      34.205  -5.634  36.962  1.00  0.00     0.165 HD
ENDROOT
BRANCH   8  15
HETATM   15  C11 UNK     1      30.797  -7.335  34.051  1.00  0.00     0.029 A 
HETATM   16  C15 UNK     1      29.904  -8.266  33.314  1.00  0.00     0.194 A 
HETATM   17  O7  UNK     1      29.830  -9.455  33.594  1.00  0.00    -0.287 OA
HETATM   18  C17 UNK     1      29.107  -7.679  32.222  1.00  0.00     0.048 A 
HETATM   19  C18 UNK     1      29.232  -6.317  31.947  1.00  0.00     0.089 A 
HETATM   20  C19 UNK     1      28.239  -8.472  31.468  1.00  0.00     0.018 A 
HETATM   21  O4  UNK     1      30.069  -5.491  32.654  1.00  0.00    -0.321 OA
HETATM   22  C22 UNK     1      28.488  -5.741  30.917  1.00  0.00     0.038 A 
HETATM   23  C16 UNK     1      30.806  -6.051  33.669  1.00  0.00     0.154 A 
HETATM   24  C24 UNK     1      27.619  -6.530  30.163  1.00  0.00     0.003 A 
HETATM   25  C23 UNK     1      27.495  -7.893  30.439  1.00  0.00     0.001 A 
ENDBRANCH   8  15
BRANCH  10  26
HETATM   26  C14 UNK     1      33.568  -8.768  33.756  1.00  0.00     0.292 C 
HETATM   27  O6  UNK     1      33.830  -9.936  33.969  1.00  0.00    -0.259 OA
BRANCH  26  28
HETATM   28  O5  UNK     1      33.624  -8.096  32.581  1.00  0.00    -0.316 OA
BRANCH  28  29
HETATM   29  C21 UNK     1      33.574  -8.918  31.410  1.00  0.00     0.205 C 
BRANCH  29  30
HETATM   30  C25 UNK     1      32.375  -8.515  30.573  1.00  0.00     0.194 C 
BRANCH  30  31
HETATM   31  O8  UNK     1      32.296  -7.096  30.527  1.00  0.00    -0.389 OA
BRANCH  31  32
HETATM   32  C26 UNK     1      31.802  -6.642  29.275  1.00  0.00     0.163 C 
HETATM   33  C27 UNK     1      30.867  -7.688  28.705  1.00  0.00     0.033 C 
ENDBRANCH  31  32
ENDBRANCH  30  31
ENDBRANCH  29  30
ENDBRANCH  28  29
ENDBRANCH  26  28
ENDBRANCH  10  26
BRANCH   4  34
HETATM   34  C12 UNK     1      28.357  -6.516  38.876  1.00  0.00     0.270 C 
HETATM   35  O3  UNK     1      27.579  -5.752  38.321  1.00  0.00    -0.264 OA
BRANCH  34  36
HETATM   36  O2  UNK     1      28.067  -7.356  39.911  1.00  0.00    -0.326 OA
HETATM   37  C20 UNK     1      27.349  -8.542  39.557  1.00  0.00     0.213 C 
ENDBRANCH  34  36
ENDBRANCH   4  34
TORSDOF 9
ENDMDL
MODEL 2
REMARK VINA RESULT:      -7.7      1.585      1.981
REMARK  9 active torsions:
REMARK  status: ('A' for Active; 'I' for Inactive)
REMARK    1  A    between atoms: C12_21  and  O2_2 
REMARK    2  A    between atoms: C14_23  and  O5_5 
REMARK    3  A    between atoms: C21_30  and  O5_5 
REMARK    4  A    between atoms: C25_34  and  O8_8 
REMARK    5  A    between atoms: C26_35  and  O8_8 
REMARK    6  A    between atoms: C12_21  and  C2_11 
REMARK    7  A    between atoms: C11_20  and  C6_15 
REMARK    8  A    between atoms: C14_23  and  C8_17 
REMARK    9  A    between atoms: C21_30  and  C25_34 
ROOT
HETATM    1  O1  UNK     1      28.243  -9.386  36.784  1.00  0.00    -0.292 OA
HETATM    2  N1  UNK     1      31.294  -5.845  37.548  1.00  0.00    -0.362 N 
HETATM    3  C1  UNK     1      28.002  -6.693  39.201  1.00  0.00     0.008 C 
HETATM    4  C2  UNK     1      27.985  -8.187  38.852  1.00  0.00     0.164 C 
HETATM    5  C3  UNK     1      29.450  -6.183  39.134  1.00  0.00     0.063 C 
HETATM    6  C4  UNK     1      29.761  -7.586  37.067  1.00  0.00     0.025 C 
HETATM    7  C5  UNK     1      30.165  -6.575  37.867  1.00  0.00     0.020 C 
HETATM    8  C6  UNK     1      30.486  -7.897  35.759  1.00  0.00     0.104 C 
HETATM    9  C7  UNK     1      28.613  -8.451  37.493  1.00  0.00     0.172 C 
HETATM   10  C8  UNK     1      31.814  -7.143  35.639  1.00  0.00     0.052 C 
HETATM   11  C9  UNK     1      27.077  -5.848  38.311  1.00  0.00     0.011 C 
HETATM   12  C10 UNK     1      32.143  -6.149  36.495  1.00  0.00     0.018 C 
HETATM   13  C13 UNK     1      33.392  -5.313  36.424  1.00  0.00     0.069 C 
HETATM   14  H9  UNK     1      31.564  -5.095  38.173  1.00  0.00     0.165 HD
ENDROOT
BRANCH   8  15
HETATM   15  C11 UNK     1      29.603  -7.586  34.577  1.00  0.00     0.029 A 
HETATM   16  C15 UNK     1      29.502  -8.586  33.484  1.00  0.00     0.194 A 
HETATM   17  O7  UNK     1      30.110  -9.648  33.515  1.00  0.00    -0.287 OA
HETATM   18  C17 UNK     1      28.626  -8.231  32.352  1.00  0.00     0.048 A 
HETATM   19  C18 UNK     1      27.958  -7.007  32.369  1.00  0.00     0.089 A 
HETATM   20  C19 UNK     1      28.466  -9.105  31.274  1.00  0.00     0.018 A 
HETATM   21  O4  UNK     1      28.079  -6.111  33.401  1.00  0.00    -0.321 OA
HETATM   22  C22 UNK     1      27.125  -6.651  31.309  1.00  0.00     0.038 A 
HETATM   23  C16 UNK     1      28.898  -6.454  34.449  1.00  0.00     0.154 A 
HETATM   24  C24 UNK     1      26.962  -7.522  30.231  1.00  0.00     0.003 A 
HETATM   25  C23 UNK     1      27.631  -8.747  30.215  1.00  0.00     0.001 A 
ENDBRANCH   8  15
BRANCH  10  26
HETATM   26  C14 UNK     1      32.737  -7.593  34.583  1.00  0.00     0.292 C 
HETATM   27  O6  UNK     1      33.547  -8.486  34.740  1.00  0.00    -0.259 OA
BRANCH  26  28
HETATM   28  O5  UNK     1      32.508  -6.852  33.472  1.00  0.00    -0.316 OA
BRANCH  28  29
HETATM   29  C21 UNK     1      33.170  -7.312  32.290  1.00  0.00     0.205 C 
BRANCH  29  30
HETATM   30  C25 UNK     1      32.167  -7.381  31.155  1.00  0.00     0.194 C 
BRANCH  30  31
HETATM   31  O8  UNK     1      31.248  -6.303  31.282  1.00  0.00    -0.389 OA
BRANCH  31  32
HETATM   32  C26 UNK     1      30.600  -6.022  30.049  1.00  0.00     0.163 C 
HETATM   33  C27 UNK     1      30.857  -7.162  29.086  1.00  0.00     0.033 C 
ENDBRANCH  31  32
ENDBRANCH  30  31
ENDBRANCH  29  30
ENDBRANCH  28  29
ENDBRANCH  26  28
ENDBRANCH  10  26
BRANCH   4  34
HETATM   34  C12 UNK     1      26.605  -8.751  38.999  1.00  0.00     0.270 C 
HETATM   35  O3  UNK     1      25.629  -8.343  38.385  1.00  0.00    -0.264 OA
BRANCH  34  36
HETATM   36  O2  UNK     1      26.622  -9.768  39.908  1.00  0.00    -0.326 OA
HETATM   37  C20 UNK     1      27.921 -10.176  40.350  1.00  0.00     0.213 C 
ENDBRANCH  34  36
ENDBRANCH   4  34
TORSDOF 9
ENDMDL
MODEL 3
REMARK VINA RESULT:      -7.6      1.573      1.941
REMARK  9 active torsions:
REMARK  status: ('A' for Active; 'I' for Inactive)
REMARK    1  A    between atoms: C12_21  and  O2_2 
REMARK    2  A    between atoms: C14_23  and  O5_5 
REMARK    3  A    between atoms: C21_30  and  O5_5 
REMARK    4  A    between atoms: C25_34  and  O8_8 
REMARK    5  A    between atoms: C26_35  and  O8_8 
REMARK    6  A    between atoms: C12_21  and  C2_11 
REMARK    7  A    between atoms: C11_20  and  C6_15 
REMARK    8  A    between atoms: C14_23  and  C8_17 
REMARK    9  A    between atoms: C21_30  and  C25_34 
ROOT
HETATM    1  O1  UNK     1      29.800 -10.009  35.617  1.00  0.00    -0.292 OA
HETATM    2  N1  UNK     1      34.065  -7.949  35.640  1.00  0.00    -0.362 N 
HETATM    3  C1  UNK     1      31.304  -7.983  38.222  1.00  0.00     0.008 C 
HETATM    4  C2  UNK     1      30.614  -9.272  37.756  1.00  0.00     0.164 C 
HETATM    5  C3  UNK     1      32.756  -7.986  37.717  1.00  0.00     0.063 C 
HETATM    6  C4  UNK     1      31.910  -8.928  35.542  1.00  0.00     0.025 C 
HETATM    7  C5  UNK     1      32.879  -8.310  36.251  1.00  0.00     0.020 C 
HETATM    8  C6  UNK     1      32.063  -9.173  34.041  1.00  0.00     0.104 C 
HETATM    9  C7  UNK     1      30.685  -9.429  36.245  1.00  0.00     0.172 C 
HETATM   10  C8  UNK     1      33.488  -8.900  33.552  1.00  0.00     0.052 C 
HETATM   11  C9  UNK     1      30.570  -6.705  37.786  1.00  0.00     0.011 C 
HETATM   12  C10 UNK     1      34.400  -8.284  34.338  1.00  0.00     0.018 C 
HETATM   13  C13 UNK     1      35.802  -7.920  33.928  1.00  0.00     0.069 C 
HETATM   14  H9  UNK     1      34.767  -7.488  36.207  1.00  0.00     0.165 HD
ENDROOT
BRANCH   8  15
HETATM   15  C11 UNK     1      31.077  -8.335  33.266  1.00  0.00     0.029 A 
HETATM   16  C15 UNK     1      30.096  -9.024  32.389  1.00  0.00     0.194 A 
HETATM   17  O7  UNK     1      30.064 -10.243  32.280  1.00  0.00    -0.287 OA
HETATM   18  C17 UNK     1      29.157  -8.159  31.653  1.00  0.00     0.048 A 
HETATM   19  C18 UNK     1      29.239  -6.775  31.815  1.00  0.00     0.089 A 
HETATM   20  C19 UNK     1      28.197  -8.711  30.802  1.00  0.00     0.018 A 
HETATM   21  O4  UNK     1      30.162  -6.179  32.637  1.00  0.00    -0.321 OA
HETATM   22  C22 UNK     1      28.361  -5.938  31.128  1.00  0.00     0.038 A 
HETATM   23  C16 UNK     1      31.030  -6.997  33.317  1.00  0.00     0.154 A 
HETATM   24  C24 UNK     1      27.400  -6.487  30.278  1.00  0.00     0.003 A 
HETATM   25  C23 UNK     1      27.319  -7.871  30.116  1.00  0.00     0.001 A 
ENDBRANCH   8  15
BRANCH  10  26
HETATM   26  C14 UNK     1      33.831  -9.392  32.207  1.00  0.00     0.292 C 
HETATM   27  O6  UNK     1      34.230 -10.521  31.990  1.00  0.00    -0.259 OA
BRANCH  26  28
HETATM   28  O5  UNK     1      33.622  -8.391  31.319  1.00  0.00    -0.316 OA
BRANCH  28  29
HETATM   29  C21 UNK     1      34.426  -8.451  30.137  1.00  0.00     0.205 C 
BRANCH  29  30
HETATM   30  C25 UNK     1      33.577  -8.070  28.940  1.00  0.00     0.194 C 
BRANCH  30  31
HETATM   31  O8  UNK     1      32.714  -9.154  28.619  1.00  0.00    -0.389 OA
BRANCH  31  32
HETATM   32  C26 UNK     1      31.385  -8.710  28.385  1.00  0.00     0.163 C 
HETATM   33  C27 UNK     1      31.293  -7.234  28.711  1.00  0.00     0.033 C 
ENDBRANCH  31  32
ENDBRANCH  30  31
ENDBRANCH  29  30
ENDBRANCH  28  29
ENDBRANCH  26  28
ENDBRANCH  10  26
BRANCH   4  34
HETATM   34  C12 UNK     1      29.224  -9.359  38.307  1.00  0.00     0.270 C 
HETATM   35  O3  UNK     1      28.277  -8.710  37.884  1.00  0.00    -0.264 OA
BRANCH  34  36
HETATM   36  O2  UNK     1      29.195 -10.260  39.331  1.00  0.00    -0.326 OA
HETATM   37  C20 UNK     1      28.019 -10.225  40.147  1.00  0.00     0.213 C 
ENDBRANCH  34  36
ENDBRANCH   4  34
TORSDOF 9
ENDMDL
MODEL 4
REMARK VINA RESULT:      -7.6      2.331      6.066
REMARK  9 active torsions:
REMARK  status: ('A' for Active; 'I' for Inactive)
REMARK    1  A    between atoms: C12_21  and  O2_2 
REMARK    2  A    between atoms: C14_23  and  O5_5 
REMARK    3  A    between atoms: C21_30  and  O5_5 
REMARK    4  A    between atoms: C25_34  and  O8_8 
REMARK    5  A    between atoms: C26_35  and  O8_8 
REMARK    6  A    between atoms: C12_21  and  C2_11 
REMARK    7  A    between atoms: C11_20  and  C6_15 
REMARK    8  A    between atoms: C14_23  and  C8_17 
REMARK    9  A    between atoms: C21_30  and  C25_34 
ROOT
HETATM    1  O1  UNK     1      31.226  -5.496  34.715  1.00  0.00    -0.292 OA
HETATM    2  N1  UNK     1      30.709  -8.921  37.946  1.00  0.00    -0.362 N 
HETATM    3  C1  UNK     1      33.806  -7.438  36.365  1.00  0.00     0.008 C 
HETATM    4  C2  UNK     1      33.195  -6.090  35.960  1.00  0.00     0.164 C 
HETATM    5  C3  UNK     1      32.960  -8.050  37.493  1.00  0.00     0.063 C 
HETATM    6  C4  UNK     1      30.907  -7.262  36.266  1.00  0.00     0.025 C 
HETATM    7  C5  UNK     1      31.482  -8.054  37.197  1.00  0.00     0.020 C 
HETATM    8  C6  UNK     1      29.413  -7.356  35.962  1.00  0.00     0.104 C 
HETATM    9  C7  UNK     1      31.737  -6.237  35.554  1.00  0.00     0.172 C 
HETATM   10  C8  UNK     1      28.664  -8.207  36.992  1.00  0.00     0.052 C 
HETATM   11  C9  UNK     1      33.953  -8.419  35.191  1.00  0.00     0.011 C 
HETATM   12  C10 UNK     1      29.325  -8.963  37.898  1.00  0.00     0.018 C 
HETATM   13  C13 UNK     1      28.682  -9.876  38.908  1.00  0.00     0.069 C 
HETATM   14  H9  UNK     1      31.178  -9.498  38.634  1.00  0.00     0.165 HD
ENDROOT
BRANCH   8  15
HETATM   15  C11 UNK     1      29.190  -7.903  34.574  1.00  0.00     0.029 A 
HETATM   16  C15 UNK     1      28.321  -7.139  33.642  1.00  0.00     0.194 A 
HETATM   17  O7  UNK     1      27.787  -6.086  33.966  1.00  0.00    -0.287 OA
HETATM   18  C17 UNK     1      28.135  -7.718  32.300  1.00  0.00     0.048 A 
HETATM   19  C18 UNK     1      28.768  -8.921  31.985  1.00  0.00     0.089 A 
HETATM   20  C19 UNK     1      27.335  -7.076  31.351  1.00  0.00     0.018 A 
HETATM   21  O4  UNK     1      29.564  -9.595  32.877  1.00  0.00    -0.321 OA
HETATM   22  C22 UNK     1      28.605  -9.487  30.721  1.00  0.00     0.038 A 
HETATM   23  C16 UNK     1      29.728  -9.044  34.124  1.00  0.00     0.154 A 
HETATM   24  C24 UNK     1      27.807  -8.848  29.772  1.00  0.00     0.003 A 
HETATM   25  C23 UNK     1      27.175  -7.644  30.087  1.00  0.00     0.001 A 
ENDBRANCH   8  15
BRANCH  10  26
HETATM   26  C14 UNK     1      27.195  -8.117  36.982  1.00  0.00     0.292 C 
HETATM   27  O6  UNK     1      26.468  -9.071  36.779  1.00  0.00    -0.259 OA
BRANCH  26  28
HETATM   28  O5  UNK     1      26.844  -6.832  37.230  1.00  0.00    -0.316 OA
BRANCH  28  29
HETATM   29  C21 UNK     1      26.946  -6.431  38.600  1.00  0.00     0.205 C 
BRANCH  29  30
HETATM   30  C25 UNK     1      27.613  -5.071  38.669  1.00  0.00     0.194 C 
BRANCH  30  31
HETATM   31  O8  UNK     1      28.775  -5.164  39.483  1.00  0.00    -0.389 OA
BRANCH  31  32
HETATM   32  C26 UNK     1      29.624  -4.038  39.310  1.00  0.00     0.163 C 
HETATM   33  C27 UNK     1      30.077  -3.980  37.867  1.00  0.00     0.033 C 
ENDBRANCH  31  32
ENDBRANCH  30  31
ENDBRANCH  29  30
ENDBRANCH  28  29
ENDBRANCH  26  28
ENDBRANCH  10  26
BRANCH   4  34
HETATM   34  C12 UNK     1      34.043  -5.411  34.929  1.00  0.00     0.270 C 
HETATM   35  O3  UNK     1      34.236  -5.849  33.803  1.00  0.00    -0.264 OA
BRANCH  34  36
HETATM   36  O2  UNK     1      34.550  -4.254  35.445  1.00  0.00    -0.326 OA
HETATM   37  C20 UNK     1      34.545  -3.131  34.557  1.00  0.00     0.213 C 
ENDBRANCH  34  36
ENDBRANCH   4  34
TORSDOF 9
ENDMDL
MODEL 5
REMARK VINA RESULT:      -7.4      2.362      3.963
REMARK  9 active torsions:
REMARK  status: ('A' for Active; 'I' for Inactive)
REMARK    1  A    between atoms: C12_21  and  O2_2 
REMARK    2  A    between atoms: C14_23  and  O5_5 
REMARK    3  A    between atoms: C21_30  and  O5_5 
REMARK    4  A    between atoms: C25_34  and  O8_8 
REMARK    5  A    between atoms: C26_35  and  O8_8 
REMARK    6  A    between atoms: C12_21  and  C2_11 
REMARK    7  A    between atoms: C11_20  and  C6_15 
REMARK    8  A    between atoms: C14_23  and  C8_17 
REMARK    9  A    between atoms: C21_30  and  C25_34 
ROOT
HETATM    1  O1  UNK     1      29.176  -9.398  36.356  1.00  0.00    -0.292 OA
HETATM    2  N1  UNK     1      30.325  -4.958  37.537  1.00  0.00    -0.362 N 
HETATM    3  C1  UNK     1      27.799  -7.350  39.013  1.00  0.00     0.008 C 
HETATM    4  C2  UNK     1      28.448  -8.651  38.522  1.00  0.00     0.164 C 
HETATM    5  C3  UNK     1      28.862  -6.240  39.034  1.00  0.00     0.063 C 
HETATM    6  C4  UNK     1      29.729  -7.146  36.851  1.00  0.00     0.025 C 
HETATM    7  C5  UNK     1      29.651  -6.145  37.754  1.00  0.00     0.020 C 
HETATM    8  C6  UNK     1      30.491  -6.968  35.538  1.00  0.00     0.104 C 
HETATM    9  C7  UNK     1      29.101  -8.470  37.161  1.00  0.00     0.172 C 
HETATM   10  C8  UNK     1      31.336  -5.691  35.526  1.00  0.00     0.052 C 
HETATM   11  C9  UNK     1      26.575  -6.928  38.185  1.00  0.00     0.011 C 
HETATM   12  C10 UNK     1      31.200  -4.744  36.483  1.00  0.00     0.018 C 
HETATM   13  C13 UNK     1      31.938  -3.434  36.525  1.00  0.00     0.069 C 
HETATM   14  H9  UNK     1      30.243  -4.232  38.238  1.00  0.00     0.165 HD
ENDROOT
BRANCH   8  15
HETATM   15  C11 UNK     1      29.538  -6.973  34.369  1.00  0.00     0.029 A 
HETATM   16  C15 UNK     1      29.734  -7.984  33.299  1.00  0.00     0.194 A 
HETATM   17  O7  UNK     1      30.639  -8.807  33.339  1.00  0.00    -0.287 OA
HETATM   18  C17 UNK     1      28.777  -7.943  32.178  1.00  0.00     0.048 A 
HETATM   19  C18 UNK     1      27.765  -6.982  32.185  1.00  0.00     0.089 A 
HETATM   20  C19 UNK     1      28.878  -8.851  31.122  1.00  0.00     0.018 A 
HETATM   21  O4  UNK     1      27.619  -6.066  33.196  1.00  0.00    -0.321 OA
HETATM   22  C22 UNK     1      26.849  -6.925  31.134  1.00  0.00     0.038 A 
HETATM   23  C16 UNK     1      28.518  -6.115  34.233  1.00  0.00     0.154 A 
HETATM   24  C24 UNK     1      26.947  -7.831  30.078  1.00  0.00     0.003 A 
HETATM   25  C23 UNK     1      27.959  -8.793  30.073  1.00  0.00     0.001 A 
ENDBRANCH   8  15
BRANCH  10  26
HETATM   26  C14 UNK     1      32.341  -5.573  34.457  1.00  0.00     0.292 C 
HETATM   27  O6  UNK     1      32.147  -4.964  33.422  1.00  0.00    -0.259 OA
BRANCH  26  28
HETATM   28  O5  UNK     1      33.455  -6.240  34.842  1.00  0.00    -0.316 OA
BRANCH  28  29
HETATM   29  C21 UNK     1      34.633  -5.435  34.960  1.00  0.00     0.205 C 
BRANCH  29  30
HETATM   30  C25 UNK     1      35.355  -5.799  36.243  1.00  0.00     0.194 C 
BRANCH  30  31
HETATM   31  O8  UNK     1      34.423  -5.794  37.317  1.00  0.00    -0.389 OA
BRANCH  31  32
HETATM   32  C26 UNK     1      34.442  -7.024  38.029  1.00  0.00     0.163 C 
HETATM   33  C27 UNK     1      33.046  -7.609  38.040  1.00  0.00     0.033 C 
ENDBRANCH  31  32
ENDBRANCH  30  31
ENDBRANCH  29  30
ENDBRANCH  28  29
ENDBRANCH  26  28
ENDBRANCH  10  26
BRANCH   4  34
HETATM   34  C12 UNK     1      27.472  -9.786  38.577  1.00  0.00     0.270 C 
HETATM   35  O3  UNK     1      27.578 -10.745  39.329  1.00  0.00    -0.264 OA
BRANCH  34  36
HETATM   36  O2  UNK     1      26.473  -9.573  37.673  1.00  0.00    -0.326 OA
HETATM   37  C20 UNK     1      26.107 -10.709  36.883  1.00  0.00     0.213 C 
ENDBRANCH  34  36
ENDBRANCH   4  34
TORSDOF 9
ENDMDL
MODEL 6
REMARK VINA RESULT:      -7.4      2.266      6.735
REMARK  9 active torsions:
REMARK  status: ('A' for Active; 'I' for Inactive)
REMARK    1  A    between atoms: C12_21  and  O2_2 
REMARK    2  A    between atoms: C14_23  and  O5_5 
REMARK    3  A    between atoms: C21_30  and  O5_5 
REMARK    4  A    between atoms: C25_34  and  O8_8 
REMARK    5  A    between atoms: C26_35  and  O8_8 
REMARK    6  A    between atoms: C12_21  and  C2_11 
REMARK    7  A    between atoms: C11_20  and  C6_15 
REMARK    8  A    between atoms: C14_23  and  C8_17 
REMARK    9  A    between atoms: C21_30  and  C25_34 
ROOT
HETATM    1  O1  UNK     1      30.259  -9.237  31.839  1.00  0.00    -0.292 OA
HETATM    2  N1  UNK     1      28.198  -6.440  35.058  1.00  0.00    -0.362 N 
HETATM    3  C1  UNK     1      27.916  -6.524  31.290  1.00  0.00     0.008 C 
HETATM    4  C2  UNK     1      28.349  -7.983  31.092  1.00  0.00     0.164 C 
HETATM    5  C3  UNK     1      27.417  -6.344  32.732  1.00  0.00     0.063 C 
HETATM    6  C4  UNK     1      29.321  -7.810  33.484  1.00  0.00     0.025 C 
HETATM    7  C5  UNK     1      28.362  -6.901  33.765  1.00  0.00     0.020 C 
HETATM    8  C6  UNK     1      30.294  -8.290  34.560  1.00  0.00     0.104 C 
HETATM    9  C7  UNK     1      29.402  -8.396  32.108  1.00  0.00     0.172 C 
HETATM   10  C8  UNK     1      29.872  -7.847  35.964  1.00  0.00     0.052 C 
HETATM   11  C9  UNK     1      29.021  -5.509  30.957  1.00  0.00     0.011 C 
HETATM   12  C10 UNK     1      28.889  -6.937  36.152  1.00  0.00     0.018 C 
HETATM   13  C13 UNK     1      28.444  -6.396  37.484  1.00  0.00     0.069 C 
HETATM   14  H9  UNK     1      27.467  -5.759  35.228  1.00  0.00     0.165 HD
ENDROOT
BRANCH   8  15
HETATM   15  C11 UNK     1      31.692  -7.808  34.261  1.00  0.00     0.029 A 
HETATM   16  C15 UNK     1      32.775  -8.815  34.127  1.00  0.00     0.194 A 
HETATM   17  O7  UNK     1      32.568 -10.015  34.250  1.00  0.00    -0.287 OA
HETATM   18  C17 UNK     1      34.122  -8.291  33.836  1.00  0.00     0.048 A 
HETATM   19  C18 UNK     1      34.301  -6.914  33.707  1.00  0.00     0.089 A 
HETATM   20  C19 UNK     1      35.208  -9.158  33.693  1.00  0.00     0.018 A 
HETATM   21  O4  UNK     1      33.271  -6.017  33.838  1.00  0.00    -0.321 OA
HETATM   22  C22 UNK     1      35.567  -6.396  33.432  1.00  0.00     0.038 A 
HETATM   23  C16 UNK     1      32.022  -6.519  34.109  1.00  0.00     0.154 A 
HETATM   24  C24 UNK     1      36.654  -7.259  33.288  1.00  0.00     0.003 A 
HETATM   25  C23 UNK     1      36.473  -8.638  33.418  1.00  0.00     0.001 A 
ENDBRANCH   8  15
BRANCH  10  26
HETATM   26  C14 UNK     1      30.549  -8.502  37.096  1.00  0.00     0.292 C 
HETATM   27  O6  UNK     1      30.419  -9.682  37.360  1.00  0.00    -0.259 OA
BRANCH  26  28
HETATM   28  O5  UNK     1      31.299  -7.575  37.739  1.00  0.00    -0.316 OA
BRANCH  28  29
HETATM   29  C21 UNK     1      32.685  -7.905  37.873  1.00  0.00     0.205 C 
BRANCH  29  30
HETATM   30  C25 UNK     1      33.520  -6.687  37.527  1.00  0.00     0.194 C 
BRANCH  30  31
HETATM   31  O8  UNK     1      32.881  -5.525  38.041  1.00  0.00    -0.389 OA
BRANCH  31  32
HETATM   32  C26 UNK     1      32.703  -4.539  37.033  1.00  0.00     0.163 C 
HETATM   33  C27 UNK     1      31.262  -4.074  37.047  1.00  0.00     0.033 C 
ENDBRANCH  31  32
ENDBRANCH  30  31
ENDBRANCH  29  30
ENDBRANCH  28  29
ENDBRANCH  26  28
ENDBRANCH  10  26
BRANCH   4  34
HETATM   34  C12 UNK     1      28.752  -8.229  29.670  1.00  0.00     0.270 C 
HETATM   35  O3  UNK     1      29.644  -7.620  29.095  1.00  0.00    -0.264 OA
BRANCH  34  36
HETATM   36  O2  UNK     1      27.978  -9.220  29.141  1.00  0.00    -0.326 OA
HETATM   37  C20 UNK     1      28.659 -10.141  28.283  1.00  0.00     0.213 C 
ENDBRANCH  34  36
ENDBRANCH   4  34
TORSDOF 9
ENDMDL
MODEL 7
REMARK VINA RESULT:      -7.3      1.087      1.936
REMARK  9 active torsions:
REMARK  status: ('A' for Active; 'I' for Inactive)
REMARK    1  A    between atoms: C12_21  and  O2_2 
REMARK    2  A    between atoms: C14_23  and  O5_5 
REMARK    3  A    between atoms: C21_30  and  O5_5 
REMARK    4  A    between atoms: C25_34  and  O8_8 
REMARK    5  A    between atoms: C26_35  and  O8_8 
REMARK    6  A    between atoms: C12_21  and  C2_11 
REMARK    7  A    between atoms: C11_20  and  C6_15 
REMARK    8  A    between atoms: C14_23  and  C8_17 
REMARK    9  A    between atoms: C21_30  and  C25_34 
ROOT
HETATM    1  O1  UNK     1      29.049  -8.308  36.644  1.00  0.00    -0.292 OA
HETATM    2  N1  UNK     1      33.397  -6.437  36.473  1.00  0.00    -0.362 N 
HETATM    3  C1  UNK     1      30.397  -5.570  38.603  1.00  0.00     0.008 C 
HETATM    4  C2  UNK     1      29.687  -6.927  38.506  1.00  0.00     0.164 C 
HETATM    5  C3  UNK     1      31.889  -5.766  38.291  1.00  0.00     0.063 C 
HETATM    6  C4  UNK     1      31.212  -7.353  36.458  1.00  0.00     0.025 C 
HETATM    7  C5  UNK     1      32.138  -6.555  37.032  1.00  0.00     0.020 C 
HETATM    8  C6  UNK     1      31.498  -8.078  35.145  1.00  0.00     0.104 C 
HETATM    9  C7  UNK     1      29.898  -7.572  37.145  1.00  0.00     0.172 C 
HETATM   10  C8  UNK     1      32.978  -8.009  34.754  1.00  0.00     0.052 C 
HETATM   11  C9  UNK     1      29.780  -4.491  37.698  1.00  0.00     0.011 C 
HETATM   12  C10 UNK     1      33.840  -7.187  35.395  1.00  0.00     0.018 C 
HETATM   13  C13 UNK     1      35.293  -7.005  35.048  1.00  0.00     0.069 C 
HETATM   14  H9  UNK     1      34.064  -5.829  36.934  1.00  0.00     0.165 HD
ENDROOT
BRANCH   8  15
HETATM   15  C11 UNK     1      30.641  -7.522  34.035  1.00  0.00     0.029 A 
HETATM   16  C15 UNK     1      29.807  -8.463  33.244  1.00  0.00     0.194 A 
HETATM   17  O7  UNK     1      29.795  -9.666  33.466  1.00  0.00    -0.287 OA
HETATM   18  C17 UNK     1      28.990  -7.867  32.171  1.00  0.00     0.048 A 
HETATM   19  C18 UNK     1      29.043  -6.488  31.963  1.00  0.00     0.089 A 
HETATM   20  C19 UNK     1      28.173  -8.668  31.370  1.00  0.00     0.018 A 
HETATM   21  O4  UNK     1      29.828  -5.655  32.719  1.00  0.00    -0.321 OA
HETATM   22  C22 UNK     1      28.279  -5.904  30.953  1.00  0.00     0.038 A 
HETATM   23  C16 UNK     1      30.585  -6.223  33.714  1.00  0.00     0.154 A 
HETATM   24  C24 UNK     1      27.461  -6.701  30.152  1.00  0.00     0.003 A 
HETATM   25  C23 UNK     1      27.408  -8.081  30.361  1.00  0.00     0.001 A 
ENDBRANCH   8  15
BRANCH  10  26
HETATM   26  C14 UNK     1      33.424  -8.921  33.688  1.00  0.00     0.292 C 
HETATM   27  O6  UNK     1      33.779 -10.066  33.894  1.00  0.00    -0.259 OA
BRANCH  26  28
HETATM   28  O5  UNK     1      33.361  -8.261  32.507  1.00  0.00    -0.316 OA
BRANCH  28  29
HETATM   29  C21 UNK     1      34.147  -8.827  31.454  1.00  0.00     0.205 C 
BRANCH  29  30
HETATM   30  C25 UNK     1      35.191  -7.817  31.017  1.00  0.00     0.194 C 
BRANCH  30  31
HETATM   31  O8  UNK     1      36.367  -7.998  31.796  1.00  0.00    -0.389 OA
BRANCH  31  32
HETATM   32  C26 UNK     1      36.728  -9.370  31.882  1.00  0.00     0.163 C 
HETATM   33  C27 UNK     1      37.333  -9.635  33.244  1.00  0.00     0.033 C 
ENDBRANCH  31  32
ENDBRANCH  30  31
ENDBRANCH  29  30
ENDBRANCH  28  29
ENDBRANCH  26  28
ENDBRANCH  10  26
BRANCH   4  34
HETATM   34  C12 UNK     1      28.246  -6.801  38.897  1.00  0.00     0.270 C 
HETATM   35  O3  UNK     1      27.476  -5.980  38.421  1.00  0.00    -0.264 OA
BRANCH  34  36
HETATM   36  O2  UNK     1      27.949  -7.733  39.849  1.00  0.00    -0.326 OA
HETATM   37  C20 UNK     1      27.001  -8.731  39.457  1.00  0.00     0.213 C 
ENDBRANCH  34  36
ENDBRANCH   4  34
TORSDOF 9
ENDMDL
MODEL 8
REMARK VINA RESULT:      -7.3      1.215      1.663
REMARK  9 active torsions:
REMARK  status: ('A' for Active; 'I' for Inactive)
REMARK    1  A    between atoms: C12_21  and  O2_2 
REMARK    2  A    between atoms: C14_23  and  O5_5 
REMARK    3  A    between atoms: C21_30  and  O5_5 
REMARK    4  A    between atoms: C25_34  and  O8_8 
REMARK    5  A    between atoms: C26_35  and  O8_8 
REMARK    6  A    between atoms: C12_21  and  C2_11 
REMARK    7  A    between atoms: C11_20  and  C6_15 
REMARK    8  A    between atoms: C14_23  and  C8_17 
REMARK    9  A    between atoms: C21_30  and  C25_34 
ROOT
HETATM    1  O1  UNK     1      29.304  -7.933  36.622  1.00  0.00    -0.292 OA
HETATM    2  N1  UNK     1      33.642  -6.034  36.547  1.00  0.00    -0.362 N 
HETATM    3  C1  UNK     1      30.589  -5.182  38.606  1.00  0.00     0.008 C 
HETATM    4  C2  UNK     1      29.890  -6.544  38.495  1.00  0.00     0.164 C 
HETATM    5  C3  UNK     1      32.089  -5.369  38.329  1.00  0.00     0.063 C 
HETATM    6  C4  UNK     1      31.464  -6.963  36.484  1.00  0.00     0.025 C 
HETATM    7  C5  UNK     1      32.372  -6.159  37.077  1.00  0.00     0.020 C 
HETATM    8  C6  UNK     1      31.785  -7.689  35.178  1.00  0.00     0.104 C 
HETATM    9  C7  UNK     1      30.137  -7.190  37.141  1.00  0.00     0.172 C 
HETATM   10  C8  UNK     1      33.273  -7.611  34.822  1.00  0.00     0.052 C 
HETATM   11  C9  UNK     1      29.986  -4.109  37.685  1.00  0.00     0.011 C 
HETATM   12  C10 UNK     1      34.115  -6.783  35.481  1.00  0.00     0.018 C 
HETATM   13  C13 UNK     1      35.574  -6.591  35.167  1.00  0.00     0.069 C 
HETATM   14  H9  UNK     1      34.295  -5.421  37.022  1.00  0.00     0.165 HD
ENDROOT
BRANCH   8  15
HETATM   15  C11 UNK     1      30.951  -7.141  34.049  1.00  0.00     0.029 A 
HETATM   16  C15 UNK     1      29.988  -8.048  33.373  1.00  0.00     0.194 A 
HETATM   17  O7  UNK     1      29.853  -9.218  33.705  1.00  0.00    -0.287 OA
HETATM   18  C17 UNK     1      29.199  -7.462  32.275  1.00  0.00     0.048 A 
HETATM   19  C18 UNK     1      29.393  -6.121  31.939  1.00  0.00     0.089 A 
HETATM   20  C19 UNK     1      28.268  -8.233  31.576  1.00  0.00     0.018 A 
HETATM   21  O4  UNK     1      30.294  -5.317  32.591  1.00  0.00    -0.321 OA
HETATM   22  C22 UNK     1      28.658  -5.546  30.903  1.00  0.00     0.038 A 
HETATM   23  C16 UNK     1      31.023  -5.876  33.611  1.00  0.00     0.154 A 
HETATM   24  C24 UNK     1      27.726  -6.315  30.203  1.00  0.00     0.003 A 
HETATM   25  C23 UNK     1      27.532  -7.655  30.540  1.00  0.00     0.001 A 
ENDBRANCH   8  15
BRANCH  10  26
HETATM   26  C14 UNK     1      33.750  -8.522  33.768  1.00  0.00     0.292 C 
HETATM   27  O6  UNK     1      34.165  -8.138  32.691  1.00  0.00    -0.259 OA
BRANCH  26  28
HETATM   28  O5  UNK     1      33.636  -9.794  34.220  1.00  0.00    -0.316 OA
BRANCH  28  29
HETATM   29  C21 UNK     1      33.800 -10.808  33.222  1.00  0.00     0.205 C 
BRANCH  29  30
HETATM   30  C25 UNK     1      32.433 -11.267  32.754  1.00  0.00     0.194 C 
BRANCH  30  31
HETATM   31  O8  UNK     1      32.169 -10.708  31.473  1.00  0.00    -0.389 OA
BRANCH  31  32
HETATM   32  C26 UNK     1      30.896 -11.106  30.983  1.00  0.00     0.163 C 
HETATM   33  C27 UNK     1      30.341 -12.193  31.879  1.00  0.00     0.033 C 
ENDBRANCH  31  32
ENDBRANCH  30  31
ENDBRANCH  29  30
ENDBRANCH  28  29
ENDBRANCH  26  28
ENDBRANCH  10  26
BRANCH   4  34
HETATM   34  C12 UNK     1      28.440  -6.427  38.853  1.00  0.00     0.270 C 
HETATM   35  O3  UNK     1      27.659  -5.660  38.307  1.00  0.00    -0.264 OA
BRANCH  34  36
HETATM   36  O2  UNK     1      28.148  -7.297  39.862  1.00  0.00    -0.326 OA
HETATM   37  C20 UNK     1      27.375  -8.441  39.484  1.00  0.00     0.213 C 
ENDBRANCH  34  36
ENDBRANCH   4  34
TORSDOF 9
ENDMDL
MODEL 9
REMARK VINA RESULT:      -7.3      2.305      6.954
REMARK  9 active torsions:
REMARK  status: ('A' for Active; 'I' for Inactive)
REMARK    1  A    between atoms: C12_21  and  O2_2 
REMARK    2  A    between atoms: C14_23  and  O5_5 
REMARK    3  A    between atoms: C21_30  and  O5_5 
REMARK    4  A    between atoms: C25_34  and  O8_8 
REMARK    5  A    between atoms: C26_35  and  O8_8 
REMARK    6  A    between atoms: C12_21  and  C2_11 
REMARK    7  A    between atoms: C11_20  and  C6_15 
REMARK    8  A    between atoms: C14_23  and  C8_17 
REMARK    9  A    between atoms: C21_30  and  C25_34 
ROOT
HETATM    1  O1  UNK     1      30.232  -9.232  31.960  1.00  0.00    -0.292 OA
HETATM    2  N1  UNK     1      28.352  -6.304  35.173  1.00  0.00    -0.362 N 
HETATM    3  C1  UNK     1      27.918  -6.492  31.423  1.00  0.00     0.008 C 
HETATM    4  C2  UNK     1      28.316  -7.964  31.251  1.00  0.00     0.164 C 
HETATM    5  C3  UNK     1      27.480  -6.261  32.878  1.00  0.00     0.063 C 
HETATM    6  C4  UNK     1      29.386  -7.740  33.597  1.00  0.00     0.025 C 
HETATM    7  C5  UNK     1      28.456  -6.805  33.889  1.00  0.00     0.020 C 
HETATM    8  C6  UNK     1      30.393  -8.207  34.647  1.00  0.00     0.104 C 
HETATM    9  C7  UNK     1      29.401  -8.367  32.237  1.00  0.00     0.172 C 
HETATM   10  C8  UNK     1      30.035  -7.716  36.053  1.00  0.00     0.052 C 
HETATM   11  C9  UNK     1      29.026  -5.508  31.016  1.00  0.00     0.011 C 
HETATM   12  C10 UNK     1      29.077  -6.782  36.253  1.00  0.00     0.018 C 
HETATM   13  C13 UNK     1      28.696  -6.194  37.585  1.00  0.00     0.069 C 
HETATM   14  H9  UNK     1      27.641  -5.605  35.351  1.00  0.00     0.165 HD
ENDROOT
BRANCH   8  15
HETATM   15  C11 UNK     1      31.786  -7.761  34.279  1.00  0.00     0.029 A 
HETATM   16  C15 UNK     1      32.842  -8.794  34.122  1.00  0.00     0.194 A 
HETATM   17  O7  UNK     1      32.616  -9.986  34.281  1.00  0.00    -0.287 OA
HETATM   18  C17 UNK     1      34.186  -8.304  33.764  1.00  0.00     0.048 A 
HETATM   19  C18 UNK     1      34.387  -6.933  33.596  1.00  0.00     0.089 A 
HETATM   20  C19 UNK     1      35.247  -9.196  33.595  1.00  0.00     0.018 A 
HETATM   21  O4  UNK     1      33.381  -6.013  33.750  1.00  0.00    -0.321 OA
HETATM   22  C22 UNK     1      35.650  -6.448  33.257  1.00  0.00     0.038 A 
HETATM   23  C16 UNK     1      32.135  -6.483  34.084  1.00  0.00     0.154 A 
HETATM   24  C24 UNK     1      36.712  -7.337  33.087  1.00  0.00     0.003 A 
HETATM   25  C23 UNK     1      36.510  -8.708  33.255  1.00  0.00     0.001 A 
ENDBRANCH   8  15
BRANCH  10  26
HETATM   26  C14 UNK     1      30.745  -8.350  37.176  1.00  0.00     0.292 C 
HETATM   27  O6  UNK     1      31.634  -7.802  37.800  1.00  0.00    -0.259 OA
BRANCH  26  28
HETATM   28  O5  UNK     1      30.234  -9.591  37.359  1.00  0.00    -0.316 OA
BRANCH  28  29
HETATM   29  C21 UNK     1      29.996  -9.954  38.723  1.00  0.00     0.205 C 
BRANCH  29  30
HETATM   30  C25 UNK     1      28.605  -9.499  39.121  1.00  0.00     0.194 C 
BRANCH  30  31
HETATM   31  O8  UNK     1      27.645 -10.352  38.510  1.00  0.00    -0.389 OA
BRANCH  31  32
HETATM   32  C26 UNK     1      26.697  -9.612  37.753  1.00  0.00     0.163 C 
HETATM   33  C27 UNK     1      26.956  -9.840  36.279  1.00  0.00     0.033 C 
ENDBRANCH  31  32
ENDBRANCH  30  31
ENDBRANCH  29  30
ENDBRANCH  28  29
ENDBRANCH  26  28
ENDBRANCH  10  26
BRANCH   4  34
HETATM   34  C12 UNK     1      28.657  -8.259  29.823  1.00  0.00     0.270 C 
HETATM   35  O3  UNK     1      29.532  -7.679  29.194  1.00  0.00    -0.264 OA
BRANCH  34  36
HETATM   36  O2  UNK     1      27.851  -9.255  29.357  1.00  0.00    -0.326 OA
HETATM   37  C20 UNK     1      28.420 -10.081  28.336  1.00  0.00     0.213 C 
ENDBRANCH  34  36
ENDBRANCH   4  34
TORSDOF 9
ENDMDL
MODEL 10
REMARK VINA RESULT:      -7.1      1.436      1.770
REMARK  9 active torsions:
REMARK  status: ('A' for Active; 'I' for Inactive)
REMARK    1  A    between atoms: C12_21  and  O2_2 
REMARK    2  A    between atoms: C14_23  and  O5_5 
REMARK    3  A    between atoms: C21_30  and  O5_5 
REMARK    4  A    between atoms: C25_34  and  O8_8 
REMARK    5  A    between atoms: C26_35  and  O8_8 
REMARK    6  A    between atoms: C12_21  and  C2_11 
REMARK    7  A    between atoms: C11_20  and  C6_15 
REMARK    8  A    between atoms: C14_23  and  C8_17 
REMARK    9  A    between atoms: C21_30  and  C25_34 
ROOT
HETATM    1  O1  UNK     1      29.965  -7.390  36.354  1.00  0.00    -0.292 OA
HETATM    2  N1  UNK     1      34.530  -7.204  35.105  1.00  0.00    -0.362 N 
HETATM    3  C1  UNK     1      32.498  -5.030  37.437  1.00  0.00     0.008 C 
HETATM    4  C2  UNK     1      31.395  -6.052  37.748  1.00  0.00     0.164 C 
HETATM    5  C3  UNK     1      33.747  -5.780  36.946  1.00  0.00     0.063 C 
HETATM    6  C4  UNK     1      32.221  -7.290  35.630  1.00  0.00     0.025 C 
HETATM    7  C5  UNK     1      33.453  -6.789  35.865  1.00  0.00     0.020 C 
HETATM    8  C6  UNK     1      31.970  -8.261  34.478  1.00  0.00     0.104 C 
HETATM    9  C7  UNK     1      31.090  -6.929  36.545  1.00  0.00     0.172 C 
HETATM   10  C8  UNK     1      33.273  -8.772  33.856  1.00  0.00     0.052 C 
HETATM   11  C9  UNK     1      32.066  -3.956  36.426  1.00  0.00     0.011 C 
HETATM   12  C10 UNK     1      34.468  -8.216  34.161  1.00  0.00     0.018 C 
HETATM   13  C13 UNK     1      35.791  -8.607  33.560  1.00  0.00     0.069 C 
HETATM   14  H9  UNK     1      35.438  -6.804  35.313  1.00  0.00     0.165 HD
ENDROOT
BRANCH   8  15
HETATM   15  C11 UNK     1      31.108  -7.616  33.421  1.00  0.00     0.029 A 
HETATM   16  C15 UNK     1      29.866  -8.312  32.998  1.00  0.00     0.194 A 
HETATM   17  O7  UNK     1      29.524  -9.384  33.479  1.00  0.00    -0.287 OA
HETATM   18  C17 UNK     1      29.061  -7.639  31.962  1.00  0.00     0.048 A 
HETATM   19  C18 UNK     1      29.499  -6.418  31.449  1.00  0.00     0.089 A 
HETATM   20  C19 UNK     1      27.877  -8.213  31.496  1.00  0.00     0.018 A 
HETATM   21  O4  UNK     1      30.654  -5.808  31.869  1.00  0.00    -0.321 OA
HETATM   22  C22 UNK     1      28.754  -5.764  30.467  1.00  0.00     0.038 A 
HETATM   23  C16 UNK     1      31.394  -6.446  32.835  1.00  0.00     0.154 A 
HETATM   24  C24 UNK     1      27.569  -6.335  30.001  1.00  0.00     0.003 A 
HETATM   25  C23 UNK     1      27.132  -7.557  30.515  1.00  0.00     0.001 A 
ENDBRANCH   8  15
BRANCH  10  26
HETATM   26  C14 UNK     1      33.166  -9.934  32.957  1.00  0.00     0.292 C 
HETATM   27  O6  UNK     1      33.063 -11.079  33.355  1.00  0.00    -0.259 OA
BRANCH  26  28
HETATM   28  O5  UNK     1      33.203  -9.489  31.678  1.00  0.00    -0.316 OA
BRANCH  28  29
HETATM   29  C21 UNK     1      32.179 -10.013  30.825  1.00  0.00     0.205 C 
BRANCH  29  30
HETATM   30  C25 UNK     1      32.107  -9.172  29.565  1.00  0.00     0.194 C 
BRANCH  30  31
HETATM   31  O8  UNK     1      30.742  -8.946  29.236  1.00  0.00    -0.389 OA
BRANCH  31  32
HETATM   32  C26 UNK     1      30.318  -9.780  28.167  1.00  0.00     0.163 C 
HETATM   33  C27 UNK     1      28.838 -10.061  28.318  1.00  0.00     0.033 C 
ENDBRANCH  31  32
ENDBRANCH  30  31
ENDBRANCH  29  30
ENDBRANCH  28  29
ENDBRANCH  26  28
ENDBRANCH  10  26
BRANCH   4  34
HETATM   34  C12 UNK     1      30.190  -5.374  38.323  1.00  0.00     0.270 C 
HETATM   35  O3  UNK     1      29.859  -4.226  38.060  1.00  0.00    -0.264 OA
BRANCH  34  36
HETATM   36  O2  UNK     1      29.542  -6.230  39.164  1.00  0.00    -0.326 OA
HETATM   37  C20 UNK     1      28.113  -6.157  39.136  1.00  0.00     0.213 C 
ENDBRANCH  34  36
ENDBRANCH   4  34
TORSDOF 9
ENDMDL
