MODEL 1
REMARK VINA RESULT:      -9.0      0.000      0.000
REMARK  6 active torsions:
REMARK  status: ('A' for Active; 'I' for Inactive)
REMARK    1  A    between atoms: C10_14  and  O2_2 
REMARK    2  A    between atoms: C13_17  and  O2_2 
REMARK    3  A    between atoms: C3_7  and  C5_9 
REMARK    4  A    between atoms: C12_16  and  C5_9 
REMARK    5  A    between atoms: C13_17  and  C14_18 
REMARK    6  A    between atoms: C14_18  and  C15_19 
ROOT
HETATM    1  O1  UNK     1      16.513   7.544  32.301  1.00  0.00    -0.274 OA
HETATM    2  O3  UNK     1      15.131   9.167  33.080  1.00  0.00    -0.259 OA
HETATM    3  C1  UNK     1      18.857   7.512  32.950  1.00  0.00     0.005 A 
HETATM    4  C2  UNK     1      18.628   8.717  33.773  1.00  0.00    -0.036 A 
HETATM    5  C3  UNK     1      17.402   9.282  33.793  1.00  0.00     0.028 A 
HETATM    6  C4  UNK     1      17.790   6.966  32.243  1.00  0.00     0.092 A 
HETATM    7  C6  UNK     1      20.102   6.875  32.822  1.00  0.00     0.017 A 
HETATM    8  C7  UNK     1      17.921   5.828  31.442  1.00  0.00     0.075 A 
HETATM    9  C8  UNK     1      16.259   8.683  33.044  1.00  0.00     0.295 A 
HETATM   10  C9  UNK     1      19.801   9.236  34.566  1.00  0.00     0.050 C 
HETATM   11  C10 UNK     1      19.162   5.211  31.334  1.00  0.00     0.072 A 
HETATM   12  C11 UNK     1      20.252   5.735  32.023  1.00  0.00     0.038 A 
ENDROOT
BRANCH  11  13
HETATM   13  O2  UNK     1      19.310   4.103  30.559  1.00  0.00    -0.344 OA
BRANCH  13  14
HETATM   14  C13 UNK     1      18.221   3.182  30.527  1.00  0.00     0.259 C 
BRANCH  14  15
HETATM   15  C14 UNK     1      18.406   2.196  29.389  1.00  0.00     0.183 C 
HETATM   16  O4  UNK     1      17.988   2.432  28.257  1.00  0.00    -0.290 OA
BRANCH  15  17
HETATM   17  C15 UNK     1      19.114   0.912  29.661  1.00  0.00     0.012 A 
HETATM   18  C16 UNK     1      19.487   0.126  28.595  1.00  0.00     0.015 A 
HETATM   19  C19 UNK     1      20.150  -1.076  28.849  1.00  0.00     0.001 A 
HETATM   20  C21 UNK     1      20.419  -1.458  30.163  1.00  0.00     0.000 A 
HETATM   21  C20 UNK     1      20.028  -0.639  31.223  1.00  0.00     0.001 A 
HETATM   22  C17 UNK     1      19.366   0.562  30.968  1.00  0.00     0.015 A 
ENDBRANCH  15  17
ENDBRANCH  14  15
ENDBRANCH  13  14
ENDBRANCH  11  13
BRANCH   5  23
HETATM   23  C5  UNK     1      17.047  10.545  34.537  1.00  0.00     0.071 C 
BRANCH  23  24
HETATM   24  C12 UNK     1      17.723  11.738  33.947  1.00  0.00    -0.032 C 
HETATM   25  C18 UNK     1      18.227  12.742  34.674  1.00  0.00     0.007 C 
ENDBRANCH  23  24
ENDBRANCH   5  23
TORSDOF 6
ENDMDL
MODEL 2
REMARK VINA RESULT:      -8.8      1.424      1.742
REMARK  6 active torsions:
REMARK  status: ('A' for Active; 'I' for Inactive)
REMARK    1  A    between atoms: C10_14  and  O2_2 
REMARK    2  A    between atoms: C13_17  and  O2_2 
REMARK    3  A    between atoms: C3_7  and  C5_9 
REMARK    4  A    between atoms: C12_16  and  C5_9 
REMARK    5  A    between atoms: C13_17  and  C14_18 
REMARK    6  A    between atoms: C14_18  and  C15_19 
ROOT
HETATM    1  O1  UNK     1      16.395   8.674  33.360  1.00  0.00    -0.274 OA
HETATM    2  O3  UNK     1      15.799  10.801  33.883  1.00  0.00    -0.259 OA
HETATM    3  C1  UNK     1      18.712   7.962  33.569  1.00  0.00     0.005 A 
HETATM    4  C2  UNK     1      19.066   9.314  34.048  1.00  0.00    -0.036 A 
HETATM    5  C3  UNK     1      18.108  10.263  34.123  1.00  0.00     0.028 A 
HETATM    6  C4  UNK     1      17.387   7.689  33.244  1.00  0.00     0.092 A 
HETATM    7  C6  UNK     1      19.639   6.920  33.408  1.00  0.00     0.017 A 
HETATM    8  C7  UNK     1      16.968   6.437  32.784  1.00  0.00     0.075 A 
HETATM    9  C8  UNK     1      16.687   9.958  33.786  1.00  0.00     0.295 A 
HETATM   10  C9  UNK     1      20.503   9.544  34.443  1.00  0.00     0.050 C 
HETATM   11  C10 UNK     1      17.903   5.418  32.637  1.00  0.00     0.072 A 
HETATM   12  C11 UNK     1      19.237   5.660  32.948  1.00  0.00     0.038 A 
ENDROOT
BRANCH  11  13
HETATM   13  O2  UNK     1      17.514   4.193  32.191  1.00  0.00    -0.344 OA
BRANCH  13  14
HETATM   14  C13 UNK     1      18.347   3.560  31.221  1.00  0.00     0.259 C 
BRANCH  14  15
HETATM   15  C14 UNK     1      18.541   2.098  31.577  1.00  0.00     0.183 C 
HETATM   16  O4  UNK     1      18.310   1.673  32.706  1.00  0.00    -0.290 OA
BRANCH  15  17
HETATM   17  C15 UNK     1      19.028   1.163  30.522  1.00  0.00     0.012 A 
HETATM   18  C16 UNK     1      18.452   1.219  29.274  1.00  0.00     0.015 A 
HETATM   19  C19 UNK     1      18.908   0.344  28.286  1.00  0.00     0.001 A 
HETATM   20  C21 UNK     1      19.926  -0.564  28.576  1.00  0.00     0.000 A 
HETATM   21  C20 UNK     1      20.490  -0.597  29.851  1.00  0.00     0.001 A 
HETATM   22  C17 UNK     1      20.034   0.278  30.837  1.00  0.00     0.015 A 
ENDBRANCH  15  17
ENDBRANCH  14  15
ENDBRANCH  13  14
ENDBRANCH  11  13
BRANCH   5  23
HETATM   23  C5  UNK     1      18.342  11.694  34.533  1.00  0.00     0.071 C 
BRANCH  23  24
HETATM   24  C12 UNK     1      18.614  12.566  33.351  1.00  0.00    -0.032 C 
HETATM   25  C18 UNK     1      18.541  13.902  33.381  1.00  0.00     0.007 C 
ENDBRANCH  23  24
ENDBRANCH   5  23
TORSDOF 6
ENDMDL
MODEL 3
REMARK VINA RESULT:      -8.4      6.948     12.431
REMARK  6 active torsions:
REMARK  status: ('A' for Active; 'I' for Inactive)
REMARK    1  A    between atoms: C10_14  and  O2_2 
REMARK    2  A    between atoms: C13_17  and  O2_2 
REMARK    3  A    between atoms: C3_7  and  C5_9 
REMARK    4  A    between atoms: C12_16  and  C5_9 
REMARK    5  A    between atoms: C13_17  and  C14_18 
REMARK    6  A    between atoms: C14_18  and  C15_19 
ROOT
HETATM    1  O1  UNK     1      20.449  -5.834  34.608  1.00  0.00    -0.274 OA
HETATM    2  O3  UNK     1      20.852  -8.058  34.392  1.00  0.00    -0.259 OA
HETATM    3  C1  UNK     1      20.231  -4.835  36.815  1.00  0.00     0.005 A 
HETATM    4  C2  UNK     1      20.472  -6.161  37.420  1.00  0.00    -0.036 A 
HETATM    5  C3  UNK     1      20.647  -7.233  36.619  1.00  0.00     0.028 A 
HETATM    6  C4  UNK     1      20.230  -4.718  35.428  1.00  0.00     0.092 A 
HETATM    7  C6  UNK     1      19.990  -3.667  37.556  1.00  0.00     0.017 A 
HETATM    8  C7  UNK     1      20.011  -3.502  34.776  1.00  0.00     0.075 A 
HETATM    9  C8  UNK     1      20.659  -7.098  35.133  1.00  0.00     0.295 A 
HETATM   10  C9  UNK     1      20.521  -6.225  38.926  1.00  0.00     0.050 C 
HETATM   11  C10 UNK     1      19.779  -2.356  35.530  1.00  0.00     0.072 A 
HETATM   12  C11 UNK     1      19.767  -2.440  36.919  1.00  0.00     0.038 A 
ENDROOT
BRANCH  11  13
HETATM   13  O2  UNK     1      19.564  -1.163  34.913  1.00  0.00    -0.344 OA
BRANCH  13  14
HETATM   14  C13 UNK     1      18.526  -1.115  33.935  1.00  0.00     0.259 C 
BRANCH  14  15
HETATM   15  C14 UNK     1      18.824  -0.032  32.915  1.00  0.00     0.183 C 
HETATM   16  O4  UNK     1      18.569   1.150  33.136  1.00  0.00    -0.290 OA
BRANCH  15  17
HETATM   17  C15 UNK     1      19.440  -0.422  31.614  1.00  0.00     0.012 A 
HETATM   18  C16 UNK     1      19.863  -1.721  31.448  1.00  0.00     0.015 A 
HETATM   19  C19 UNK     1      20.438  -2.087  30.230  1.00  0.00     0.001 A 
HETATM   20  C21 UNK     1      20.576  -1.142  29.213  1.00  0.00     0.000 A 
HETATM   21  C20 UNK     1      20.138   0.167  29.413  1.00  0.00     0.001 A 
HETATM   22  C17 UNK     1      19.562   0.531  30.629  1.00  0.00     0.015 A 
ENDBRANCH  15  17
ENDBRANCH  14  15
ENDBRANCH  13  14
ENDBRANCH  11  13
BRANCH   5  23
HETATM   23  C5  UNK     1      20.838  -8.648  37.102  1.00  0.00     0.071 C 
BRANCH  23  24
HETATM   24  C12 UNK     1      19.530  -9.321  37.360  1.00  0.00    -0.032 C 
HETATM   25  C18 UNK     1      19.416 -10.545  37.889  1.00  0.00     0.007 C 
ENDBRANCH  23  24
ENDBRANCH   5  23
TORSDOF 6
ENDMDL
MODEL 4
REMARK VINA RESULT:      -8.4      5.544      8.082
REMARK  6 active torsions:
REMARK  status: ('A' for Active; 'I' for Inactive)
REMARK    1  A    between atoms: C10_14  and  O2_2 
REMARK    2  A    between atoms: C13_17  and  O2_2 
REMARK    3  A    between atoms: C3_7  and  C5_9 
REMARK    4  A    between atoms: C12_16  and  C5_9 
REMARK    5  A    between atoms: C13_17  and  C14_18 
REMARK    6  A    between atoms: C14_18  and  C15_19 
ROOT
HETATM    1  O1  UNK     1      17.343  -0.730  33.644  1.00  0.00    -0.274 OA
HETATM    2  O3  UNK     1      15.845   0.001  35.185  1.00  0.00    -0.259 OA
HETATM    3  C1  UNK     1      19.363  -1.887  34.349  1.00  0.00     0.005 A 
HETATM    4  C2  UNK     1      18.930  -1.750  35.755  1.00  0.00    -0.036 A 
HETATM    5  C3  UNK     1      17.781  -1.099  36.034  1.00  0.00     0.028 A 
HETATM    6  C4  UNK     1      18.552  -1.373  33.342  1.00  0.00     0.092 A 
HETATM    7  C6  UNK     1      20.562  -2.502  33.954  1.00  0.00     0.017 A 
HETATM    8  C7  UNK     1      18.887  -1.461  31.988  1.00  0.00     0.075 A 
HETATM    9  C8  UNK     1      16.909  -0.563  34.948  1.00  0.00     0.295 A 
HETATM   10  C9  UNK     1      19.814  -2.375  36.805  1.00  0.00     0.050 C 
HETATM   11  C10 UNK     1      20.077  -2.079  31.619  1.00  0.00     0.072 A 
HETATM   12  C11 UNK     1      20.914  -2.598  32.602  1.00  0.00     0.038 A 
ENDROOT
BRANCH  11  13
HETATM   13  O2  UNK     1      20.420  -2.173  30.307  1.00  0.00    -0.344 OA
BRANCH  13  14
HETATM   14  C13 UNK     1      20.928  -0.996  29.680  1.00  0.00     0.259 C 
BRANCH  14  15
HETATM   15  C14 UNK     1      19.849  -0.353  28.830  1.00  0.00     0.183 C 
HETATM   16  O4  UNK     1      19.509  -0.830  27.750  1.00  0.00    -0.290 OA
BRANCH  15  17
HETATM   17  C15 UNK     1      19.192   0.890  29.326  1.00  0.00     0.012 A 
HETATM   18  C16 UNK     1      19.475   1.322  30.602  1.00  0.00     0.015 A 
HETATM   19  C19 UNK     1      18.860   2.486  31.066  1.00  0.00     0.001 A 
HETATM   20  C21 UNK     1      17.978   3.185  30.242  1.00  0.00     0.000 A 
HETATM   21  C20 UNK     1      17.711   2.721  28.954  1.00  0.00     0.001 A 
HETATM   22  C17 UNK     1      18.326   1.558  28.490  1.00  0.00     0.015 A 
ENDBRANCH  15  17
ENDBRANCH  14  15
ENDBRANCH  13  14
ENDBRANCH  11  13
BRANCH   5  23
HETATM   23  C5  UNK     1      17.256  -0.834  37.422  1.00  0.00     0.071 C 
BRANCH  23  24
HETATM   24  C12 UNK     1      17.881   0.382  38.022  1.00  0.00    -0.032 C 
HETATM   25  C18 UNK     1      17.536   1.633  37.694  1.00  0.00     0.007 C 
ENDBRANCH  23  24
ENDBRANCH   5  23
TORSDOF 6
ENDMDL
MODEL 5
REMARK VINA RESULT:      -8.3      1.984      8.950
REMARK  6 active torsions:
REMARK  status: ('A' for Active; 'I' for Inactive)
REMARK    1  A    between atoms: C10_14  and  O2_2 
REMARK    2  A    between atoms: C13_17  and  O2_2 
REMARK    3  A    between atoms: C3_7  and  C5_9 
REMARK    4  A    between atoms: C12_16  and  C5_9 
REMARK    5  A    between atoms: C13_17  and  C14_18 
REMARK    6  A    between atoms: C14_18  and  C15_19 
ROOT
HETATM    1  O1  UNK     1      18.341   1.691  33.215  1.00  0.00    -0.274 OA
HETATM    2  O3  UNK     1      18.523  -0.479  33.856  1.00  0.00    -0.259 OA
HETATM    3  C1  UNK     1      18.834   2.338  30.923  1.00  0.00     0.005 A 
HETATM    4  C2  UNK     1      19.130   0.926  30.605  1.00  0.00    -0.036 A 
HETATM    5  C3  UNK     1      19.056  -0.002  31.583  1.00  0.00     0.028 A 
HETATM    6  C4  UNK     1      18.447   2.671  32.217  1.00  0.00     0.092 A 
HETATM    7  C6  UNK     1      18.927   3.387  29.993  1.00  0.00     0.017 A 
HETATM    8  C7  UNK     1      18.149   3.982  32.600  1.00  0.00     0.075 A 
HETATM    9  C8  UNK     1      18.627   0.360  32.966  1.00  0.00     0.295 A 
HETATM   10  C9  UNK     1      19.487   0.608  29.176  1.00  0.00     0.050 C 
HETATM   11  C10 UNK     1      18.243   5.003  31.662  1.00  0.00     0.072 A 
HETATM   12  C11 UNK     1      18.633   4.706  30.360  1.00  0.00     0.038 A 
ENDROOT
BRANCH  11  13
HETATM   13  O2  UNK     1      17.957   6.285  32.016  1.00  0.00    -0.344 OA
BRANCH  13  14
HETATM   14  C13 UNK     1      16.732   6.510  32.712  1.00  0.00     0.259 C 
BRANCH  14  15
HETATM   15  C14 UNK     1      17.010   7.140  34.064  1.00  0.00     0.183 C 
HETATM   16  O4  UNK     1      16.433   6.763  35.081  1.00  0.00    -0.290 OA
BRANCH  15  17
HETATM   17  C15 UNK     1      18.010   8.243  34.148  1.00  0.00     0.012 A 
HETATM   18  C16 UNK     1      17.594   9.530  33.896  1.00  0.00     0.015 A 
HETATM   19  C19 UNK     1      18.529  10.563  33.976  1.00  0.00     0.001 A 
HETATM   20  C21 UNK     1      19.855  10.280  34.305  1.00  0.00     0.000 A 
HETATM   21  C20 UNK     1      20.245   8.964  34.555  1.00  0.00     0.001 A 
HETATM   22  C17 UNK     1      19.310   7.932  34.476  1.00  0.00     0.015 A 
ENDBRANCH  15  17
ENDBRANCH  14  15
ENDBRANCH  13  14
ENDBRANCH  11  13
BRANCH   5  23
HETATM   23  C5  UNK     1      19.392  -1.462  31.413  1.00  0.00     0.071 C 
BRANCH  23  24
HETATM   24  C12 UNK     1      20.810  -1.745  31.784  1.00  0.00    -0.032 C 
HETATM   25  C18 UNK     1      21.170  -2.636  32.716  1.00  0.00     0.007 C 
ENDBRANCH  23  24
ENDBRANCH   5  23
TORSDOF 6
ENDMDL
MODEL 6
REMARK VINA RESULT:      -8.2     22.464     24.356
REMARK  6 active torsions:
REMARK  status: ('A' for Active; 'I' for Inactive)
REMARK    1  A    between atoms: C10_14  and  O2_2 
REMARK    2  A    between atoms: C13_17  and  O2_2 
REMARK    3  A    between atoms: C3_7  and  C5_9 
REMARK    4  A    between atoms: C12_16  and  C5_9 
REMARK    5  A    between atoms: C13_17  and  C14_18 
REMARK    6  A    between atoms: C14_18  and  C15_19 
ROOT
HETATM    1  O1  UNK     1      17.871   9.642   9.947  1.00  0.00    -0.274 OA
HETATM    2  O3  UNK     1      19.610  11.098   9.839  1.00  0.00    -0.259 OA
HETATM    3  C1  UNK     1      15.810  10.100   8.740  1.00  0.00     0.005 A 
HETATM    4  C2  UNK     1      16.408  11.350   8.228  1.00  0.00    -0.036 A 
HETATM    5  C3  UNK     1      17.654  11.696   8.615  1.00  0.00     0.028 A 
HETATM    6  C4  UNK     1      16.565   9.288   9.580  1.00  0.00     0.092 A 
HETATM    7  C6  UNK     1      14.507   9.673   8.437  1.00  0.00     0.017 A 
HETATM    8  C7  UNK     1      16.075   8.090  10.107  1.00  0.00     0.075 A 
HETATM    9  C8  UNK     1      18.463  10.813   9.506  1.00  0.00     0.295 A 
HETATM   10  C9  UNK     1      15.572  12.166   7.274  1.00  0.00     0.050 C 
HETATM   11  C10 UNK     1      14.784   7.683   9.791  1.00  0.00     0.072 A 
HETATM   12  C11 UNK     1      14.000   8.476   8.957  1.00  0.00     0.038 A 
ENDROOT
BRANCH  11  13
HETATM   13  O2  UNK     1      14.289   6.520  10.294  1.00  0.00    -0.344 OA
BRANCH  13  14
HETATM   14  C13 UNK     1      13.781   5.571   9.358  1.00  0.00     0.259 C 
BRANCH  14  15
HETATM   15  C14 UNK     1      12.273   5.471   9.487  1.00  0.00     0.183 C 
HETATM   16  O4  UNK     1      11.736   5.140  10.541  1.00  0.00    -0.290 OA
BRANCH  15  17
HETATM   17  C15 UNK     1      11.430   5.783   8.296  1.00  0.00     0.012 A 
HETATM   18  C16 UNK     1      12.040   5.908   7.070  1.00  0.00     0.015 A 
HETATM   19  C19 UNK     1      11.252   6.199   5.956  1.00  0.00     0.001 A 
HETATM   20  C21 UNK     1       9.873   6.358   6.100  1.00  0.00     0.000 A 
HETATM   21  C20 UNK     1       9.284   6.225   7.357  1.00  0.00     0.001 A 
HETATM   22  C17 UNK     1      10.073   5.933   8.470  1.00  0.00     0.015 A 
ENDBRANCH  15  17
ENDBRANCH  14  15
ENDBRANCH  13  14
ENDBRANCH  11  13
BRANCH   5  23
HETATM   23  C5  UNK     1      18.357  12.970   8.221  1.00  0.00     0.071 C 
BRANCH  23  24
HETATM   24  C12 UNK     1      19.277  12.754   7.066  1.00  0.00    -0.032 C 
HETATM   25  C18 UNK     1      18.867  12.665   5.795  1.00  0.00     0.007 C 
ENDBRANCH  23  24
ENDBRANCH   5  23
TORSDOF 6
ENDMDL
MODEL 7
REMARK VINA RESULT:      -8.2     21.889     24.296
REMARK  6 active torsions:
REMARK  status: ('A' for Active; 'I' for Inactive)
REMARK    1  A    between atoms: C10_14  and  O2_2 
REMARK    2  A    between atoms: C13_17  and  O2_2 
REMARK    3  A    between atoms: C3_7  and  C5_9 
REMARK    4  A    between atoms: C12_16  and  C5_9 
REMARK    5  A    between atoms: C13_17  and  C14_18 
REMARK    6  A    between atoms: C14_18  and  C15_19 
ROOT
HETATM    1  O1  UNK     1      13.938   5.155   8.727  1.00  0.00    -0.274 OA
HETATM    2  O3  UNK     1      16.071   4.858   9.444  1.00  0.00    -0.259 OA
HETATM    3  C1  UNK     1      12.732   7.195   9.275  1.00  0.00     0.005 A 
HETATM    4  C2  UNK     1      13.925   7.687   9.994  1.00  0.00    -0.036 A 
HETATM    5  C3  UNK     1      15.020   6.902  10.076  1.00  0.00     0.028 A 
HETATM    6  C4  UNK     1      12.782   5.946   8.664  1.00  0.00     0.092 A 
HETATM    7  C6  UNK     1      11.529   7.911   9.171  1.00  0.00     0.017 A 
HETATM    8  C7  UNK     1      11.699   5.407   7.964  1.00  0.00     0.075 A 
HETATM    9  C8  UNK     1      15.071   5.569   9.407  1.00  0.00     0.295 A 
HETATM   10  C9  UNK     1      13.842   9.071  10.588  1.00  0.00     0.050 C 
HETATM   11  C10 UNK     1      10.518   6.136   7.870  1.00  0.00     0.072 A 
HETATM   12  C11 UNK     1      10.433   7.387   8.474  1.00  0.00     0.038 A 
ENDROOT
BRANCH  11  13
HETATM   13  O2  UNK     1       9.453   5.629   7.193  1.00  0.00    -0.344 OA
BRANCH  13  14
HETATM   14  C13 UNK     1       8.157   6.067   7.596  1.00  0.00     0.259 C 
BRANCH  14  15
HETATM   15  C14 UNK     1       7.694   5.278   8.806  1.00  0.00     0.183 C 
HETATM   16  O4  UNK     1       7.742   4.050   8.832  1.00  0.00    -0.290 OA
BRANCH  15  17
HETATM   17  C15 UNK     1       7.167   6.020   9.987  1.00  0.00     0.012 A 
HETATM   18  C16 UNK     1       6.720   5.301  11.072  1.00  0.00     0.015 A 
HETATM   19  C19 UNK     1       6.227   5.995  12.178  1.00  0.00     0.001 A 
HETATM   20  C21 UNK     1       6.194   7.390  12.167  1.00  0.00     0.000 A 
HETATM   21  C20 UNK     1       6.653   8.090  11.052  1.00  0.00     0.001 A 
HETATM   22  C17 UNK     1       7.146   7.395   9.947  1.00  0.00     0.015 A 
ENDBRANCH  15  17
ENDBRANCH  14  15
ENDBRANCH  13  14
ENDBRANCH  11  13
BRANCH   5  23
HETATM   23  C5  UNK     1      16.277   7.252  10.830  1.00  0.00     0.071 C 
BRANCH  23  24
HETATM   24  C12 UNK     1      17.248   7.988   9.967  1.00  0.00    -0.032 C 
HETATM   25  C18 UNK     1      17.275   9.321   9.850  1.00  0.00     0.007 C 
ENDBRANCH  23  24
ENDBRANCH   5  23
TORSDOF 6
ENDMDL
MODEL 8
REMARK VINA RESULT:      -8.2     22.363     24.284
REMARK  6 active torsions:
REMARK  status: ('A' for Active; 'I' for Inactive)
REMARK    1  A    between atoms: C10_14  and  O2_2 
REMARK    2  A    between atoms: C13_17  and  O2_2 
REMARK    3  A    between atoms: C3_7  and  C5_9 
REMARK    4  A    between atoms: C12_16  and  C5_9 
REMARK    5  A    between atoms: C13_17  and  C14_18 
REMARK    6  A    between atoms: C14_18  and  C15_19 
ROOT
HETATM    1  O1  UNK     1      14.966  10.368   8.008  1.00  0.00    -0.274 OA
HETATM    2  O3  UNK     1      15.293  12.260   6.797  1.00  0.00    -0.259 OA
HETATM    3  C1  UNK     1      16.581   9.700   9.700  1.00  0.00     0.005 A 
HETATM    4  C2  UNK     1      17.382  10.901   9.385  1.00  0.00    -0.036 A 
HETATM    5  C3  UNK     1      16.972  11.732   8.404  1.00  0.00     0.028 A 
HETATM    6  C4  UNK     1      15.399   9.477   9.001  1.00  0.00     0.092 A 
HETATM    7  C6  UNK     1      16.942   8.748  10.667  1.00  0.00     0.017 A 
HETATM    8  C7  UNK     1      14.583   8.367   9.238  1.00  0.00     0.075 A 
HETATM    9  C8  UNK     1      15.696  11.494   7.668  1.00  0.00     0.295 A 
HETATM   10  C9  UNK     1      18.623  11.129  10.210  1.00  0.00     0.050 C 
HETATM   11  C10 UNK     1      14.958   7.439  10.203  1.00  0.00     0.072 A 
HETATM   12  C11 UNK     1      16.137   7.629  10.917  1.00  0.00     0.038 A 
ENDROOT
BRANCH  11  13
HETATM   13  O2  UNK     1      14.177   6.353  10.448  1.00  0.00    -0.344 OA
BRANCH  13  14
HETATM   14  C13 UNK     1      13.664   5.652   9.315  1.00  0.00     0.259 C 
BRANCH  14  15
HETATM   15  C14 UNK     1      12.161   5.489   9.442  1.00  0.00     0.183 C 
HETATM   16  O4  UNK     1      11.639   5.114  10.489  1.00  0.00    -0.290 OA
BRANCH  15  17
HETATM   17  C15 UNK     1      11.305   5.793   8.259  1.00  0.00     0.012 A 
HETATM   18  C16 UNK     1       9.949   5.932   8.444  1.00  0.00     0.015 A 
HETATM   19  C19 UNK     1       9.148   6.218   7.338  1.00  0.00     0.001 A 
HETATM   20  C21 UNK     1       9.726   6.355   6.076  1.00  0.00     0.000 A 
HETATM   21  C20 UNK     1      11.104   6.207   5.920  1.00  0.00     0.001 A 
HETATM   22  C17 UNK     1      11.904   5.923   7.027  1.00  0.00     0.015 A 
ENDBRANCH  15  17
ENDBRANCH  14  15
ENDBRANCH  13  14
ENDBRANCH  11  13
BRANCH   5  23
HETATM   23  C5  UNK     1      17.723  12.953   7.939  1.00  0.00     0.071 C 
BRANCH  23  24
HETATM   24  C12 UNK     1      18.888  12.587   7.080  1.00  0.00    -0.032 C 
HETATM   25  C18 UNK     1      18.783  12.261   5.786  1.00  0.00     0.007 C 
ENDBRANCH  23  24
ENDBRANCH   5  23
TORSDOF 6
ENDMDL
MODEL 9
REMARK VINA RESULT:      -8.1     15.679     17.318
REMARK  6 active torsions:
REMARK  status: ('A' for Active; 'I' for Inactive)
REMARK    1  A    between atoms: C10_14  and  O2_2 
REMARK    2  A    between atoms: C13_17  and  O2_2 
REMARK    3  A    between atoms: C3_7  and  C5_9 
REMARK    4  A    between atoms: C12_16  and  C5_9 
REMARK    5  A    between atoms: C13_17  and  C14_18 
REMARK    6  A    between atoms: C14_18  and  C15_19 
ROOT
HETATM    1  O1  UNK     1      28.029  -5.448  39.232  1.00  0.00    -0.274 OA
HETATM    2  O3  UNK     1      29.572  -3.863  39.743  1.00  0.00    -0.259 OA
HETATM    3  C1  UNK     1      28.653  -7.385  37.900  1.00  0.00     0.005 A 
HETATM    4  C2  UNK     1      30.037  -6.871  37.832  1.00  0.00    -0.036 A 
HETATM    5  C3  UNK     1      30.334  -5.690  38.416  1.00  0.00     0.028 A 
HETATM    6  C4  UNK     1      27.697  -6.655  38.600  1.00  0.00     0.092 A 
HETATM    7  C6  UNK     1      28.228  -8.575  37.287  1.00  0.00     0.017 A 
HETATM    8  C7  UNK     1      26.368  -7.071  38.713  1.00  0.00     0.075 A 
HETATM    9  C8  UNK     1      29.307  -4.920  39.177  1.00  0.00     0.295 A 
HETATM   10  C9  UNK     1      31.048  -7.726  37.112  1.00  0.00     0.050 C 
HETATM   11  C10 UNK     1      25.970  -8.255  38.103  1.00  0.00     0.072 A 
HETATM   12  C11 UNK     1      26.900  -9.006  37.390  1.00  0.00     0.038 A 
ENDROOT
BRANCH  11  13
HETATM   13  O2  UNK     1      24.681  -8.676  38.201  1.00  0.00    -0.344 OA
BRANCH  13  14
HETATM   14  C13 UNK     1      23.798  -7.887  38.997  1.00  0.00     0.259 C 
BRANCH  14  15
HETATM   15  C14 UNK     1      22.489  -7.670  38.263  1.00  0.00     0.183 C 
HETATM   16  O4  UNK     1      22.195  -6.580  37.778  1.00  0.00    -0.290 OA
BRANCH  15  17
HETATM   17  C15 UNK     1      21.542  -8.815  38.132  1.00  0.00     0.012 A 
HETATM   18  C16 UNK     1      20.575  -8.984  39.097  1.00  0.00     0.015 A 
HETATM   19  C19 UNK     1      19.688 -10.055  38.974  1.00  0.00     0.001 A 
HETATM   20  C21 UNK     1      19.793 -10.927  37.891  1.00  0.00     0.000 A 
HETATM   21  C20 UNK     1      20.785 -10.728  36.930  1.00  0.00     0.001 A 
HETATM   22  C17 UNK     1      21.670  -9.658  37.052  1.00  0.00     0.015 A 
ENDBRANCH  15  17
ENDBRANCH  14  15
ENDBRANCH  13  14
ENDBRANCH  11  13
BRANCH   5  23
HETATM   23  C5  UNK     1      31.685  -5.022  38.369  1.00  0.00     0.071 C 
BRANCH  23  24
HETATM   24  C12 UNK     1      31.793  -4.085  37.212  1.00  0.00    -0.032 C 
HETATM   25  C18 UNK     1      32.242  -4.446  36.004  1.00  0.00     0.007 C 
ENDBRANCH  23  24
ENDBRANCH   5  23
TORSDOF 6
ENDMDL
MODEL 10
REMARK VINA RESULT:      -8.1     21.626     24.024
REMARK  6 active torsions:
REMARK  status: ('A' for Active; 'I' for Inactive)
REMARK    1  A    between atoms: C10_14  and  O2_2 
REMARK    2  A    between atoms: C13_17  and  O2_2 
REMARK    3  A    between atoms: C3_7  and  C5_9 
REMARK    4  A    between atoms: C12_16  and  C5_9 
REMARK    5  A    between atoms: C13_17  and  C14_18 
REMARK    6  A    between atoms: C14_18  and  C15_19 
ROOT
HETATM    1  O1  UNK     1      12.345   8.284  10.312  1.00  0.00    -0.274 OA
HETATM    2  O3  UNK     1      13.451   9.667  11.732  1.00  0.00    -0.259 OA
HETATM    3  C1  UNK     1      13.525   6.475   9.193  1.00  0.00     0.005 A 
HETATM    4  C2  UNK     1      14.766   6.879   9.885  1.00  0.00    -0.036 A 
HETATM    5  C3  UNK     1      14.749   7.954  10.702  1.00  0.00     0.028 A 
HETATM    6  C4  UNK     1      12.356   7.191   9.433  1.00  0.00     0.092 A 
HETATM    7  C6  UNK     1      13.445   5.404   8.288  1.00  0.00     0.017 A 
HETATM    8  C7  UNK     1      11.141   6.874   8.821  1.00  0.00     0.075 A 
HETATM    9  C8  UNK     1      13.489   8.709  10.965  1.00  0.00     0.295 A 
HETATM   10  C9  UNK     1      15.992   6.036   9.637  1.00  0.00     0.050 C 
HETATM   11  C10 UNK     1      11.084   5.806   7.932  1.00  0.00     0.072 A 
HETATM   12  C11 UNK     1      12.235   5.073   7.665  1.00  0.00     0.038 A 
ENDROOT
BRANCH  11  13
HETATM   13  O2  UNK     1       9.909   5.483   7.326  1.00  0.00    -0.344 OA
BRANCH  13  14
HETATM   14  C13 UNK     1       8.780   6.304   7.616  1.00  0.00     0.259 C 
BRANCH  14  15
HETATM   15  C14 UNK     1       7.791   5.543   8.479  1.00  0.00     0.183 C 
HETATM   16  O4  UNK     1       7.405   4.417   8.177  1.00  0.00    -0.290 OA
BRANCH  15  17
HETATM   17  C15 UNK     1       7.280   6.189   9.722  1.00  0.00     0.012 A 
HETATM   18  C16 UNK     1       6.797   5.388  10.731  1.00  0.00     0.015 A 
HETATM   19  C19 UNK     1       6.320   5.992  11.895  1.00  0.00     0.001 A 
HETATM   20  C21 UNK     1       6.337   7.381  12.017  1.00  0.00     0.000 A 
HETATM   21  C20 UNK     1       6.833   8.166  10.976  1.00  0.00     0.001 A 
HETATM   22  C17 UNK     1       7.311   7.562   9.814  1.00  0.00     0.015 A 
ENDBRANCH  15  17
ENDBRANCH  14  15
ENDBRANCH  13  14
ENDBRANCH  11  13
BRANCH   5  23
HETATM   23  C5  UNK     1      15.953   8.512  11.417  1.00  0.00     0.071 C 
BRANCH  23  24
HETATM   24  C12 UNK     1      16.532   9.679  10.688  1.00  0.00    -0.032 C 
HETATM   25  C18 UNK     1      17.233   9.573   9.553  1.00  0.00     0.007 C 
ENDBRANCH  23  24
ENDBRANCH   5  23
TORSDOF 6
ENDMDL
