MODEL 1
REMARK VINA RESULT:      -7.3      0.000      0.000
REMARK  5 active torsions:
REMARK  status: ('A' for Active; 'I' for Inactive)
REMARK    1  A    between atoms: C1_3  and  N1_2 
REMARK       I    between atoms: C6_8  and  N1_2 
REMARK    2  A    between atoms: C1_3  and  C2_4 
REMARK    3  A    between atoms: C6_8  and  C7_9 
REMARK    4  A    between atoms: C7_9  and  C8_10 
REMARK    5  A    between atoms: C10_12  and  C9_11 
ROOT
HETATM    1  C7  UNK     1      20.956  -4.270  15.465  1.00  0.00     0.043 C 
HETATM    2  C9  UNK     1      20.506  -5.524  15.676  1.00  0.00     0.029 C 
ENDROOT
BRANCH   1   3
HETATM    3  C6  UNK     1      22.265  -3.916  16.123  1.00  0.00     0.253 C 
HETATM    4  O1  UNK     1      23.071  -3.155  15.592  1.00  0.00    -0.268 OA
HETATM    5  N1  UNK     1      22.460  -4.528  17.347  1.00  0.00    -0.348 N 
HETATM    6  H9  UNK     1      21.759  -5.152  17.731  1.00  0.00     0.163 HD
BRANCH   5   7
HETATM    7  C1  UNK     1      23.667  -4.316  18.129  1.00  0.00     0.025 C 
HETATM    8  C3  UNK     1      23.766  -2.820  18.468  1.00  0.00     0.038 C 
HETATM    9  C4  UNK     1      23.571  -5.117  19.434  1.00  0.00     0.038 C 
BRANCH   7  10
HETATM   10  C2  UNK     1      24.912  -4.723  17.305  1.00  0.00     0.026 C 
HETATM   11  C5  UNK     1      25.977  -3.639  17.169  1.00  0.00     0.007 C 
ENDBRANCH   7  10
ENDBRANCH   5   7
ENDBRANCH   1   3
BRANCH   1  12
HETATM   12  C8  UNK     1      20.222  -3.305  14.623  1.00  0.00    -0.021 A 
HETATM   13  C11 UNK     1      20.513  -3.227  13.272  1.00  0.00     0.012 A 
HETATM   14  C13 UNK     1      19.819  -2.315  12.476  1.00  0.00     0.001 A 
HETATM   15  C17 UNK     1      18.843  -1.496  13.045  1.00  0.00     0.000 A 
HETATM   16  C14 UNK     1      18.562  -1.588  14.407  1.00  0.00     0.001 A 
HETATM   17  C12 UNK     1      19.256  -2.499  15.203  1.00  0.00     0.012 A 
ENDBRANCH   1  12
BRANCH   2  18
HETATM   18  C10 UNK     1      19.276  -6.102  15.114  1.00  0.00    -0.035 A 
HETATM   19  C16 UNK     1      19.299  -6.643  13.837  1.00  0.00     0.011 A 
HETATM   20  C19 UNK     1      18.131  -7.191  13.303  1.00  0.00     0.001 A 
HETATM   21  C20 UNK     1      16.956  -7.191  14.053  1.00  0.00     0.000 A 
HETATM   22  C18 UNK     1      16.946  -6.644  15.336  1.00  0.00     0.001 A 
HETATM   23  C15 UNK     1      18.113  -6.096  15.869  1.00  0.00     0.011 A 
ENDBRANCH   2  18
TORSDOF 5
ENDMDL
MODEL 2
REMARK VINA RESULT:      -7.2     16.569     19.301
REMARK  5 active torsions:
REMARK  status: ('A' for Active; 'I' for Inactive)
REMARK    1  A    between atoms: C1_3  and  N1_2 
REMARK       I    between atoms: C6_8  and  N1_2 
REMARK    2  A    between atoms: C1_3  and  C2_4 
REMARK    3  A    between atoms: C6_8  and  C7_9 
REMARK    4  A    between atoms: C7_9  and  C8_10 
REMARK    5  A    between atoms: C10_12  and  C9_11 
ROOT
HETATM    1  C7  UNK     1      18.320   2.123  32.766  1.00  0.00     0.043 C 
HETATM    2  C9  UNK     1      18.264   3.409  33.171  1.00  0.00     0.029 C 
ENDROOT
BRANCH   1   3
HETATM    3  C6  UNK     1      18.151   1.081  33.842  1.00  0.00     0.253 C 
HETATM    4  O1  UNK     1      19.043   0.281  34.113  1.00  0.00    -0.268 OA
HETATM    5  N1  UNK     1      16.919   1.117  34.467  1.00  0.00    -0.348 N 
HETATM    6  H9  UNK     1      16.220   1.799  34.195  1.00  0.00     0.163 HD
BRANCH   5   7
HETATM    7  C1  UNK     1      16.566   0.185  35.525  1.00  0.00     0.025 C 
HETATM    8  C3  UNK     1      15.272   0.679  36.192  1.00  0.00     0.038 C 
HETATM    9  C4  UNK     1      16.315  -1.201  34.917  1.00  0.00     0.038 C 
BRANCH   7  10
HETATM   10  C2  UNK     1      17.689   0.141  36.590  1.00  0.00     0.026 C 
HETATM   11  C5  UNK     1      17.572   1.188  37.693  1.00  0.00     0.007 C 
ENDBRANCH   7  10
ENDBRANCH   5   7
ENDBRANCH   1   3
BRANCH   1  12
HETATM   12  C8  UNK     1      18.516   1.756  31.350  1.00  0.00    -0.021 A 
HETATM   13  C11 UNK     1      17.703   2.325  30.385  1.00  0.00     0.012 A 
HETATM   14  C13 UNK     1      17.888   1.977  29.046  1.00  0.00     0.001 A 
HETATM   15  C17 UNK     1      18.884   1.067  28.694  1.00  0.00     0.000 A 
HETATM   16  C14 UNK     1      19.694   0.503  29.679  1.00  0.00     0.001 A 
HETATM   17  C12 UNK     1      19.509   0.850  31.018  1.00  0.00     0.012 A 
ENDBRANCH   1  12
BRANCH   2  18
HETATM   18  C10 UNK     1      18.371   4.590  32.301  1.00  0.00    -0.035 A 
HETATM   19  C16 UNK     1      19.494   4.747  31.503  1.00  0.00     0.011 A 
HETATM   20  C19 UNK     1      19.596   5.868  30.677  1.00  0.00     0.001 A 
HETATM   21  C20 UNK     1      18.575   6.816  30.660  1.00  0.00     0.000 A 
HETATM   22  C18 UNK     1      17.450   6.646  31.467  1.00  0.00     0.001 A 
HETATM   23  C15 UNK     1      17.349   5.526  32.293  1.00  0.00     0.011 A 
ENDBRANCH   2  18
TORSDOF 5
ENDMDL
MODEL 3
REMARK VINA RESULT:      -7.1     19.512     22.085
REMARK  5 active torsions:
REMARK  status: ('A' for Active; 'I' for Inactive)
REMARK    1  A    between atoms: C1_3  and  N1_2 
REMARK       I    between atoms: C6_8  and  N1_2 
REMARK    2  A    between atoms: C1_3  and  C2_4 
REMARK    3  A    between atoms: C6_8  and  C7_9 
REMARK    4  A    between atoms: C7_9  and  C8_10 
REMARK    5  A    between atoms: C10_12  and  C9_11 
ROOT
HETATM    1  C7  UNK     1      19.965  -4.274  36.823  1.00  0.00     0.043 C 
HETATM    2  C9  UNK     1      20.872  -4.419  37.811  1.00  0.00     0.029 C 
ENDROOT
BRANCH   1   3
HETATM    3  C6  UNK     1      19.796  -2.877  36.280  1.00  0.00     0.253 C 
HETATM    4  O1  UNK     1      20.760  -2.148  36.060  1.00  0.00    -0.268 OA
HETATM    5  N1  UNK     1      18.479  -2.514  36.070  1.00  0.00    -0.348 N 
HETATM    6  H9  UNK     1      17.724  -3.159  36.276  1.00  0.00     0.163 HD
BRANCH   5   7
HETATM    7  C1  UNK     1      18.116  -1.203  35.558  1.00  0.00     0.025 C 
HETATM    8  C3  UNK     1      18.783  -1.019  34.185  1.00  0.00     0.038 C 
HETATM    9  C4  UNK     1      16.593  -1.131  35.385  1.00  0.00     0.038 C 
BRANCH   7  10
HETATM   10  C2  UNK     1      18.631  -0.099  36.512  1.00  0.00     0.026 C 
HETATM   11  C5  UNK     1      17.640   0.339  37.587  1.00  0.00     0.007 C 
ENDBRANCH   7  10
ENDBRANCH   5   7
ENDBRANCH   1   3
BRANCH   1  12
HETATM   12  C8  UNK     1      19.197  -5.416  36.290  1.00  0.00    -0.021 A 
HETATM   13  C11 UNK     1      19.786  -6.249  35.355  1.00  0.00     0.012 A 
HETATM   14  C13 UNK     1      19.060  -7.329  34.851  1.00  0.00     0.001 A 
HETATM   15  C17 UNK     1      17.757  -7.558  35.290  1.00  0.00     0.000 A 
HETATM   16  C14 UNK     1      17.178  -6.708  36.233  1.00  0.00     0.001 A 
HETATM   17  C12 UNK     1      17.904  -5.628  36.737  1.00  0.00     0.012 A 
ENDBRANCH   1  12
BRANCH   2  18
HETATM   18  C10 UNK     1      21.229  -5.684  38.471  1.00  0.00    -0.035 A 
HETATM   19  C16 UNK     1      22.557  -6.081  38.511  1.00  0.00     0.011 A 
HETATM   20  C19 UNK     1      22.896  -7.282  39.136  1.00  0.00     0.001 A 
HETATM   21  C20 UNK     1      21.902  -8.070  39.715  1.00  0.00     0.000 A 
HETATM   22  C18 UNK     1      20.570  -7.660  39.668  1.00  0.00     0.001 A 
HETATM   23  C15 UNK     1      20.232  -6.460  39.042  1.00  0.00     0.011 A 
ENDBRANCH   2  18
TORSDOF 5
ENDMDL
MODEL 4
REMARK VINA RESULT:      -7.0     18.291     21.146
REMARK  5 active torsions:
REMARK  status: ('A' for Active; 'I' for Inactive)
REMARK    1  A    between atoms: C1_3  and  N1_2 
REMARK       I    between atoms: C6_8  and  N1_2 
REMARK    2  A    between atoms: C1_3  and  C2_4 
REMARK    3  A    between atoms: C6_8  and  C7_9 
REMARK    4  A    between atoms: C7_9  and  C8_10 
REMARK    5  A    between atoms: C10_12  and  C9_11 
ROOT
HETATM    1  C7  UNK     1      18.363   4.825  33.423  1.00  0.00     0.043 C 
HETATM    2  C9  UNK     1      17.940   5.723  34.337  1.00  0.00     0.029 C 
ENDROOT
BRANCH   1   3
HETATM    3  C6  UNK     1      18.115   3.375  33.755  1.00  0.00     0.253 C 
HETATM    4  O1  UNK     1      17.884   2.542  32.881  1.00  0.00    -0.268 OA
HETATM    5  N1  UNK     1      18.166   3.094  35.107  1.00  0.00    -0.348 N 
HETATM    6  H9  UNK     1      18.357   3.827  35.782  1.00  0.00     0.163 HD
BRANCH   5   7
HETATM    7  C1  UNK     1      17.945   1.753  35.622  1.00  0.00     0.025 C 
HETATM    8  C3  UNK     1      19.307   1.052  35.745  1.00  0.00     0.038 C 
HETATM    9  C4  UNK     1      17.305   1.844  37.015  1.00  0.00     0.038 C 
BRANCH   7  10
HETATM   10  C2  UNK     1      17.057   0.948  34.643  1.00  0.00     0.026 C 
HETATM   11  C5  UNK     1      15.908   0.184  35.294  1.00  0.00     0.007 C 
ENDBRANCH   7  10
ENDBRANCH   5   7
ENDBRANCH   1   3
BRANCH   1  12
HETATM   12  C8  UNK     1      19.011   5.235  32.162  1.00  0.00    -0.021 A 
HETATM   13  C11 UNK     1      18.237   5.403  31.027  1.00  0.00     0.012 A 
HETATM   14  C13 UNK     1      18.851   5.791  29.835  1.00  0.00     0.001 A 
HETATM   15  C17 UNK     1      20.228   6.006  29.798  1.00  0.00     0.000 A 
HETATM   16  C14 UNK     1      20.993   5.833  30.951  1.00  0.00     0.001 A 
HETATM   17  C12 UNK     1      20.380   5.444  32.143  1.00  0.00     0.012 A 
ENDBRANCH   1  12
BRANCH   2  18
HETATM   18  C10 UNK     1      18.045   7.185  34.217  1.00  0.00    -0.035 A 
HETATM   19  C16 UNK     1      19.234   7.813  34.557  1.00  0.00     0.011 A 
HETATM   20  C19 UNK     1      19.333   9.200  34.443  1.00  0.00     0.001 A 
HETATM   21  C20 UNK     1      18.243   9.942  33.991  1.00  0.00     0.000 A 
HETATM   22  C18 UNK     1      17.053   9.299  33.652  1.00  0.00     0.001 A 
HETATM   23  C15 UNK     1      16.953   7.912  33.766  1.00  0.00     0.011 A 
ENDBRANCH   2  18
TORSDOF 5
ENDMDL
MODEL 5
REMARK VINA RESULT:      -6.7     20.846     23.328
REMARK  5 active torsions:
REMARK  status: ('A' for Active; 'I' for Inactive)
REMARK    1  A    between atoms: C1_3  and  N1_2 
REMARK       I    between atoms: C6_8  and  N1_2 
REMARK    2  A    between atoms: C1_3  and  C2_4 
REMARK    3  A    between atoms: C6_8  and  C7_9 
REMARK    4  A    between atoms: C7_9  and  C8_10 
REMARK    5  A    between atoms: C10_12  and  C9_11 
ROOT
HETATM    1  C7  UNK     1      24.042  -8.534  37.845  1.00  0.00     0.043 C 
HETATM    2  C9  UNK     1      23.442  -7.866  38.853  1.00  0.00     0.029 C 
ENDROOT
BRANCH   1   3
HETATM    3  C6  UNK     1      25.550  -8.524  37.850  1.00  0.00     0.253 C 
HETATM    4  O1  UNK     1      26.196  -8.085  36.901  1.00  0.00    -0.268 OA
HETATM    5  N1  UNK     1      26.110  -9.054  38.996  1.00  0.00    -0.348 N 
HETATM    6  H9  UNK     1      25.523  -9.407  39.744  1.00  0.00     0.163 HD
BRANCH   5   7
HETATM    7  C1  UNK     1      27.549  -9.138  39.181  1.00  0.00     0.025 C 
HETATM    8  C3  UNK     1      28.078  -7.729  39.493  1.00  0.00     0.038 C 
HETATM    9  C4  UNK     1      27.855 -10.059  40.369  1.00  0.00     0.038 C 
BRANCH   7  10
HETATM   10  C2  UNK     1      28.222  -9.644  37.883  1.00  0.00     0.026 C 
HETATM   11  C5  UNK     1      29.615  -9.081  37.616  1.00  0.00     0.007 C 
ENDBRANCH   7  10
ENDBRANCH   5   7
ENDBRANCH   1   3
BRANCH   1  12
HETATM   12  C8  UNK     1      23.270  -9.251  36.811  1.00  0.00    -0.021 A 
HETATM   13  C11 UNK     1      23.616 -10.551  36.489  1.00  0.00     0.012 A 
HETATM   14  C13 UNK     1      22.886 -11.229  35.511  1.00  0.00     0.001 A 
HETATM   15  C17 UNK     1      21.821 -10.594  34.872  1.00  0.00     0.000 A 
HETATM   16  C14 UNK     1      21.486  -9.283  35.209  1.00  0.00     0.001 A 
HETATM   17  C12 UNK     1      22.216  -8.605  36.187  1.00  0.00     0.012 A 
ENDBRANCH   1  12
BRANCH   2  18
HETATM   18  C10 UNK     1      21.992  -7.763  39.072  1.00  0.00    -0.035 A 
HETATM   19  C16 UNK     1      21.366  -6.534  38.924  1.00  0.00     0.011 A 
HETATM   20  C19 UNK     1      19.989  -6.437  39.133  1.00  0.00     0.001 A 
HETATM   21  C20 UNK     1      19.256  -7.569  39.485  1.00  0.00     0.000 A 
HETATM   22  C18 UNK     1      19.897  -8.799  39.629  1.00  0.00     0.001 A 
HETATM   23  C15 UNK     1      21.273  -8.896  39.422  1.00  0.00     0.011 A 
ENDBRANCH   2  18
TORSDOF 5
ENDMDL
MODEL 6
REMARK VINA RESULT:      -6.7      0.903      1.898
REMARK  5 active torsions:
REMARK  status: ('A' for Active; 'I' for Inactive)
REMARK    1  A    between atoms: C1_3  and  N1_2 
REMARK       I    between atoms: C6_8  and  N1_2 
REMARK    2  A    between atoms: C1_3  and  C2_4 
REMARK    3  A    between atoms: C6_8  and  C7_9 
REMARK    4  A    between atoms: C7_9  and  C8_10 
REMARK    5  A    between atoms: C10_12  and  C9_11 
ROOT
HETATM    1  C7  UNK     1      20.885  -4.130  15.766  1.00  0.00     0.043 C 
HETATM    2  C9  UNK     1      20.623  -5.454  15.757  1.00  0.00     0.029 C 
ENDROOT
BRANCH   1   3
HETATM    3  C6  UNK     1      21.884  -3.660  16.794  1.00  0.00     0.253 C 
HETATM    4  O1  UNK     1      21.640  -2.724  17.551  1.00  0.00    -0.268 OA
HETATM    5  N1  UNK     1      23.070  -4.369  16.787  1.00  0.00    -0.348 N 
HETATM    6  H9  UNK     1      23.215  -5.131  16.132  1.00  0.00     0.163 HD
BRANCH   5   7
HETATM    7  C1  UNK     1      24.158  -4.057  17.699  1.00  0.00     0.025 C 
HETATM    8  C3  UNK     1      25.333  -4.998  17.388  1.00  0.00     0.038 C 
HETATM    9  C4  UNK     1      24.608  -2.607  17.474  1.00  0.00     0.038 C 
BRANCH   7  10
HETATM   10  C2  UNK     1      23.708  -4.290  19.161  1.00  0.00     0.026 C 
HETATM   11  C5  UNK     1      23.533  -5.753  19.557  1.00  0.00     0.007 C 
ENDBRANCH   7  10
ENDBRANCH   5   7
ENDBRANCH   1   3
BRANCH   1  12
HETATM   12  C8  UNK     1      20.249  -3.198  14.815  1.00  0.00    -0.021 A 
HETATM   13  C11 UNK     1      20.934  -2.827  13.671  1.00  0.00     0.012 A 
HETATM   14  C13 UNK     1      20.331  -1.946  12.772  1.00  0.00     0.001 A 
HETATM   15  C17 UNK     1      19.054  -1.451  13.031  1.00  0.00     0.000 A 
HETATM   16  C14 UNK     1      18.378  -1.836  14.189  1.00  0.00     0.001 A 
HETATM   17  C12 UNK     1      18.979  -2.716  15.088  1.00  0.00     0.012 A 
ENDBRANCH   1  12
BRANCH   2  18
HETATM   18  C10 UNK     1      19.712  -6.142  14.831  1.00  0.00    -0.035 A 
HETATM   19  C16 UNK     1      18.380  -6.304  15.180  1.00  0.00     0.011 A 
HETATM   20  C19 UNK     1      17.515  -6.958  14.300  1.00  0.00     0.001 A 
HETATM   21  C20 UNK     1      17.994  -7.441  13.083  1.00  0.00     0.000 A 
HETATM   22  C18 UNK     1      19.336  -7.272  12.744  1.00  0.00     0.001 A 
HETATM   23  C15 UNK     1      20.200  -6.619  13.623  1.00  0.00     0.011 A 
ENDBRANCH   2  18
TORSDOF 5
ENDMDL
MODEL 7
REMARK VINA RESULT:      -6.6     17.396     21.494
REMARK  5 active torsions:
REMARK  status: ('A' for Active; 'I' for Inactive)
REMARK    1  A    between atoms: C1_3  and  N1_2 
REMARK       I    between atoms: C6_8  and  N1_2 
REMARK    2  A    between atoms: C1_3  and  C2_4 
REMARK    3  A    between atoms: C6_8  and  C7_9 
REMARK    4  A    between atoms: C7_9  and  C8_10 
REMARK    5  A    between atoms: C10_12  and  C9_11 
ROOT
HETATM    1  C7  UNK     1      28.336  -7.156  34.901  1.00  0.00     0.043 C 
HETATM    2  C9  UNK     1      27.815  -6.253  34.045  1.00  0.00     0.029 C 
ENDROOT
BRANCH   1   3
HETATM    3  C6  UNK     1      27.880  -7.049  36.334  1.00  0.00     0.253 C 
HETATM    4  O1  UNK     1      26.966  -7.743  36.775  1.00  0.00    -0.268 OA
HETATM    5  N1  UNK     1      28.573  -6.110  37.074  1.00  0.00    -0.348 N 
HETATM    6  H9  UNK     1      29.316  -5.563  36.652  1.00  0.00     0.163 HD
BRANCH   5   7
HETATM    7  C1  UNK     1      28.271  -5.857  38.473  1.00  0.00     0.025 C 
HETATM    8  C3  UNK     1      26.822  -5.352  38.570  1.00  0.00     0.038 C 
HETATM    9  C4  UNK     1      28.395  -7.168  39.263  1.00  0.00     0.038 C 
BRANCH   7  10
HETATM   10  C2  UNK     1      29.216  -4.767  39.032  1.00  0.00     0.026 C 
HETATM   11  C5  UNK     1      30.043  -4.031  37.983  1.00  0.00     0.007 C 
ENDBRANCH   7  10
ENDBRANCH   5   7
ENDBRANCH   1   3
BRANCH   1  12
HETATM   12  C8  UNK     1      29.281  -8.201  34.460  1.00  0.00    -0.021 A 
HETATM   13  C11 UNK     1      30.642  -7.957  34.533  1.00  0.00     0.012 A 
HETATM   14  C13 UNK     1      31.534  -8.945  34.116  1.00  0.00     0.001 A 
HETATM   15  C17 UNK     1      31.052 -10.162  33.634  1.00  0.00     0.000 A 
HETATM   16  C14 UNK     1      29.678 -10.391  33.568  1.00  0.00     0.001 A 
HETATM   17  C12 UNK     1      28.785  -9.403  33.984  1.00  0.00     0.012 A 
ENDBRANCH   1  12
BRANCH   2  18
HETATM   18  C10 UNK     1      28.087  -6.182  32.601  1.00  0.00    -0.035 A 
HETATM   19  C16 UNK     1      27.268  -6.871  31.719  1.00  0.00     0.011 A 
HETATM   20  C19 UNK     1      27.527  -6.803  30.349  1.00  0.00     0.001 A 
HETATM   21  C20 UNK     1      28.600  -6.049  29.878  1.00  0.00     0.000 A 
HETATM   22  C18 UNK     1      29.416  -5.360  30.775  1.00  0.00     0.001 A 
HETATM   23  C15 UNK     1      29.158  -5.428  32.145  1.00  0.00     0.011 A 
ENDBRANCH   2  18
TORSDOF 5
ENDMDL
MODEL 8
REMARK VINA RESULT:      -6.6     14.896     17.404
REMARK  5 active torsions:
REMARK  status: ('A' for Active; 'I' for Inactive)
REMARK    1  A    between atoms: C1_3  and  N1_2 
REMARK       I    between atoms: C6_8  and  N1_2 
REMARK    2  A    between atoms: C1_3  and  C2_4 
REMARK    3  A    between atoms: C6_8  and  C7_9 
REMARK    4  A    between atoms: C7_9  and  C8_10 
REMARK    5  A    between atoms: C10_12  and  C9_11 
ROOT
HETATM    1  C7  UNK     1      13.692   8.529   9.718  1.00  0.00     0.043 C 
HETATM    2  C9  UNK     1      14.745   8.688   8.890  1.00  0.00     0.029 C 
ENDROOT
BRANCH   1   3
HETATM    3  C6  UNK     1      12.852   7.297   9.491  1.00  0.00     0.253 C 
HETATM    4  O1  UNK     1      12.613   6.503  10.398  1.00  0.00    -0.268 OA
HETATM    5  N1  UNK     1      12.402   7.157   8.193  1.00  0.00    -0.348 N 
HETATM    6  H9  UNK     1      12.638   7.845   7.486  1.00  0.00     0.163 HD
BRANCH   5   7
HETATM    7  C1  UNK     1      11.585   6.028   7.779  1.00  0.00     0.025 C 
HETATM    8  C3  UNK     1      12.364   4.736   8.075  1.00  0.00     0.038 C 
HETATM    9  C4  UNK     1      10.283   6.021   8.591  1.00  0.00     0.038 C 
BRANCH   7  10
HETATM   10  C2  UNK     1      11.306   6.103   6.259  1.00  0.00     0.026 C 
HETATM   11  C5  UNK     1       9.830   6.160   5.877  1.00  0.00     0.007 C 
ENDBRANCH   7  10
ENDBRANCH   5   7
ENDBRANCH   1   3
BRANCH   1  12
HETATM   12  C8  UNK     1      13.389   9.491  10.796  1.00  0.00    -0.021 A 
HETATM   13  C11 UNK     1      14.036   9.369  12.013  1.00  0.00     0.012 A 
HETATM   14  C13 UNK     1      13.749  10.279  13.031  1.00  0.00     0.001 A 
HETATM   15  C17 UNK     1      12.820  11.296  12.815  1.00  0.00     0.000 A 
HETATM   16  C14 UNK     1      12.177  11.405  11.583  1.00  0.00     0.001 A 
HETATM   17  C12 UNK     1      12.463  10.495  10.564  1.00  0.00     0.012 A 
ENDBRANCH   1  12
BRANCH   2  18
HETATM   18  C10 UNK     1      15.718   9.790   8.940  1.00  0.00    -0.035 A 
HETATM   19  C16 UNK     1      15.459  10.959   8.240  1.00  0.00     0.011 A 
HETATM   20  C19 UNK     1      16.382  12.005   8.287  1.00  0.00     0.001 A 
HETATM   21  C20 UNK     1      17.551  11.869   9.034  1.00  0.00     0.000 A 
HETATM   22  C18 UNK     1      17.800  10.689   9.733  1.00  0.00     0.001 A 
HETATM   23  C15 UNK     1      16.878   9.643   9.686  1.00  0.00     0.011 A 
ENDBRANCH   2  18
TORSDOF 5
ENDMDL
MODEL 9
REMARK VINA RESULT:      -6.6     17.350     21.473
REMARK  5 active torsions:
REMARK  status: ('A' for Active; 'I' for Inactive)
REMARK    1  A    between atoms: C1_3  and  N1_2 
REMARK       I    between atoms: C6_8  and  N1_2 
REMARK    2  A    between atoms: C1_3  and  C2_4 
REMARK    3  A    between atoms: C6_8  and  C7_9 
REMARK    4  A    between atoms: C7_9  and  C8_10 
REMARK    5  A    between atoms: C10_12  and  C9_11 
ROOT
HETATM    1  C7  UNK     1      29.953  -6.463  34.386  1.00  0.00     0.043 C 
HETATM    2  C9  UNK     1      29.857  -6.064  33.101  1.00  0.00     0.029 C 
ENDROOT
BRANCH   1   3
HETATM    3  C6  UNK     1      30.919  -5.691  35.249  1.00  0.00     0.253 C 
HETATM    4  O1  UNK     1      32.108  -5.587  34.954  1.00  0.00    -0.268 OA
HETATM    5  N1  UNK     1      30.343  -5.136  36.376  1.00  0.00    -0.348 N 
HETATM    6  H9  UNK     1      29.355  -5.261  36.568  1.00  0.00     0.163 HD
BRANCH   5   7
HETATM    7  C1  UNK     1      31.117  -4.363  37.333  1.00  0.00     0.025 C 
HETATM    8  C3  UNK     1      32.194  -5.279  37.936  1.00  0.00     0.038 C 
HETATM    9  C4  UNK     1      31.805  -3.199  36.606  1.00  0.00     0.038 C 
BRANCH   7  10
HETATM   10  C2  UNK     1      30.200  -3.857  38.472  1.00  0.00     0.026 C 
HETATM   11  C5  UNK     1      28.912  -4.651  38.663  1.00  0.00     0.007 C 
ENDBRANCH   7  10
ENDBRANCH   5   7
ENDBRANCH   1   3
BRANCH   1  12
HETATM   12  C8  UNK     1      29.146  -7.576  34.924  1.00  0.00    -0.021 A 
HETATM   13  C11 UNK     1      29.509  -8.878  34.629  1.00  0.00     0.012 A 
HETATM   14  C13 UNK     1      28.746  -9.930  35.138  1.00  0.00     0.001 A 
HETATM   15  C17 UNK     1      27.632  -9.662  35.934  1.00  0.00     0.000 A 
HETATM   16  C14 UNK     1      27.281  -8.344  36.221  1.00  0.00     0.001 A 
HETATM   17  C12 UNK     1      28.044  -7.291  35.712  1.00  0.00     0.012 A 
ENDBRANCH   1  12
BRANCH   2  18
HETATM   18  C10 UNK     1      28.964  -6.643  32.086  1.00  0.00    -0.035 A 
HETATM   19  C16 UNK     1      27.646  -6.218  32.017  1.00  0.00     0.011 A 
HETATM   20  C19 UNK     1      26.798  -6.768  31.054  1.00  0.00     0.001 A 
HETATM   21  C20 UNK     1      27.279  -7.735  30.172  1.00  0.00     0.000 A 
HETATM   22  C18 UNK     1      28.607  -8.153  30.252  1.00  0.00     0.001 A 
HETATM   23  C15 UNK     1      29.454  -7.604  31.215  1.00  0.00     0.011 A 
ENDBRANCH   2  18
TORSDOF 5
ENDMDL
MODEL 10
REMARK VINA RESULT:      -6.6     17.931     21.847
REMARK  5 active torsions:
REMARK  status: ('A' for Active; 'I' for Inactive)
REMARK    1  A    between atoms: C1_3  and  N1_2 
REMARK       I    between atoms: C6_8  and  N1_2 
REMARK    2  A    between atoms: C1_3  and  C2_4 
REMARK    3  A    between atoms: C6_8  and  C7_9 
REMARK    4  A    between atoms: C7_9  and  C8_10 
REMARK    5  A    between atoms: C10_12  and  C9_11 
ROOT
HETATM    1  C7  UNK     1      28.445  -8.257  34.880  1.00  0.00     0.043 C 
HETATM    2  C9  UNK     1      28.052  -7.067  34.381  1.00  0.00     0.029 C 
ENDROOT
BRANCH   1   3
HETATM    3  C6  UNK     1      27.860  -8.640  36.217  1.00  0.00     0.253 C 
HETATM    4  O1  UNK     1      27.203  -9.669  36.363  1.00  0.00    -0.268 OA
HETATM    5  N1  UNK     1      28.127  -7.735  37.225  1.00  0.00    -0.348 N 
HETATM    6  H9  UNK     1      28.673  -6.900  37.041  1.00  0.00     0.163 HD
BRANCH   5   7
HETATM    7  C1  UNK     1      27.640  -7.928  38.581  1.00  0.00     0.025 C 
HETATM    8  C3  UNK     1      28.146  -6.762  39.446  1.00  0.00     0.038 C 
HETATM    9  C4  UNK     1      26.105  -7.913  38.575  1.00  0.00     0.038 C 
BRANCH   7  10
HETATM   10  C2  UNK     1      28.192  -9.253  39.160  1.00  0.00     0.026 C 
HETATM   11  C5  UNK     1      27.171 -10.104  39.908  1.00  0.00     0.007 C 
ENDBRANCH   7  10
ENDBRANCH   5   7
ENDBRANCH   1   3
BRANCH   1  12
HETATM   12  C8  UNK     1      29.376  -9.144  34.155  1.00  0.00    -0.021 A 
HETATM   13  C11 UNK     1      30.736  -9.027  34.380  1.00  0.00     0.012 A 
HETATM   14  C13 UNK     1      31.615  -9.865  33.694  1.00  0.00     0.001 A 
HETATM   15  C17 UNK     1      31.120 -10.808  32.793  1.00  0.00     0.000 A 
HETATM   16  C14 UNK     1      29.746 -10.912  32.578  1.00  0.00     0.001 A 
HETATM   17  C12 UNK     1      28.866 -10.074  33.264  1.00  0.00     0.012 A 
ENDBRANCH   1  12
BRANCH   2  18
HETATM   18  C10 UNK     1      28.464  -6.500  33.088  1.00  0.00    -0.035 A 
HETATM   19  C16 UNK     1      27.681  -6.725  31.966  1.00  0.00     0.011 A 
HETATM   20  C19 UNK     1      28.071  -6.188  30.739  1.00  0.00     0.001 A 
HETATM   21  C20 UNK     1      29.239  -5.431  30.649  1.00  0.00     0.000 A 
HETATM   22  C18 UNK     1      30.018  -5.212  31.785  1.00  0.00     0.001 A 
HETATM   23  C15 UNK     1      29.628  -5.750  33.012  1.00  0.00     0.011 A 
ENDBRANCH   2  18
TORSDOF 5
ENDMDL
