MODEL 1
REMARK VINA RESULT:      -8.9      0.000      0.000
REMARK  6 active torsions:
REMARK  status: ('A' for Active; 'I' for Inactive)
REMARK    1  A    between atoms: C11_17  and  S1_1 
REMARK    2  A    between atoms: C17_23  and  S1_1 
REMARK       I    between atoms: C10_16  and  N1_3 
REMARK    3  A    between atoms: C2_8  and  N1_3 
REMARK    4  A    between atoms: C1_7  and  C7_13 
REMARK    5  A    between atoms: C8_14  and  C9_15 
REMARK    6  A    between atoms: C10_16  and  C11_17 
ROOT
HETATM    1  C1  UNK     1      18.416   6.260  31.739  1.00  0.00    -0.036 A 
HETATM    2  C2  UNK     1      18.693   3.679  30.772  1.00  0.00     0.034 A 
HETATM    3  C3  UNK     1      19.050   6.056  30.526  1.00  0.00     0.013 A 
HETATM    4  C4  UNK     1      17.918   5.201  32.481  1.00  0.00     0.013 A 
HETATM    5  C5  UNK     1      19.190   4.756  30.037  1.00  0.00     0.030 A 
HETATM    6  C6  UNK     1      18.058   3.901  31.993  1.00  0.00     0.030 A 
ENDROOT
BRANCH   2   7
HETATM    7  N1  UNK     1      18.834   2.378  30.285  1.00  0.00    -0.327 N 
HETATM    8  C10 UNK     1      18.457   1.878  29.032  1.00  0.00     0.231 C 
HETATM    9  O1  UNK     1      17.911   2.499  28.123  1.00  0.00    -0.272 OA
HETATM   10  H6  UNK     1      19.263   1.719  30.931  1.00  0.00     0.169 HD
BRANCH   8  11
HETATM   11  C11 UNK     1      18.774   0.406  28.872  1.00  0.00     0.184 C 
BRANCH  11  12
HETATM   12  S1  UNK     1      20.434   0.093  29.523  1.00  0.00    -0.098 SA
BRANCH  12  13
HETATM   13  C17 UNK     1      20.019  -0.589  31.102  1.00  0.00     0.134 A 
HETATM   14  C18 UNK     1      20.523  -1.762  31.633  1.00  0.00     0.180 A 
HETATM   15  N4  UNK     1      19.982  -1.953  32.840  1.00  0.00    -0.167 NA
HETATM   16  N3  UNK     1      19.191  -0.873  32.939  1.00  0.00    -0.196 N 
HETATM   17  H16 UNK     1      18.625  -0.718  33.766  1.00  0.00     0.213 HD
HETATM   18  N2  UNK     1      19.165  -0.001  31.917  1.00  0.00    -0.149 NA
ENDBRANCH  12  13
ENDBRANCH  11  12
ENDBRANCH   8  11
ENDBRANCH   2   7
BRANCH   1  19
HETATM   19  C7  UNK     1      18.269   7.633  32.254  1.00  0.00     0.012 C 
HETATM   20  C9  UNK     1      17.365   8.026  33.183  1.00  0.00     0.012 C 
BRANCH  20  21
HETATM   21  C8  UNK     1      17.232   9.376  33.705  1.00  0.00    -0.036 A 
HETATM   22  C12 UNK     1      15.984   9.847  34.113  1.00  0.00     0.011 A 
HETATM   23  C14 UNK     1      15.856  11.143  34.613  1.00  0.00     0.001 A 
HETATM   24  C16 UNK     1      16.975  11.968  34.706  1.00  0.00     0.000 A 
HETATM   25  C15 UNK     1      18.224  11.498  34.298  1.00  0.00     0.001 A 
HETATM   26  C13 UNK     1      18.352  10.203  33.797  1.00  0.00     0.011 A 
ENDBRANCH  20  21
ENDBRANCH   1  19
TORSDOF 6
ENDMDL
MODEL 2
REMARK VINA RESULT:      -8.7      5.165      9.959
REMARK  6 active torsions:
REMARK  status: ('A' for Active; 'I' for Inactive)
REMARK    1  A    between atoms: C11_17  and  S1_1 
REMARK    2  A    between atoms: C17_23  and  S1_1 
REMARK       I    between atoms: C10_16  and  N1_3 
REMARK    3  A    between atoms: C2_8  and  N1_3 
REMARK    4  A    between atoms: C1_7  and  C7_13 
REMARK    5  A    between atoms: C8_14  and  C9_15 
REMARK    6  A    between atoms: C10_16  and  C11_17 
ROOT
HETATM    1  C1  UNK     1      18.342   4.912  31.545  1.00  0.00    -0.036 A 
HETATM    2  C2  UNK     1      17.334   7.045  32.997  1.00  0.00     0.034 A 
HETATM    3  C3  UNK     1      18.187   6.141  30.926  1.00  0.00     0.013 A 
HETATM    4  C4  UNK     1      18.002   4.726  32.875  1.00  0.00     0.013 A 
HETATM    5  C5  UNK     1      17.680   7.215  31.656  1.00  0.00     0.030 A 
HETATM    6  C6  UNK     1      17.494   5.801  33.606  1.00  0.00     0.030 A 
ENDROOT
BRANCH   2   7
HETATM    7  N1  UNK     1      16.824   8.119  33.728  1.00  0.00    -0.327 N 
HETATM    8  C10 UNK     1      15.516   8.304  34.198  1.00  0.00     0.231 C 
HETATM    9  O1  UNK     1      14.561   7.549  34.035  1.00  0.00    -0.272 OA
HETATM   10  H6  UNK     1      17.494   8.855  33.939  1.00  0.00     0.169 HD
BRANCH   8  11
HETATM   11  C11 UNK     1      15.347   9.603  34.956  1.00  0.00     0.184 C 
BRANCH  11  12
HETATM   12  S1  UNK     1      15.369  10.975  33.776  1.00  0.00    -0.098 SA
BRANCH  12  13
HETATM   13  C17 UNK     1      16.939  11.692  34.168  1.00  0.00     0.134 A 
HETATM   14  C18 UNK     1      17.142  12.815  34.949  1.00  0.00     0.180 A 
HETATM   15  N4  UNK     1      18.455  13.053  35.023  1.00  0.00    -0.167 NA
HETATM   16  N3  UNK     1      18.938  12.048  34.276  1.00  0.00    -0.196 N 
HETATM   17  H16 UNK     1      19.937  11.945  34.129  1.00  0.00     0.213 HD
HETATM   18  N2  UNK     1      18.071  11.183  33.725  1.00  0.00    -0.149 NA
ENDBRANCH  12  13
ENDBRANCH  11  12
ENDBRANCH   8  11
ENDBRANCH   2   7
BRANCH   1  19
HETATM   19  C7  UNK     1      18.878   3.777  30.773  1.00  0.00     0.012 C 
HETATM   20  C9  UNK     1      18.515   2.483  30.933  1.00  0.00     0.012 C 
BRANCH  20  21
HETATM   21  C8  UNK     1      19.029   1.365  30.158  1.00  0.00    -0.036 A 
HETATM   22  C12 UNK     1      20.044   0.563  30.680  1.00  0.00     0.011 A 
HETATM   23  C14 UNK     1      20.539  -0.509  29.937  1.00  0.00     0.001 A 
HETATM   24  C16 UNK     1      20.019  -0.779  28.672  1.00  0.00     0.000 A 
HETATM   25  C15 UNK     1      19.003   0.023  28.150  1.00  0.00     0.001 A 
HETATM   26  C13 UNK     1      18.510   1.095  28.892  1.00  0.00     0.011 A 
ENDBRANCH  20  21
ENDBRANCH   1  19
TORSDOF 6
ENDMDL
MODEL 3
REMARK VINA RESULT:      -8.6      4.604      9.344
REMARK  6 active torsions:
REMARK  status: ('A' for Active; 'I' for Inactive)
REMARK    1  A    between atoms: C11_17  and  S1_1 
REMARK    2  A    between atoms: C17_23  and  S1_1 
REMARK       I    between atoms: C10_16  and  N1_3 
REMARK    3  A    between atoms: C2_8  and  N1_3 
REMARK    4  A    between atoms: C1_7  and  C7_13 
REMARK    5  A    between atoms: C8_14  and  C9_15 
REMARK    6  A    between atoms: C10_16  and  C11_17 
ROOT
HETATM    1  C1  UNK     1      18.787   3.984  30.948  1.00  0.00    -0.036 A 
HETATM    2  C2  UNK     1      18.180   6.504  31.923  1.00  0.00     0.034 A 
HETATM    3  C3  UNK     1      17.920   4.105  32.020  1.00  0.00     0.013 A 
HETATM    4  C4  UNK     1      19.360   5.096  30.354  1.00  0.00     0.013 A 
HETATM    5  C5  UNK     1      17.613   5.374  32.512  1.00  0.00     0.030 A 
HETATM    6  C6  UNK     1      19.054   6.366  30.844  1.00  0.00     0.030 A 
ENDROOT
BRANCH   2   7
HETATM    7  N1  UNK     1      17.875   7.775  32.415  1.00  0.00    -0.327 N 
HETATM    8  C10 UNK     1      17.714   8.171  33.749  1.00  0.00     0.231 C 
HETATM    9  O1  UNK     1      17.797   7.456  34.745  1.00  0.00    -0.272 OA
HETATM   10  H6  UNK     1      17.756   8.496  31.706  1.00  0.00     0.169 HD
BRANCH   8  11
HETATM   11  C11 UNK     1      17.385   9.642  33.886  1.00  0.00     0.184 C 
BRANCH  11  12
HETATM   12  S1  UNK     1      15.597   9.823  34.093  1.00  0.00    -0.098 SA
BRANCH  12  13
HETATM   13  C17 UNK     1      15.029   8.647  32.898  1.00  0.00     0.134 A 
HETATM   14  C18 UNK     1      14.269   7.524  33.168  1.00  0.00     0.180 A 
HETATM   15  N4  UNK     1      14.034   6.881  32.020  1.00  0.00    -0.167 NA
HETATM   16  N3  UNK     1      14.676   7.674  31.148  1.00  0.00    -0.196 N 
HETATM   17  H16 UNK     1      14.688   7.453  30.158  1.00  0.00     0.213 HD
HETATM   18  N2  UNK     1      15.304   8.766  31.615  1.00  0.00    -0.149 NA
ENDBRANCH  12  13
ENDBRANCH  11  12
ENDBRANCH   8  11
ENDBRANCH   2   7
BRANCH   1  19
HETATM   19  C7  UNK     1      19.111   2.642  30.430  1.00  0.00     0.012 C 
HETATM   20  C9  UNK     1      19.455   1.575  31.188  1.00  0.00     0.012 C 
BRANCH  20  21
HETATM   21  C8  UNK     1      19.755   0.246  30.679  1.00  0.00    -0.036 A 
HETATM   22  C12 UNK     1      20.128   0.078  29.345  1.00  0.00     0.011 A 
HETATM   23  C14 UNK     1      20.415  -1.196  28.856  1.00  0.00     0.001 A 
HETATM   24  C16 UNK     1      20.330  -2.303  29.701  1.00  0.00     0.000 A 
HETATM   25  C15 UNK     1      19.958  -2.134  31.035  1.00  0.00     0.001 A 
HETATM   26  C13 UNK     1      19.670  -0.861  31.524  1.00  0.00     0.011 A 
ENDBRANCH  20  21
ENDBRANCH   1  19
TORSDOF 6
ENDMDL
MODEL 4
REMARK VINA RESULT:      -8.6      5.164      9.987
REMARK  6 active torsions:
REMARK  status: ('A' for Active; 'I' for Inactive)
REMARK    1  A    between atoms: C11_17  and  S1_1 
REMARK    2  A    between atoms: C17_23  and  S1_1 
REMARK       I    between atoms: C10_16  and  N1_3 
REMARK    3  A    between atoms: C2_8  and  N1_3 
REMARK    4  A    between atoms: C1_7  and  C7_13 
REMARK    5  A    between atoms: C8_14  and  C9_15 
REMARK    6  A    between atoms: C10_16  and  C11_17 
ROOT
HETATM    1  C1  UNK     1      18.356   4.872  31.620  1.00  0.00    -0.036 A 
HETATM    2  C2  UNK     1      17.352   6.992  33.094  1.00  0.00     0.034 A 
HETATM    3  C3  UNK     1      18.093   4.696  32.968  1.00  0.00     0.013 A 
HETATM    4  C4  UNK     1      18.129   6.086  30.993  1.00  0.00     0.013 A 
HETATM    5  C5  UNK     1      17.587   5.763  33.711  1.00  0.00     0.030 A 
HETATM    6  C6  UNK     1      17.623   7.154  31.735  1.00  0.00     0.030 A 
ENDROOT
BRANCH   2   7
HETATM    7  N1  UNK     1      16.847   8.060  33.837  1.00  0.00    -0.327 N 
HETATM    8  C10 UNK     1      15.517   8.308  34.203  1.00  0.00     0.231 C 
HETATM    9  O1  UNK     1      14.535   7.626  33.919  1.00  0.00    -0.272 OA
HETATM   10  H6  UNK     1      17.540   8.740  34.143  1.00  0.00     0.169 HD
BRANCH   8  11
HETATM   11  C11 UNK     1      15.362   9.577  35.014  1.00  0.00     0.184 C 
BRANCH  11  12
HETATM   12  S1  UNK     1      15.290  10.987  33.882  1.00  0.00    -0.098 SA
BRANCH  12  13
HETATM   13  C17 UNK     1      16.883  11.699  34.178  1.00  0.00     0.134 A 
HETATM   14  C18 UNK     1      17.129  12.874  34.865  1.00  0.00     0.180 A 
HETATM   15  N4  UNK     1      18.447  13.089  34.887  1.00  0.00    -0.167 NA
HETATM   16  N3  UNK     1      18.891  12.020  34.207  1.00  0.00    -0.196 N 
HETATM   17  H16 UNK     1      19.883  11.885  34.044  1.00  0.00     0.213 HD
HETATM   18  N2  UNK     1      17.993  11.134  33.747  1.00  0.00    -0.149 NA
ENDBRANCH  12  13
ENDBRANCH  11  12
ENDBRANCH   8  11
ENDBRANCH   2   7
BRANCH   1  19
HETATM   19  C7  UNK     1      18.891   3.745  30.836  1.00  0.00     0.012 C 
HETATM   20  C9  UNK     1      18.494   2.456  30.951  1.00  0.00     0.012 C 
BRANCH  20  21
HETATM   21  C8  UNK     1      19.007   1.346  30.165  1.00  0.00    -0.036 A 
HETATM   22  C12 UNK     1      18.482   1.086  28.899  1.00  0.00     0.011 A 
HETATM   23  C14 UNK     1      18.974   0.020  28.145  1.00  0.00     0.001 A 
HETATM   24  C16 UNK     1      19.990  -0.786  28.656  1.00  0.00     0.000 A 
HETATM   25  C15 UNK     1      20.515  -0.526  29.923  1.00  0.00     0.001 A 
HETATM   26  C13 UNK     1      20.023   0.539  30.677  1.00  0.00     0.011 A 
ENDBRANCH  20  21
ENDBRANCH   1  19
TORSDOF 6
ENDMDL
MODEL 5
REMARK VINA RESULT:      -8.2      5.013     10.053
REMARK  6 active torsions:
REMARK  status: ('A' for Active; 'I' for Inactive)
REMARK    1  A    between atoms: C11_17  and  S1_1 
REMARK    2  A    between atoms: C17_23  and  S1_1 
REMARK       I    between atoms: C10_16  and  N1_3 
REMARK    3  A    between atoms: C2_8  and  N1_3 
REMARK    4  A    between atoms: C1_7  and  C7_13 
REMARK    5  A    between atoms: C8_14  and  C9_15 
REMARK    6  A    between atoms: C10_16  and  C11_17 
ROOT
HETATM    1  C1  UNK     1      18.648   4.214  31.082  1.00  0.00    -0.036 A 
HETATM    2  C2  UNK     1      17.871   6.647  32.154  1.00  0.00     0.034 A 
HETATM    3  C3  UNK     1      18.963   5.383  30.410  1.00  0.00     0.013 A 
HETATM    4  C4  UNK     1      17.951   4.236  32.278  1.00  0.00     0.013 A 
HETATM    5  C5  UNK     1      18.572   6.609  30.949  1.00  0.00     0.030 A 
HETATM    6  C6  UNK     1      17.560   5.461  32.819  1.00  0.00     0.030 A 
ENDROOT
BRANCH   2   7
HETATM    7  N1  UNK     1      17.478   7.873  32.694  1.00  0.00    -0.327 N 
HETATM    8  C10 UNK     1      18.189   8.698  33.575  1.00  0.00     0.231 C 
HETATM    9  O1  UNK     1      19.300   8.483  34.053  1.00  0.00    -0.272 OA
HETATM   10  H6  UNK     1      16.557   8.196  32.407  1.00  0.00     0.169 HD
BRANCH   8  11
HETATM   11  C11 UNK     1      17.428   9.956  33.939  1.00  0.00     0.184 C 
BRANCH  11  12
HETATM   12  S1  UNK     1      15.851   9.485  34.691  1.00  0.00    -0.098 SA
BRANCH  12  13
HETATM   13  C17 UNK     1      14.744  10.469  33.721  1.00  0.00     0.134 A 
HETATM   14  C18 UNK     1      14.801  11.843  33.575  1.00  0.00     0.180 A 
HETATM   15  N4  UNK     1      13.806  12.230  32.771  1.00  0.00    -0.167 NA
HETATM   16  N3  UNK     1      13.228  11.050  32.496  1.00  0.00    -0.196 N 
HETATM   17  H16 UNK     1      12.416  10.999  31.891  1.00  0.00     0.213 HD
HETATM   18  N2  UNK     1      13.747   9.938  33.042  1.00  0.00    -0.149 NA
ENDBRANCH  12  13
ENDBRANCH  11  12
ENDBRANCH   8  11
ENDBRANCH   2   7
BRANCH   1  19
HETATM   19  C7  UNK     1      19.062   2.920  30.511  1.00  0.00     0.012 C 
HETATM   20  C9  UNK     1      19.150   1.756  31.197  1.00  0.00     0.012 C 
BRANCH  20  21
HETATM   21  C8  UNK     1      19.539   0.475  30.631  1.00  0.00    -0.036 A 
HETATM   22  C12 UNK     1      19.797   0.366  29.264  1.00  0.00     0.011 A 
HETATM   23  C14 UNK     1      20.169  -0.863  28.720  1.00  0.00     0.001 A 
HETATM   24  C16 UNK     1      20.284  -1.984  29.542  1.00  0.00     0.000 A 
HETATM   25  C15 UNK     1      20.026  -1.875  30.909  1.00  0.00     0.001 A 
HETATM   26  C13 UNK     1      19.653  -0.646  31.453  1.00  0.00     0.011 A 
ENDBRANCH  20  21
ENDBRANCH   1  19
TORSDOF 6
ENDMDL
MODEL 6
REMARK VINA RESULT:      -8.2      5.380     10.149
REMARK  6 active torsions:
REMARK  status: ('A' for Active; 'I' for Inactive)
REMARK    1  A    between atoms: C11_17  and  S1_1 
REMARK    2  A    between atoms: C17_23  and  S1_1 
REMARK       I    between atoms: C10_16  and  N1_3 
REMARK    3  A    between atoms: C2_8  and  N1_3 
REMARK    4  A    between atoms: C1_7  and  C7_13 
REMARK    5  A    between atoms: C8_14  and  C9_15 
REMARK    6  A    between atoms: C10_16  and  C11_17 
ROOT
HETATM    1  C1  UNK     1      18.583   4.436  31.062  1.00  0.00    -0.036 A 
HETATM    2  C2  UNK     1      17.685   6.821  32.149  1.00  0.00     0.034 A 
HETATM    3  C3  UNK     1      18.745   5.611  30.347  1.00  0.00     0.013 A 
HETATM    4  C4  UNK     1      17.980   4.429  32.309  1.00  0.00     0.013 A 
HETATM    5  C5  UNK     1      18.294   6.812  30.894  1.00  0.00     0.030 A 
HETATM    6  C6  UNK     1      17.528   5.630  32.857  1.00  0.00     0.030 A 
ENDROOT
BRANCH   2   7
HETATM    7  N1  UNK     1      17.232   8.023  32.696  1.00  0.00    -0.327 N 
HETATM    8  C10 UNK     1      17.873   8.843  33.634  1.00  0.00     0.231 C 
HETATM    9  O1  UNK     1      18.962   8.644  34.165  1.00  0.00    -0.272 OA
HETATM   10  H6  UNK     1      16.319   8.330  32.367  1.00  0.00     0.169 HD
BRANCH   8  11
HETATM   11  C11 UNK     1      17.061  10.072  33.986  1.00  0.00     0.184 C 
BRANCH  11  12
HETATM   12  S1  UNK     1      15.370   9.846  33.380  1.00  0.00    -0.098 SA
BRANCH  12  13
HETATM   13  C17 UNK     1      14.475  10.695  34.649  1.00  0.00     0.134 A 
HETATM   14  C18 UNK     1      13.355  11.484  34.458  1.00  0.00     0.180 A 
HETATM   15  N4  UNK     1      12.957  11.956  35.644  1.00  0.00    -0.167 NA
HETATM   16  N3  UNK     1      13.874  11.409  36.457  1.00  0.00    -0.196 N 
HETATM   17  H16 UNK     1      13.849  11.580  37.456  1.00  0.00     0.213 HD
HETATM   18  N2  UNK     1      14.828  10.631  35.918  1.00  0.00    -0.149 NA
ENDBRANCH  12  13
ENDBRANCH  11  12
ENDBRANCH   8  11
ENDBRANCH   2   7
BRANCH   1  19
HETATM   19  C7  UNK     1      19.060   3.167  30.484  1.00  0.00     0.012 C 
HETATM   20  C9  UNK     1      18.912   1.947  31.051  1.00  0.00     0.012 C 
BRANCH  20  21
HETATM   21  C8  UNK     1      19.366   0.692  30.472  1.00  0.00    -0.036 A 
HETATM   22  C12 UNK     1      19.670  -0.388  31.300  1.00  0.00     0.011 A 
HETATM   23  C14 UNK     1      20.106  -1.591  30.745  1.00  0.00     0.001 A 
HETATM   24  C16 UNK     1      20.238  -1.715  29.363  1.00  0.00     0.000 A 
HETATM   25  C15 UNK     1      19.934  -0.634  28.535  1.00  0.00     0.001 A 
HETATM   26  C13 UNK     1      19.498   0.569  29.089  1.00  0.00     0.011 A 
ENDBRANCH  20  21
ENDBRANCH   1  19
TORSDOF 6
ENDMDL
MODEL 7
REMARK VINA RESULT:      -8.1      4.944      6.894
REMARK  6 active torsions:
REMARK  status: ('A' for Active; 'I' for Inactive)
REMARK    1  A    between atoms: C11_17  and  S1_1 
REMARK    2  A    between atoms: C17_23  and  S1_1 
REMARK       I    between atoms: C10_16  and  N1_3 
REMARK    3  A    between atoms: C2_8  and  N1_3 
REMARK    4  A    between atoms: C1_7  and  C7_13 
REMARK    5  A    between atoms: C8_14  and  C9_15 
REMARK    6  A    between atoms: C10_16  and  C11_17 
ROOT
HETATM    1  C1  UNK     1      18.272   1.285  34.079  1.00  0.00    -0.036 A 
HETATM    2  C2  UNK     1      18.685  -0.941  35.674  1.00  0.00     0.034 A 
HETATM    3  C3  UNK     1      18.410   0.042  33.485  1.00  0.00     0.013 A 
HETATM    4  C4  UNK     1      18.337   1.439  35.454  1.00  0.00     0.013 A 
HETATM    5  C5  UNK     1      18.618  -1.080  34.288  1.00  0.00     0.030 A 
HETATM    6  C6  UNK     1      18.544   0.317  36.258  1.00  0.00     0.030 A 
ENDROOT
BRANCH   2   7
HETATM    7  N1  UNK     1      18.894  -2.063  36.478  1.00  0.00    -0.327 N 
HETATM    8  C10 UNK     1      19.990  -2.938  36.476  1.00  0.00     0.231 C 
HETATM    9  O1  UNK     1      20.974  -2.884  35.743  1.00  0.00    -0.272 OA
HETATM   10  H6  UNK     1      18.151  -2.263  37.144  1.00  0.00     0.169 HD
BRANCH   8  11
HETATM   11  C11 UNK     1      19.855  -4.045  37.499  1.00  0.00     0.184 C 
BRANCH  11  12
HETATM   12  S1  UNK     1      20.368  -5.606  36.741  1.00  0.00    -0.098 SA
BRANCH  12  13
HETATM   13  C17 UNK     1      18.789  -6.252  36.271  1.00  0.00     0.134 A 
HETATM   14  C18 UNK     1      18.565  -7.213  35.302  1.00  0.00     0.180 A 
HETATM   15  N4  UNK     1      17.251  -7.448  35.228  1.00  0.00    -0.167 NA
HETATM   16  N3  UNK     1      16.789  -6.603  36.163  1.00  0.00    -0.196 N 
HETATM   17  H16 UNK     1      15.795  -6.538  36.357  1.00  0.00     0.213 HD
HETATM   18  N2  UNK     1      17.670  -5.845  36.836  1.00  0.00    -0.149 NA
ENDBRANCH  12  13
ENDBRANCH  11  12
ENDBRANCH   8  11
ENDBRANCH   2   7
BRANCH   1  19
HETATM   19  C7  UNK     1      18.053   2.470  33.230  1.00  0.00     0.012 C 
HETATM   20  C9  UNK     1      18.362   3.743  33.572  1.00  0.00     0.012 C 
BRANCH  20  21
HETATM   21  C8  UNK     1      18.164   4.910  32.728  1.00  0.00    -0.036 A 
HETATM   22  C12 UNK     1      18.854   5.024  31.521  1.00  0.00     0.011 A 
HETATM   23  C14 UNK     1      18.665   6.144  30.711  1.00  0.00     0.001 A 
HETATM   24  C16 UNK     1      17.786   7.150  31.108  1.00  0.00     0.000 A 
HETATM   25  C15 UNK     1      17.095   7.037  32.315  1.00  0.00     0.001 A 
HETATM   26  C13 UNK     1      17.285   5.918  33.125  1.00  0.00     0.011 A 
ENDBRANCH  20  21
ENDBRANCH   1  19
TORSDOF 6
ENDMDL
MODEL 8
REMARK VINA RESULT:      -8.1      5.192      7.229
REMARK  6 active torsions:
REMARK  status: ('A' for Active; 'I' for Inactive)
REMARK    1  A    between atoms: C11_17  and  S1_1 
REMARK    2  A    between atoms: C17_23  and  S1_1 
REMARK       I    between atoms: C10_16  and  N1_3 
REMARK    3  A    between atoms: C2_8  and  N1_3 
REMARK    4  A    between atoms: C1_7  and  C7_13 
REMARK    5  A    between atoms: C8_14  and  C9_15 
REMARK    6  A    between atoms: C10_16  and  C11_17 
ROOT
HETATM    1  C1  UNK     1      18.351   1.425  34.546  1.00  0.00    -0.036 A 
HETATM    2  C2  UNK     1      18.530  -1.154  35.538  1.00  0.00     0.034 A 
HETATM    3  C3  UNK     1      18.339   1.224  35.916  1.00  0.00     0.013 A 
HETATM    4  C4  UNK     1      18.449   0.364  33.661  1.00  0.00     0.013 A 
HETATM    5  C5  UNK     1      18.429  -0.075  36.416  1.00  0.00     0.030 A 
HETATM    6  C6  UNK     1      18.540  -0.935  34.161  1.00  0.00     0.030 A 
ENDROOT
BRANCH   2   7
HETATM    7  N1  UNK     1      18.619  -2.455  36.038  1.00  0.00    -0.327 N 
HETATM    8  C10 UNK     1      19.768  -3.239  36.212  1.00  0.00     0.231 C 
HETATM    9  O1  UNK     1      20.923  -2.924  35.938  1.00  0.00    -0.272 OA
HETATM   10  H6  UNK     1      17.732  -2.878  36.304  1.00  0.00     0.169 HD
BRANCH   8  11
HETATM   11  C11 UNK     1      19.460  -4.606  36.784  1.00  0.00     0.184 C 
BRANCH  11  12
HETATM   12  S1  UNK     1      20.897  -5.184  37.720  1.00  0.00    -0.098 SA
BRANCH  12  13
HETATM   13  C17 UNK     1      21.212  -6.713  36.885  1.00  0.00     0.134 A 
HETATM   14  C18 UNK     1      20.571  -7.157  35.743  1.00  0.00     0.180 A 
HETATM   15  N4  UNK     1      21.072  -8.348  35.406  1.00  0.00    -0.167 NA
HETATM   16  N3  UNK     1      21.980  -8.526  36.379  1.00  0.00    -0.196 N 
HETATM   17  H16 UNK     1      22.550  -9.365  36.410  1.00  0.00     0.213 HD
HETATM   18  N2  UNK     1      22.117  -7.570  37.313  1.00  0.00    -0.149 NA
ENDBRANCH  12  13
ENDBRANCH  11  12
ENDBRANCH   8  11
ENDBRANCH   2   7
BRANCH   1  19
HETATM   19  C7  UNK     1      18.255   2.798  34.018  1.00  0.00     0.012 C 
HETATM   20  C9  UNK     1      18.331   3.138  32.710  1.00  0.00     0.012 C 
BRANCH  20  21
HETATM   21  C8  UNK     1      18.218   4.490  32.187  1.00  0.00    -0.036 A 
HETATM   22  C12 UNK     1      17.497   5.454  32.893  1.00  0.00     0.011 A 
HETATM   23  C14 UNK     1      17.387   6.750  32.391  1.00  0.00     0.001 A 
HETATM   24  C16 UNK     1      17.997   7.084  31.183  1.00  0.00     0.000 A 
HETATM   25  C15 UNK     1      18.718   6.121  30.476  1.00  0.00     0.001 A 
HETATM   26  C13 UNK     1      18.828   4.824  30.978  1.00  0.00     0.011 A 
ENDBRANCH  20  21
ENDBRANCH   1  19
TORSDOF 6
ENDMDL
MODEL 9
REMARK VINA RESULT:      -8.0      5.400     10.112
REMARK  6 active torsions:
REMARK  status: ('A' for Active; 'I' for Inactive)
REMARK    1  A    between atoms: C11_17  and  S1_1 
REMARK    2  A    between atoms: C17_23  and  S1_1 
REMARK       I    between atoms: C10_16  and  N1_3 
REMARK    3  A    between atoms: C2_8  and  N1_3 
REMARK    4  A    between atoms: C1_7  and  C7_13 
REMARK    5  A    between atoms: C8_14  and  C9_15 
REMARK    6  A    between atoms: C10_16  and  C11_17 
ROOT
HETATM    1  C1  UNK     1      18.369   5.131  31.773  1.00  0.00    -0.036 A 
HETATM    2  C2  UNK     1      17.294   7.388  32.966  1.00  0.00     0.034 A 
HETATM    3  C3  UNK     1      18.070   6.234  30.991  1.00  0.00     0.013 A 
HETATM    4  C4  UNK     1      18.141   5.133  33.139  1.00  0.00     0.013 A 
HETATM    5  C5  UNK     1      17.529   7.371  31.591  1.00  0.00     0.030 A 
HETATM    6  C6  UNK     1      17.600   6.270  33.740  1.00  0.00     0.030 A 
ENDROOT
BRANCH   2   7
HETATM    7  N1  UNK     1      16.751   8.525  33.567  1.00  0.00    -0.327 N 
HETATM    8  C10 UNK     1      17.394   9.733  33.874  1.00  0.00     0.231 C 
HETATM    9  O1  UNK     1      18.575  10.009  33.681  1.00  0.00    -0.272 OA
HETATM   10  H6  UNK     1      15.766   8.457  33.810  1.00  0.00     0.169 HD
BRANCH   8  11
HETATM   11  C11 UNK     1      16.468  10.737  34.526  1.00  0.00     0.184 C 
BRANCH  11  12
HETATM   12  S1  UNK     1      14.902   9.918  34.917  1.00  0.00    -0.098 SA
BRANCH  12  13
HETATM   13  C17 UNK     1      13.809  10.829  33.863  1.00  0.00     0.134 A 
HETATM   14  C18 UNK     1      12.846  11.728  34.282  1.00  0.00     0.180 A 
HETATM   15  N4  UNK     1      12.220  12.217  33.208  1.00  0.00    -0.167 NA
HETATM   16  N3  UNK     1      12.861  11.568  32.223  1.00  0.00    -0.196 N 
HETATM   17  H16 UNK     1      12.612  11.723  31.252  1.00  0.00     0.213 HD
HETATM   18  N2  UNK     1      13.839  10.708  32.551  1.00  0.00    -0.149 NA
ENDBRANCH  12  13
ENDBRANCH  11  12
ENDBRANCH   8  11
ENDBRANCH   2   7
BRANCH   1  19
HETATM   19  C7  UNK     1      18.941   3.930  31.138  1.00  0.00     0.012 C 
HETATM   20  C9  UNK     1      18.232   2.851  30.731  1.00  0.00     0.012 C 
BRANCH  20  21
HETATM   21  C8  UNK     1      18.793   1.673  30.088  1.00  0.00    -0.036 A 
HETATM   22  C12 UNK     1      18.360   1.301  28.815  1.00  0.00     0.011 A 
HETATM   23  C14 UNK     1      18.897   0.171  28.197  1.00  0.00     0.001 A 
HETATM   24  C16 UNK     1      19.866  -0.587  28.852  1.00  0.00     0.000 A 
HETATM   25  C15 UNK     1      20.300  -0.214  30.125  1.00  0.00     0.001 A 
HETATM   26  C13 UNK     1      19.763   0.914  30.743  1.00  0.00     0.011 A 
ENDBRANCH  20  21
ENDBRANCH   1  19
TORSDOF 6
ENDMDL
MODEL 10
REMARK VINA RESULT:      -7.9      7.726     14.756
REMARK  6 active torsions:
REMARK  status: ('A' for Active; 'I' for Inactive)
REMARK    1  A    between atoms: C11_17  and  S1_1 
REMARK    2  A    between atoms: C17_23  and  S1_1 
REMARK       I    between atoms: C10_16  and  N1_3 
REMARK    3  A    between atoms: C2_8  and  N1_3 
REMARK    4  A    between atoms: C1_7  and  C7_13 
REMARK    5  A    between atoms: C8_14  and  C9_15 
REMARK    6  A    between atoms: C10_16  and  C11_17 
ROOT
HETATM    1  C1  UNK     1      21.014  -7.223  36.348  1.00  0.00    -0.036 A 
HETATM    2  C2  UNK     1      19.710  -4.813  36.751  1.00  0.00     0.034 A 
HETATM    3  C3  UNK     1      20.068  -6.802  35.428  1.00  0.00     0.013 A 
HETATM    4  C4  UNK     1      21.320  -6.466  37.466  1.00  0.00     0.013 A 
HETATM    5  C5  UNK     1      19.411  -5.588  35.630  1.00  0.00     0.030 A 
HETATM    6  C6  UNK     1      20.664  -5.251  37.669  1.00  0.00     0.030 A 
ENDROOT
BRANCH   2   7
HETATM    7  N1  UNK     1      19.052  -3.599  36.955  1.00  0.00    -0.327 N 
HETATM    8  C10 UNK     1      19.416  -2.328  36.489  1.00  0.00     0.231 C 
HETATM    9  O1  UNK     1      20.404  -2.044  35.817  1.00  0.00    -0.272 OA
HETATM   10  H6  UNK     1      18.204  -3.655  37.516  1.00  0.00     0.169 HD
BRANCH   8  11
HETATM   11  C11 UNK     1      18.445  -1.249  36.919  1.00  0.00     0.184 C 
BRANCH  11  12
HETATM   12  S1  UNK     1      17.048  -1.229  35.769  1.00  0.00    -0.098 SA
BRANCH  12  13
HETATM   13  C17 UNK     1      17.774  -0.342  34.420  1.00  0.00     0.134 A 
HETATM   14  C18 UNK     1      17.967   1.026  34.363  1.00  0.00     0.180 A 
HETATM   15  N4  UNK     1      18.541   1.329  33.195  1.00  0.00    -0.167 NA
HETATM   16  N3  UNK     1      18.646   0.111  32.640  1.00  0.00    -0.196 N 
HETATM   17  H16 UNK     1      19.053  -0.005  31.718  1.00  0.00     0.213 HD
HETATM   18  N2  UNK     1      18.198  -0.950  33.331  1.00  0.00    -0.149 NA
ENDBRANCH  12  13
ENDBRANCH  11  12
ENDBRANCH   8  11
ENDBRANCH   2   7
BRANCH   1  19
HETATM   19  C7  UNK     1      21.707  -8.506  36.134  1.00  0.00     0.012 C 
HETATM   20  C9  UNK     1      22.946  -8.809  36.587  1.00  0.00     0.012 C 
BRANCH  20  21
HETATM   21  C8  UNK     1      23.624 -10.081  36.392  1.00  0.00    -0.036 A 
HETATM   22  C12 UNK     1      22.916 -11.180  35.906  1.00  0.00     0.011 A 
HETATM   23  C14 UNK     1      23.566 -12.401  35.720  1.00  0.00     0.001 A 
HETATM   24  C16 UNK     1      24.922 -12.522  36.021  1.00  0.00     0.000 A 
HETATM   25  C15 UNK     1      25.629 -11.423  36.507  1.00  0.00     0.001 A 
HETATM   26  C13 UNK     1      24.980 -10.202  36.694  1.00  0.00     0.011 A 
ENDBRANCH  20  21
ENDBRANCH   1  19
TORSDOF 6
ENDMDL
