MODEL 1
REMARK VINA RESULT:      -9.2      0.000      0.000
REMARK  4 active torsions:
REMARK  status: ('A' for Active; 'I' for Inactive)
REMARK    1  A    between atoms: C5_13  and  N1_7 
REMARK       I    between atoms: C7_15  and  N1_7 
REMARK    2  A    between atoms: C9_17  and  N2_8 
REMARK    3  A    between atoms: C3_11  and  C7_15 
REMARK    4  A    between atoms: C11_19  and  C5_13 
ROOT
HETATM    1  O1  UNK     1      18.991   0.506  28.599  1.00  0.00    -0.274 OA
HETATM    2  O3  UNK     1      18.049   2.507  28.027  1.00  0.00    -0.259 OA
HETATM    3  C1  UNK     1      19.676   0.116  30.900  1.00  0.00     0.001 A 
HETATM    4  C2  UNK     1      19.555  -0.327  29.587  1.00  0.00     0.089 A 
HETATM    5  C3  UNK     1      18.678   2.240  30.296  1.00  0.00     0.108 A 
HETATM    6  C4  UNK     1      19.212   1.453  31.238  1.00  0.00     0.037 A 
HETATM    7  C6  UNK     1      20.239  -0.738  31.850  1.00  0.00     0.050 A 
HETATM    8  C8  UNK     1      19.980  -1.595  29.198  1.00  0.00     0.041 A 
HETATM    9  C9  UNK     1      20.671  -2.015  31.475  1.00  0.00     0.103 A 
HETATM   10  C10 UNK     1      18.539   1.789  28.893  1.00  0.00     0.304 A 
HETATM   11  C12 UNK     1      20.540  -2.442  30.151  1.00  0.00     0.039 A 
ENDROOT
BRANCH   5  12
HETATM   12  C7  UNK     1      18.240   3.570  30.734  1.00  0.00     0.258 C 
HETATM   13  O2  UNK     1      17.412   3.697  31.633  1.00  0.00    -0.267 OA
HETATM   14  N1  UNK     1      18.850   4.595  30.035  1.00  0.00    -0.352 N 
HETATM   15  H6  UNK     1      19.512   4.386  29.294  1.00  0.00     0.163 HD
BRANCH  14  16
HETATM   16  C5  UNK     1      18.578   5.992  30.286  1.00  0.00     0.169 C 
BRANCH  16  17
HETATM   17  C11 UNK     1      19.127   6.443  31.609  1.00  0.00     0.000 A 
HETATM   18  S1  UNK     1      18.106   7.287  32.677  1.00  0.00    -0.105 SA
HETATM   19  C15 UNK     1      19.366   7.424  33.828  1.00  0.00     0.050 A 
HETATM   20  C14 UNK     1      20.532   6.833  33.391  1.00  0.00     0.008 A 
HETATM   21  C13 UNK     1      20.388   6.261  32.094  1.00  0.00     0.017 A 
ENDBRANCH  16  17
ENDBRANCH  14  16
ENDBRANCH   5  12
BRANCH   9  22
HETATM   22  N2  UNK     1      21.243  -2.881  32.444  1.00  0.00    -0.116 N 
HETATM   23  O4  UNK     1      21.566  -2.412  33.563  1.00  0.00    -0.532 OA
HETATM   24  O5  UNK     1      21.407  -4.091  32.157  1.00  0.00    -0.532 OA
ENDBRANCH   9  22
TORSDOF 4
ENDMDL
MODEL 2
REMARK VINA RESULT:      -8.8      4.595      8.712
REMARK  4 active torsions:
REMARK  status: ('A' for Active; 'I' for Inactive)
REMARK    1  A    between atoms: C5_13  and  N1_7 
REMARK       I    between atoms: C7_15  and  N1_7 
REMARK    2  A    between atoms: C9_17  and  N2_8 
REMARK    3  A    between atoms: C3_11  and  C7_15 
REMARK    4  A    between atoms: C11_19  and  C5_13 
ROOT
HETATM    1  O1  UNK     1      20.812  -2.662  30.876  1.00  0.00    -0.274 OA
HETATM    2  O3  UNK     1      21.361  -4.114  32.552  1.00  0.00    -0.259 OA
HETATM    3  C1  UNK     1      19.683  -0.577  31.417  1.00  0.00     0.001 A 
HETATM    4  C2  UNK     1      20.234  -1.441  30.475  1.00  0.00     0.089 A 
HETATM    5  C3  UNK     1      20.263  -2.116  33.196  1.00  0.00     0.108 A 
HETATM    6  C4  UNK     1      19.713  -0.954  32.822  1.00  0.00     0.037 A 
HETATM    7  C6  UNK     1      19.120   0.624  30.980  1.00  0.00     0.050 A 
HETATM    8  C8  UNK     1      20.236  -1.140  29.115  1.00  0.00     0.041 A 
HETATM    9  C9  UNK     1      19.115   0.941  29.618  1.00  0.00     0.103 A 
HETATM   10  C10 UNK     1      20.856  -3.050  32.213  1.00  0.00     0.304 A 
HETATM   11  C12 UNK     1      19.673   0.060  28.688  1.00  0.00     0.039 A 
ENDROOT
BRANCH   5  12
HETATM   12  C7  UNK     1      20.246  -2.407  34.635  1.00  0.00     0.258 C 
HETATM   13  O2  UNK     1      20.521  -1.536  35.458  1.00  0.00    -0.267 OA
HETATM   14  N1  UNK     1      19.901  -3.716  34.914  1.00  0.00    -0.352 N 
HETATM   15  H6  UNK     1      19.708  -4.367  34.159  1.00  0.00     0.163 HD
BRANCH  14  16
HETATM   16  C5  UNK     1      19.818  -4.240  36.259  1.00  0.00     0.169 C 
BRANCH  16  17
HETATM   17  C11 UNK     1      20.358  -5.637  36.353  1.00  0.00     0.000 A 
HETATM   18  S1  UNK     1      21.320  -6.058  37.691  1.00  0.00    -0.105 SA
HETATM   19  C15 UNK     1      21.510  -7.653  37.098  1.00  0.00     0.050 A 
HETATM   20  C14 UNK     1      20.848  -7.842  35.904  1.00  0.00     0.008 A 
HETATM   21  C13 UNK     1      20.176  -6.663  35.472  1.00  0.00     0.017 A 
ENDBRANCH  16  17
ENDBRANCH  14  16
ENDBRANCH   5  12
BRANCH   9  22
HETATM   22  N2  UNK     1      18.541   2.163  29.179  1.00  0.00    -0.116 N 
HETATM   23  O4  UNK     1      17.912   2.183  28.093  1.00  0.00    -0.532 OA
HETATM   24  O5  UNK     1      18.678   3.189  29.888  1.00  0.00    -0.532 OA
ENDBRANCH   9  22
TORSDOF 4
ENDMDL
MODEL 3
REMARK VINA RESULT:      -8.3      1.547      2.136
REMARK  4 active torsions:
REMARK  status: ('A' for Active; 'I' for Inactive)
REMARK    1  A    between atoms: C5_13  and  N1_7 
REMARK       I    between atoms: C7_15  and  N1_7 
REMARK    2  A    between atoms: C9_17  and  N2_8 
REMARK    3  A    between atoms: C3_11  and  C7_15 
REMARK    4  A    between atoms: C11_19  and  C5_13 
ROOT
HETATM    1  O1  UNK     1      20.086  -1.572  29.253  1.00  0.00    -0.274 OA
HETATM    2  O3  UNK     1      19.412  -0.129  27.617  1.00  0.00    -0.259 OA
HETATM    3  C1  UNK     1      19.828  -0.944  31.588  1.00  0.00     0.001 A 
HETATM    4  C2  UNK     1      20.233  -1.862  30.625  1.00  0.00     0.089 A 
HETATM    5  C3  UNK     1      19.113   0.590  29.855  1.00  0.00     0.108 A 
HETATM    6  C4  UNK     1      19.249   0.320  31.158  1.00  0.00     0.037 A 
HETATM    7  C6  UNK     1      19.990  -1.268  32.937  1.00  0.00     0.050 A 
HETATM    8  C8  UNK     1      20.795  -3.089  30.970  1.00  0.00     0.041 A 
HETATM    9  C9  UNK     1      20.552  -2.496  33.300  1.00  0.00     0.103 A 
HETATM   10  C10 UNK     1      19.536  -0.372  28.812  1.00  0.00     0.304 A 
HETATM   11  C12 UNK     1      20.952  -3.405  32.317  1.00  0.00     0.039 A 
ENDROOT
BRANCH   5  12
HETATM   12  C7  UNK     1      18.518   1.889  29.521  1.00  0.00     0.258 C 
HETATM   13  O2  UNK     1      17.514   1.962  28.817  1.00  0.00    -0.267 OA
HETATM   14  N1  UNK     1      19.206   2.953  30.075  1.00  0.00    -0.352 N 
HETATM   15  H6  UNK     1      20.040   2.790  30.631  1.00  0.00     0.163 HD
BRANCH  14  16
HETATM   16  C5  UNK     1      18.813   4.331  29.885  1.00  0.00     0.169 C 
BRANCH  16  17
HETATM   17  C11 UNK     1      19.059   5.160  31.113  1.00  0.00     0.000 A 
HETATM   18  S1  UNK     1      17.866   5.209  32.324  1.00  0.00    -0.105 SA
HETATM   19  C15 UNK     1      18.823   6.263  33.274  1.00  0.00     0.050 A 
HETATM   20  C14 UNK     1      20.023   6.561  32.665  1.00  0.00     0.008 A 
HETATM   21  C13 UNK     1      20.158   5.915  31.403  1.00  0.00     0.017 A 
ENDBRANCH  16  17
ENDBRANCH  14  16
ENDBRANCH   5  12
BRANCH   9  22
HETATM   22  N2  UNK     1      20.714  -2.822  34.673  1.00  0.00    -0.116 N 
HETATM   23  O4  UNK     1      20.234  -3.899  35.102  1.00  0.00    -0.532 OA
HETATM   24  O5  UNK     1      21.335  -2.026  35.417  1.00  0.00    -0.532 OA
ENDBRANCH   9  22
TORSDOF 4
ENDMDL
MODEL 4
REMARK VINA RESULT:      -8.2     15.164     17.026
REMARK  4 active torsions:
REMARK  status: ('A' for Active; 'I' for Inactive)
REMARK    1  A    between atoms: C5_13  and  N1_7 
REMARK       I    between atoms: C7_15  and  N1_7 
REMARK    2  A    between atoms: C9_17  and  N2_8 
REMARK    3  A    between atoms: C3_11  and  C7_15 
REMARK    4  A    between atoms: C11_19  and  C5_13 
ROOT
HETATM    1  O1  UNK     1      19.400  -2.237  12.933  1.00  0.00    -0.274 OA
HETATM    2  O3  UNK     1      19.394  -0.365  14.240  1.00  0.00    -0.259 OA
HETATM    3  C1  UNK     1      18.504  -4.319  13.814  1.00  0.00     0.001 A 
HETATM    4  C2  UNK     1      19.096  -3.605  12.777  1.00  0.00     0.089 A 
HETATM    5  C3  UNK     1      18.497  -2.335  15.204  1.00  0.00     0.108 A 
HETATM    6  C4  UNK     1      18.205  -3.633  15.061  1.00  0.00     0.037 A 
HETATM    7  C6  UNK     1      18.217  -5.672  13.621  1.00  0.00     0.050 A 
HETATM    8  C8  UNK     1      19.409  -4.202  11.558  1.00  0.00     0.041 A 
HETATM    9  C9  UNK     1      18.525  -6.287  12.403  1.00  0.00     0.103 A 
HETATM   10  C10 UNK     1      19.126  -1.554  14.114  1.00  0.00     0.304 A 
HETATM   11  C12 UNK     1      19.119  -5.552  11.373  1.00  0.00     0.039 A 
ENDROOT
BRANCH   5  12
HETATM   12  C7  UNK     1      18.157  -1.732  16.498  1.00  0.00     0.258 C 
HETATM   13  O2  UNK     1      17.018  -1.813  16.951  1.00  0.00    -0.267 OA
HETATM   14  N1  UNK     1      19.231  -1.099  17.095  1.00  0.00    -0.352 N 
HETATM   15  H6  UNK     1      20.133  -1.072  16.629  1.00  0.00     0.163 HD
BRANCH  14  16
HETATM   16  C5  UNK     1      19.142  -0.431  18.373  1.00  0.00     0.169 C 
BRANCH  16  17
HETATM   17  C11 UNK     1      19.276   1.059  18.240  1.00  0.00     0.000 A 
HETATM   18  S1  UNK     1      19.559   1.986  19.638  1.00  0.00    -0.105 SA
HETATM   19  C15 UNK     1      19.582   3.430  18.718  1.00  0.00     0.050 A 
HETATM   20  C14 UNK     1      19.376   3.191  17.376  1.00  0.00     0.008 A 
HETATM   21  C13 UNK     1      19.197   1.805  17.101  1.00  0.00     0.017 A 
ENDBRANCH  16  17
ENDBRANCH  14  16
ENDBRANCH   5  12
BRANCH   9  22
HETATM   22  N2  UNK     1      18.231  -7.663  12.211  1.00  0.00    -0.116 N 
HETATM   23  O4  UNK     1      18.771  -8.271  11.255  1.00  0.00    -0.532 OA
HETATM   24  O5  UNK     1      17.442  -8.233  13.002  1.00  0.00    -0.532 OA
ENDBRANCH   9  22
TORSDOF 4
ENDMDL
MODEL 5
REMARK VINA RESULT:      -8.2     14.419     17.377
REMARK  4 active torsions:
REMARK  status: ('A' for Active; 'I' for Inactive)
REMARK    1  A    between atoms: C5_13  and  N1_7 
REMARK       I    between atoms: C7_15  and  N1_7 
REMARK    2  A    between atoms: C9_17  and  N2_8 
REMARK    3  A    between atoms: C3_11  and  C7_15 
REMARK    4  A    between atoms: C11_19  and  C5_13 
ROOT
HETATM    1  O1  UNK     1      19.303   0.826  15.004  1.00  0.00    -0.274 OA
HETATM    2  O3  UNK     1      19.322  -0.725  13.328  1.00  0.00    -0.259 OA
HETATM    3  C1  UNK     1      18.945   0.108  17.300  1.00  0.00     0.001 A 
HETATM    4  C2  UNK     1      19.174   1.123  16.376  1.00  0.00     0.089 A 
HETATM    5  C3  UNK     1      18.964  -1.539  15.524  1.00  0.00     0.108 A 
HETATM    6  C4  UNK     1      18.841  -1.264  16.828  1.00  0.00     0.037 A 
HETATM    7  C6  UNK     1      18.823   0.442  18.650  1.00  0.00     0.050 A 
HETATM    8  C8  UNK     1      19.283   2.457  16.762  1.00  0.00     0.041 A 
HETATM    9  C9  UNK     1      18.931   1.777  19.054  1.00  0.00     0.103 A 
HETATM   10  C10 UNK     1      19.208  -0.477  14.523  1.00  0.00     0.304 A 
HETATM   11  C12 UNK     1      19.161   2.782  18.111  1.00  0.00     0.039 A 
ENDROOT
BRANCH   5  12
HETATM   12  C7  UNK     1      18.844  -2.952  15.146  1.00  0.00     0.258 C 
HETATM   13  O2  UNK     1      17.796  -3.568  15.328  1.00  0.00    -0.267 OA
HETATM   14  N1  UNK     1      20.005  -3.461  14.593  1.00  0.00    -0.352 N 
HETATM   15  H6  UNK     1      20.828  -2.874  14.500  1.00  0.00     0.163 HD
BRANCH  14  16
HETATM   16  C5  UNK     1      20.131  -4.830  14.145  1.00  0.00     0.169 C 
BRANCH  16  17
HETATM   17  C11 UNK     1      19.718  -4.993  12.711  1.00  0.00     0.000 A 
HETATM   18  S1  UNK     1      18.744  -6.320  12.282  1.00  0.00    -0.105 SA
HETATM   19  C15 UNK     1      18.727  -5.824  10.644  1.00  0.00     0.050 A 
HETATM   20  C14 UNK     1      19.455  -4.670  10.446  1.00  0.00     0.008 A 
HETATM   21  C13 UNK     1      20.032  -4.187  11.656  1.00  0.00     0.017 A 
ENDBRANCH  16  17
ENDBRANCH  14  16
ENDBRANCH   5  12
BRANCH   9  22
HETATM   22  N2  UNK     1      18.807   2.112  20.429  1.00  0.00    -0.116 N 
HETATM   23  O4  UNK     1      19.827   2.485  21.057  1.00  0.00    -0.532 OA
HETATM   24  O5  UNK     1      17.681   2.029  20.976  1.00  0.00    -0.532 OA
ENDBRANCH   9  22
TORSDOF 4
ENDMDL
MODEL 6
REMARK VINA RESULT:      -8.1     13.595     16.638
REMARK  4 active torsions:
REMARK  status: ('A' for Active; 'I' for Inactive)
REMARK    1  A    between atoms: C5_13  and  N1_7 
REMARK       I    between atoms: C7_15  and  N1_7 
REMARK    2  A    between atoms: C9_17  and  N2_8 
REMARK    3  A    between atoms: C3_11  and  C7_15 
REMARK    4  A    between atoms: C11_19  and  C5_13 
ROOT
HETATM    1  O1  UNK     1      19.274   0.815  15.017  1.00  0.00    -0.274 OA
HETATM    2  O3  UNK     1      19.454  -0.751  13.363  1.00  0.00    -0.259 OA
HETATM    3  C1  UNK     1      19.113   0.100  17.335  1.00  0.00     0.001 A 
HETATM    4  C2  UNK     1      19.156   1.118  16.388  1.00  0.00     0.089 A 
HETATM    5  C3  UNK     1      19.303  -1.564  15.584  1.00  0.00     0.108 A 
HETATM    6  C4  UNK     1      19.192  -1.283  16.888  1.00  0.00     0.037 A 
HETATM    7  C6  UNK     1      18.997   0.440  18.685  1.00  0.00     0.050 A 
HETATM    8  C8  UNK     1      19.085   2.461  16.750  1.00  0.00     0.041 A 
HETATM    9  C9  UNK     1      18.924   1.784  19.064  1.00  0.00     0.103 A 
HETATM   10  C10 UNK     1      19.351  -0.498  14.559  1.00  0.00     0.304 A 
HETATM   11  C12 UNK     1      18.969   2.792  18.098  1.00  0.00     0.039 A 
ENDROOT
BRANCH   5  12
HETATM   12  C7  UNK     1      19.376  -2.987  15.232  1.00  0.00     0.258 C 
HETATM   13  O2  UNK     1      20.261  -3.706  15.690  1.00  0.00    -0.267 OA
HETATM   14  N1  UNK     1      18.371  -3.379  14.366  1.00  0.00    -0.352 N 
HETATM   15  H6  UNK     1      17.693  -2.702  14.029  1.00  0.00     0.163 HD
BRANCH  14  16
HETATM   16  C5  UNK     1      18.236  -4.732  13.876  1.00  0.00     0.169 C 
BRANCH  16  17
HETATM   17  C11 UNK     1      17.401  -5.580  14.790  1.00  0.00     0.000 A 
HETATM   18  S1  UNK     1      16.655  -6.975  14.163  1.00  0.00    -0.105 SA
HETATM   19  C15 UNK     1      15.965  -7.335  15.687  1.00  0.00     0.050 A 
HETATM   20  C14 UNK     1      16.307  -6.401  16.643  1.00  0.00     0.008 A 
HETATM   21  C13 UNK     1      17.146  -5.378  16.115  1.00  0.00     0.017 A 
ENDBRANCH  16  17
ENDBRANCH  14  16
ENDBRANCH   5  12
BRANCH   9  22
HETATM   22  N2  UNK     1      18.806   2.126  20.438  1.00  0.00    -0.116 N 
HETATM   23  O4  UNK     1      19.836   2.464  21.070  1.00  0.00    -0.532 OA
HETATM   24  O5  UNK     1      17.676   2.082  20.980  1.00  0.00    -0.532 OA
ENDBRANCH   9  22
TORSDOF 4
ENDMDL
MODEL 7
REMARK VINA RESULT:      -8.1      3.997      4.793
REMARK  4 active torsions:
REMARK  status: ('A' for Active; 'I' for Inactive)
REMARK    1  A    between atoms: C5_13  and  N1_7 
REMARK       I    between atoms: C7_15  and  N1_7 
REMARK    2  A    between atoms: C9_17  and  N2_8 
REMARK    3  A    between atoms: C3_11  and  C7_15 
REMARK    4  A    between atoms: C11_19  and  C5_13 
ROOT
HETATM    1  O1  UNK     1      18.236   1.550  32.401  1.00  0.00    -0.274 OA
HETATM    2  O3  UNK     1      18.321   3.194  30.817  1.00  0.00    -0.259 OA
HETATM    3  C1  UNK     1      18.192   2.154  34.756  1.00  0.00     0.001 A 
HETATM    4  C2  UNK     1      18.192   1.182  33.760  1.00  0.00     0.089 A 
HETATM    5  C3  UNK     1      18.282   3.900  33.078  1.00  0.00     0.108 A 
HETATM    6  C4  UNK     1      18.239   3.556  34.371  1.00  0.00     0.037 A 
HETATM    7  C6  UNK     1      18.146   1.750  36.092  1.00  0.00     0.050 A 
HETATM    8  C8  UNK     1      18.148  -0.178  34.061  1.00  0.00     0.041 A 
HETATM    9  C9  UNK     1      18.102   0.389  36.410  1.00  0.00     0.103 A 
HETATM   10  C10 UNK     1      18.282   2.883  32.002  1.00  0.00     0.304 A 
HETATM   11  C12 UNK     1      18.102  -0.573  35.396  1.00  0.00     0.039 A 
ENDROOT
BRANCH   5  12
HETATM   12  C7  UNK     1      18.327   5.338  32.791  1.00  0.00     0.258 C 
HETATM   13  O2  UNK     1      19.290   6.020  33.134  1.00  0.00    -0.267 OA
HETATM   14  N1  UNK     1      17.203   5.789  32.124  1.00  0.00    -0.352 N 
HETATM   15  H6  UNK     1      16.449   5.147  31.900  1.00  0.00     0.163 HD
BRANCH  14  16
HETATM   16  C5  UNK     1      17.017   7.168  31.735  1.00  0.00     0.169 C 
BRANCH  16  17
HETATM   17  C11 UNK     1      16.234   7.941  32.757  1.00  0.00     0.000 A 
HETATM   18  S1  UNK     1      17.044   9.085  33.720  1.00  0.00    -0.105 SA
HETATM   19  C15 UNK     1      15.592   9.479  34.536  1.00  0.00     0.050 A 
HETATM   20  C14 UNK     1      14.522   8.744  34.071  1.00  0.00     0.008 A 
HETATM   21  C13 UNK     1      14.901   7.847  33.032  1.00  0.00     0.017 A 
ENDBRANCH  16  17
ENDBRANCH  14  16
ENDBRANCH   5  12
BRANCH   9  22
HETATM   22  N2  UNK     1      18.055  -0.018  37.770  1.00  0.00    -0.116 N 
HETATM   23  O4  UNK     1      17.945   0.857  38.663  1.00  0.00    -0.532 OA
HETATM   24  O5  UNK     1      18.124  -1.241  38.042  1.00  0.00    -0.532 OA
ENDBRANCH   9  22
TORSDOF 4
ENDMDL
MODEL 8
REMARK VINA RESULT:      -7.9      4.510      7.765
REMARK  4 active torsions:
REMARK  status: ('A' for Active; 'I' for Inactive)
REMARK    1  A    between atoms: C5_13  and  N1_7 
REMARK       I    between atoms: C7_15  and  N1_7 
REMARK    2  A    between atoms: C9_17  and  N2_8 
REMARK    3  A    between atoms: C3_11  and  C7_15 
REMARK    4  A    between atoms: C11_19  and  C5_13 
ROOT
HETATM    1  O1  UNK     1      18.807   3.276  30.787  1.00  0.00    -0.274 OA
HETATM    2  O3  UNK     1      18.794   0.995  30.910  1.00  0.00    -0.259 OA
HETATM    3  C1  UNK     1      18.276   4.588  32.765  1.00  0.00     0.001 A 
HETATM    4  C2  UNK     1      18.630   4.523  31.421  1.00  0.00     0.089 A 
HETATM    5  C3  UNK     1      18.260   2.169  32.898  1.00  0.00     0.108 A 
HETATM    6  C4  UNK     1      18.092   3.350  33.506  1.00  0.00     0.037 A 
HETATM    7  C6  UNK     1      18.111   5.842  33.358  1.00  0.00     0.050 A 
HETATM    8  C8  UNK     1      18.822   5.671  30.655  1.00  0.00     0.041 A 
HETATM    9  C9  UNK     1      18.300   7.003  32.602  1.00  0.00     0.103 A 
HETATM   10  C10 UNK     1      18.637   2.075  31.470  1.00  0.00     0.304 A 
HETATM   11  C12 UNK     1      18.655   6.917  31.254  1.00  0.00     0.039 A 
ENDROOT
BRANCH   5  12
HETATM   12  C7  UNK     1      18.052   0.977  33.729  1.00  0.00     0.258 C 
HETATM   13  O2  UNK     1      18.991   0.241  34.024  1.00  0.00    -0.267 OA
HETATM   14  N1  UNK     1      16.732   0.810  34.108  1.00  0.00    -0.352 N 
HETATM   15  H6  UNK     1      16.023   1.466  33.797  1.00  0.00     0.163 HD
BRANCH  14  16
HETATM   16  C5  UNK     1      16.281  -0.293  34.926  1.00  0.00     0.169 C 
BRANCH  16  17
HETATM   17  C11 UNK     1      16.955  -0.310  36.268  1.00  0.00     0.000 A 
HETATM   18  S1  UNK     1      17.737  -1.734  36.775  1.00  0.00    -0.105 SA
HETATM   19  C15 UNK     1      18.197  -0.997  38.250  1.00  0.00     0.050 A 
HETATM   20  C14 UNK     1      17.755   0.306  38.337  1.00  0.00     0.008 A 
HETATM   21  C13 UNK     1      17.031   0.703  37.177  1.00  0.00     0.017 A 
ENDBRANCH  16  17
ENDBRANCH  14  16
ENDBRANCH   5  12
BRANCH   9  22
HETATM   22  N2  UNK     1      18.131   8.276  33.209  1.00  0.00    -0.116 N 
HETATM   23  O4  UNK     1      17.179   9.005  32.836  1.00  0.00    -0.532 OA
HETATM   24  O5  UNK     1      18.935   8.637  34.101  1.00  0.00    -0.532 OA
ENDBRANCH   9  22
TORSDOF 4
ENDMDL
MODEL 9
REMARK VINA RESULT:      -7.8      3.383      4.006
REMARK  4 active torsions:
REMARK  status: ('A' for Active; 'I' for Inactive)
REMARK    1  A    between atoms: C5_13  and  N1_7 
REMARK       I    between atoms: C7_15  and  N1_7 
REMARK    2  A    between atoms: C9_17  and  N2_8 
REMARK    3  A    between atoms: C3_11  and  C7_15 
REMARK    4  A    between atoms: C11_19  and  C5_13 
ROOT
HETATM    1  O1  UNK     1      18.744   0.256  32.106  1.00  0.00    -0.274 OA
HETATM    2  O3  UNK     1      18.795   1.528  30.210  1.00  0.00    -0.259 OA
HETATM    3  C1  UNK     1      18.288   1.313  34.249  1.00  0.00     0.001 A 
HETATM    4  C2  UNK     1      18.570   0.173  33.503  1.00  0.00     0.089 A 
HETATM    5  C3  UNK     1      18.343   2.666  32.239  1.00  0.00     0.108 A 
HETATM    6  C4  UNK     1      18.176   2.593  33.565  1.00  0.00     0.037 A 
HETATM    7  C6  UNK     1      18.122   1.190  35.630  1.00  0.00     0.050 A 
HETATM    8  C8  UNK     1      18.690  -1.082  34.096  1.00  0.00     0.041 A 
HETATM    9  C9  UNK     1      18.240  -0.063  36.240  1.00  0.00     0.103 A 
HETATM   10  C10 UNK     1      18.642   1.466  31.425  1.00  0.00     0.304 A 
HETATM   11  C12 UNK     1      18.523  -1.196  35.474  1.00  0.00     0.039 A 
ENDROOT
BRANCH   5  12
HETATM   12  C7  UNK     1      18.211   3.999  31.642  1.00  0.00     0.258 C 
HETATM   13  O2  UNK     1      18.686   4.245  30.536  1.00  0.00    -0.267 OA
HETATM   14  N1  UNK     1      17.520   4.884  32.450  1.00  0.00    -0.352 N 
HETATM   15  H6  UNK     1      17.180   4.588  33.360  1.00  0.00     0.163 HD
BRANCH  14  16
HETATM   16  C5  UNK     1      17.265   6.257  32.077  1.00  0.00     0.169 C 
BRANCH  16  17
HETATM   17  C11 UNK     1      18.083   7.221  32.886  1.00  0.00     0.000 A 
HETATM   18  S1  UNK     1      17.371   8.682  33.390  1.00  0.00    -0.105 SA
HETATM   19  C15 UNK     1      18.816   9.158  34.173  1.00  0.00     0.050 A 
HETATM   20  C14 UNK     1      19.810   8.211  34.043  1.00  0.00     0.008 A 
HETATM   21  C13 UNK     1      19.378   7.082  33.291  1.00  0.00     0.017 A 
ENDBRANCH  16  17
ENDBRANCH  14  16
ENDBRANCH   5  12
BRANCH   9  22
HETATM   22  N2  UNK     1      18.070  -0.184  37.645  1.00  0.00    -0.116 N 
HETATM   23  O4  UNK     1      18.122  -1.324  38.167  1.00  0.00    -0.532 OA
HETATM   24  O5  UNK     1      17.874   0.852  38.325  1.00  0.00    -0.532 OA
ENDBRANCH   9  22
TORSDOF 4
ENDMDL
MODEL 10
REMARK VINA RESULT:      -7.7      4.885      9.433
REMARK  4 active torsions:
REMARK  status: ('A' for Active; 'I' for Inactive)
REMARK    1  A    between atoms: C5_13  and  N1_7 
REMARK       I    between atoms: C7_15  and  N1_7 
REMARK    2  A    between atoms: C9_17  and  N2_8 
REMARK    3  A    between atoms: C3_11  and  C7_15 
REMARK    4  A    between atoms: C11_19  and  C5_13 
ROOT
HETATM    1  O1  UNK     1      19.318   7.785  33.116  1.00  0.00    -0.274 OA
HETATM    2  O3  UNK     1      20.398   5.899  32.411  1.00  0.00    -0.259 OA
HETATM    3  C1  UNK     1      16.995   7.645  33.819  1.00  0.00     0.001 A 
HETATM    4  C2  UNK     1      18.146   8.396  33.603  1.00  0.00     0.089 A 
HETATM    5  C3  UNK     1      18.137   5.643  33.072  1.00  0.00     0.108 A 
HETATM    6  C4  UNK     1      17.020   6.219  33.535  1.00  0.00     0.037 A 
HETATM    7  C6  UNK     1      15.853   8.287  34.303  1.00  0.00     0.050 A 
HETATM    8  C8  UNK     1      18.187   9.766  33.855  1.00  0.00     0.041 A 
HETATM    9  C9  UNK     1      15.879   9.661  34.561  1.00  0.00     0.103 A 
HETATM   10  C10 UNK     1      19.373   6.422  32.835  1.00  0.00     0.304 A 
HETATM   11  C12 UNK     1      17.044  10.399  34.338  1.00  0.00     0.039 A 
ENDROOT
BRANCH   5  12
HETATM   12  C7  UNK     1      18.064   4.200  32.815  1.00  0.00     0.258 C 
HETATM   13  O2  UNK     1      17.876   3.770  31.680  1.00  0.00    -0.267 OA
HETATM   14  N1  UNK     1      18.225   3.442  33.961  1.00  0.00    -0.352 N 
HETATM   15  H6  UNK     1      18.358   3.895  34.860  1.00  0.00     0.163 HD
BRANCH  14  16
HETATM   16  C5  UNK     1      18.190   1.997  33.961  1.00  0.00     0.169 C 
BRANCH  16  17
HETATM   17  C11 UNK     1      17.800   1.444  35.301  1.00  0.00     0.000 A 
HETATM   18  S1  UNK     1      16.565   0.277  35.380  1.00  0.00    -0.105 SA
HETATM   19  C15 UNK     1      16.716   0.180  37.083  1.00  0.00     0.050 A 
HETATM   20  C14 UNK     1      17.692   1.028  37.563  1.00  0.00     0.008 A 
HETATM   21  C13 UNK     1      18.323   1.764  36.520  1.00  0.00     0.017 A 
ENDBRANCH  16  17
ENDBRANCH  14  16
ENDBRANCH   5  12
BRANCH   9  22
HETATM   22  N2  UNK     1      14.715  10.310  35.054  1.00  0.00    -0.116 N 
HETATM   23  O4  UNK     1      13.726  10.445  34.292  1.00  0.00    -0.532 OA
HETATM   24  O5  UNK     1      14.707  10.730  36.236  1.00  0.00    -0.532 OA
ENDBRANCH   9  22
TORSDOF 4
ENDMDL
