MODEL 1
REMARK VINA RESULT:      -7.0      0.000      0.000
REMARK  1 active torsions:
REMARK  status: ('A' for Active; 'I' for Inactive)
REMARK    1  A    between atoms: C11_15  and  O2_3 
ROOT
HETATM    1  I1  UNK     1      18.419  -0.745  35.503  1.00  0.00    -0.039 I 
HETATM    2  O1  UNK     1      18.525   0.691  32.691  1.00  0.00    -0.273 OA
HETATM    3  O3  UNK     1      17.681   2.585  31.769  1.00  0.00    -0.259 OA
HETATM    4  C1  UNK     1      19.902  -0.813  31.363  1.00  0.00     0.006 A 
HETATM    5  C2  UNK     1      19.754   0.099  30.210  1.00  0.00    -0.037 A 
HETATM    6  C3  UNK     1      18.994   1.209  30.335  1.00  0.00     0.020 A 
HETATM    7  C4  UNK     1      19.283  -0.483  32.566  1.00  0.00     0.109 A 
HETATM    8  C5  UNK     1      20.630  -2.013  31.326  1.00  0.00     0.017 A 
HETATM    9  C6  UNK     1      20.490  -0.273  28.947  1.00  0.00     0.050 C 
HETATM   10  C7  UNK     1      18.345   1.563  31.630  1.00  0.00     0.294 A 
HETATM   11  C8  UNK     1      19.372  -1.290  33.703  1.00  0.00     0.074 A 
HETATM   12  C9  UNK     1      18.708   2.186  29.224  1.00  0.00     0.055 C 
HETATM   13  C10 UNK     1      20.729  -2.833  32.456  1.00  0.00     0.039 A 
HETATM   14  C11 UNK     1      20.101  -2.471  33.645  1.00  0.00     0.085 A 
ENDROOT
BRANCH  14  15
HETATM   15  O2  UNK     1      20.229  -3.304  34.716  1.00  0.00    -0.359 OA
HETATM   16  H9  UNK     1      21.130  -3.236  35.073  1.00  0.00     0.217 HD
ENDBRANCH  14  15
TORSDOF 1
ENDMDL
MODEL 2
REMARK VINA RESULT:      -6.8      1.390      4.321
REMARK  1 active torsions:
REMARK  status: ('A' for Active; 'I' for Inactive)
REMARK    1  A    between atoms: C11_15  and  O2_3 
ROOT
HETATM    1  I1  UNK     1      18.121   1.876  34.651  1.00  0.00    -0.039 I 
HETATM    2  O1  UNK     1      19.326  -0.380  32.797  1.00  0.00    -0.273 OA
HETATM    3  O3  UNK     1      20.140  -2.482  33.066  1.00  0.00    -0.259 OA
HETATM    4  C1  UNK     1      19.271   0.642  30.590  1.00  0.00     0.006 A 
HETATM    5  C2  UNK     1      19.854  -0.591  30.024  1.00  0.00    -0.037 A 
HETATM    6  C3  UNK     1      20.169  -1.615  30.847  1.00  0.00     0.020 A 
HETATM    7  C4  UNK     1      19.026   0.704  31.959  1.00  0.00     0.109 A 
HETATM    8  C5  UNK     1      18.950   1.779  29.830  1.00  0.00     0.017 A 
HETATM    9  C6  UNK     1      20.049  -0.630  28.528  1.00  0.00     0.050 C 
HETATM   10  C7  UNK     1      19.891  -1.547  32.310  1.00  0.00     0.294 A 
HETATM   11  C8  UNK     1      18.478   1.833  32.574  1.00  0.00     0.074 A 
HETATM   12  C9  UNK     1      20.827  -2.899  30.412  1.00  0.00     0.055 C 
HETATM   13  C10 UNK     1      18.401   2.918  30.430  1.00  0.00     0.039 A 
HETATM   14  C11 UNK     1      18.163   2.944  31.802  1.00  0.00     0.085 A 
ENDROOT
BRANCH  14  15
HETATM   15  O2  UNK     1      17.627   4.077  32.337  1.00  0.00    -0.359 OA
HETATM   16  H9  UNK     1      17.403   3.919  33.270  1.00  0.00     0.217 HD
ENDBRANCH  14  15
TORSDOF 1
ENDMDL
MODEL 3
REMARK VINA RESULT:      -6.8      1.291      1.515
REMARK  1 active torsions:
REMARK  status: ('A' for Active; 'I' for Inactive)
REMARK    1  A    between atoms: C11_15  and  O2_3 
ROOT
HETATM    1  I1  UNK     1      17.556   0.964  35.746  1.00  0.00    -0.039 I 
HETATM    2  O1  UNK     1      18.038   2.109  32.842  1.00  0.00    -0.273 OA
HETATM    3  O3  UNK     1      17.636   4.054  31.744  1.00  0.00    -0.259 OA
HETATM    4  C1  UNK     1      19.103   0.248  31.692  1.00  0.00     0.006 A 
HETATM    5  C2  UNK     1      19.180   1.071  30.468  1.00  0.00    -0.037 A 
HETATM    6  C3  UNK     1      18.668   2.321  30.476  1.00  0.00     0.020 A 
HETATM    7  C4  UNK     1      18.534   0.797  32.839  1.00  0.00     0.109 A 
HETATM    8  C5  UNK     1      19.562  -1.076  31.778  1.00  0.00     0.017 A 
HETATM    9  C6  UNK     1      19.855   0.452  29.270  1.00  0.00     0.050 C 
HETATM   10  C7  UNK     1      18.074   2.908  31.712  1.00  0.00     0.294 A 
HETATM   11  C8  UNK     1      18.422   0.087  34.036  1.00  0.00     0.074 A 
HETATM   12  C9  UNK     1      18.624   3.241  29.283  1.00  0.00     0.055 C 
HETATM   13  C10 UNK     1      19.457  -1.803  32.969  1.00  0.00     0.039 A 
HETATM   14  C11 UNK     1      18.888  -1.221  34.099  1.00  0.00     0.085 A 
ENDROOT
BRANCH  14  15
HETATM   15  O2  UNK     1      18.809  -1.971  35.234  1.00  0.00    -0.359 OA
HETATM   16  H9  UNK     1      18.017  -2.533  35.196  1.00  0.00     0.217 HD
ENDBRANCH  14  15
TORSDOF 1
ENDMDL
MODEL 4
REMARK VINA RESULT:      -6.7      2.427      4.266
REMARK  1 active torsions:
REMARK  status: ('A' for Active; 'I' for Inactive)
REMARK    1  A    between atoms: C11_15  and  O2_3 
ROOT
HETATM    1  I1  UNK     1      18.511   1.792  29.473  1.00  0.00    -0.039 I 
HETATM    2  O1  UNK     1      18.454   0.706  32.439  1.00  0.00    -0.273 OA
HETATM    3  O3  UNK     1      17.584   1.370  34.427  1.00  0.00    -0.259 OA
HETATM    4  C1  UNK     1      19.744  -1.352  32.290  1.00  0.00     0.006 A 
HETATM    5  C2  UNK     1      19.525  -1.573  33.734  1.00  0.00    -0.037 A 
HETATM    6  C3  UNK     1      18.835  -0.657  34.448  1.00  0.00     0.020 A 
HETATM    7  C4  UNK     1      19.199  -0.219  31.692  1.00  0.00     0.109 A 
HETATM    8  C5  UNK     1      20.484  -2.217  31.467  1.00  0.00     0.017 A 
HETATM    9  C6  UNK     1      20.087  -2.843  34.324  1.00  0.00     0.050 C 
HETATM   10  C7  UNK     1      18.242   0.547  33.798  1.00  0.00     0.294 A 
HETATM   11  C8  UNK     1      19.359   0.065  30.333  1.00  0.00     0.074 A 
HETATM   12  C9  UNK     1      18.595  -0.726  35.935  1.00  0.00     0.055 C 
HETATM   13  C10 UNK     1      20.655  -1.948  30.104  1.00  0.00     0.039 A 
HETATM   14  C11 UNK     1      20.092  -0.808  29.537  1.00  0.00     0.085 A 
ENDROOT
BRANCH  14  15
HETATM   15  O2  UNK     1      20.287  -0.592  28.206  1.00  0.00    -0.359 OA
HETATM   16  H9  UNK     1      20.854   0.188  28.085  1.00  0.00     0.217 HD
ENDBRANCH  14  15
TORSDOF 1
ENDMDL
MODEL 5
REMARK VINA RESULT:      -6.7      2.021      2.950
REMARK  1 active torsions:
REMARK  status: ('A' for Active; 'I' for Inactive)
REMARK    1  A    between atoms: C11_15  and  O2_3 
ROOT
HETATM    1  I1  UNK     1      20.255  -2.339  33.126  1.00  0.00    -0.039 I 
HETATM    2  O1  UNK     1      19.106   0.573  32.704  1.00  0.00    -0.273 OA
HETATM    3  O3  UNK     1      18.257   2.221  34.013  1.00  0.00    -0.259 OA
HETATM    4  C1  UNK     1      19.268   0.879  30.296  1.00  0.00     0.006 A 
HETATM    5  C2  UNK     1      18.695   2.232  30.447  1.00  0.00    -0.037 A 
HETATM    6  C3  UNK     1      18.333   2.666  31.674  1.00  0.00     0.020 A 
HETATM    7  C4  UNK     1      19.454   0.095  31.431  1.00  0.00     0.109 A 
HETATM    8  C5  UNK     1      19.634   0.315  29.063  1.00  0.00     0.017 A 
HETATM    9  C6  UNK     1      18.565   3.062  29.194  1.00  0.00     0.050 C 
HETATM   10  C7  UNK     1      18.549   1.827  32.888  1.00  0.00     0.294 A 
HETATM   11  C8  UNK     1      19.988  -1.194  31.376  1.00  0.00     0.074 A 
HETATM   12  C9  UNK     1      17.681   3.994  31.960  1.00  0.00     0.055 C 
HETATM   13  C10 UNK     1      20.170  -0.976  28.988  1.00  0.00     0.039 A 
HETATM   14  C11 UNK     1      20.348  -1.730  30.145  1.00  0.00     0.085 A 
ENDROOT
BRANCH  14  15
HETATM   15  O2  UNK     1      20.874  -2.981  30.019  1.00  0.00    -0.359 OA
HETATM   16  H9  UNK     1      21.832  -2.947  30.180  1.00  0.00     0.217 HD
ENDBRANCH  14  15
TORSDOF 1
ENDMDL
MODEL 6
REMARK VINA RESULT:      -6.6      7.447      9.530
REMARK  1 active torsions:
REMARK  status: ('A' for Active; 'I' for Inactive)
REMARK    1  A    between atoms: C11_15  and  O2_3 
ROOT
HETATM    1  I1  UNK     1      15.609  10.861  34.497  1.00  0.00    -0.039 I 
HETATM    2  O1  UNK     1      18.036   8.921  33.925  1.00  0.00    -0.273 OA
HETATM    3  O3  UNK     1      20.253   8.860  34.407  1.00  0.00    -0.259 OA
HETATM    4  C1  UNK     1      17.014   7.140  32.619  1.00  0.00     0.006 A 
HETATM    5  C2  UNK     1      18.328   6.470  32.539  1.00  0.00    -0.037 A 
HETATM    6  C3  UNK     1      19.406   7.053  33.105  1.00  0.00     0.020 A 
HETATM    7  C4  UNK     1      16.914   8.344  33.311  1.00  0.00     0.109 A 
HETATM    8  C5  UNK     1      15.842   6.644  32.026  1.00  0.00     0.017 A 
HETATM    9  C6  UNK     1      18.373   5.141  31.826  1.00  0.00     0.050 C 
HETATM   10  C7  UNK     1      19.289   8.335  33.858  1.00  0.00     0.294 A 
HETATM   11  C8  UNK     1      15.710   9.043  33.434  1.00  0.00     0.074 A 
HETATM   12  C9  UNK     1      20.811   6.511  33.043  1.00  0.00     0.055 C 
HETATM   13  C10 UNK     1      14.628   7.331  32.139  1.00  0.00     0.039 A 
HETATM   14  C11 UNK     1      14.562   8.530  32.844  1.00  0.00     0.085 A 
ENDROOT
BRANCH  14  15
HETATM   15  O2  UNK     1      13.356   9.160  32.924  1.00  0.00    -0.359 OA
HETATM   16  H9  UNK     1      12.757   8.799  32.249  1.00  0.00     0.217 HD
ENDBRANCH  14  15
TORSDOF 1
ENDMDL
MODEL 7
REMARK VINA RESULT:      -6.5      8.952     10.481
REMARK  1 active torsions:
REMARK  status: ('A' for Active; 'I' for Inactive)
REMARK    1  A    between atoms: C11_15  and  O2_3 
ROOT
HETATM    1  I1  UNK     1      13.891  11.016  33.125  1.00  0.00    -0.039 I 
HETATM    2  O1  UNK     1      16.938  10.509  33.785  1.00  0.00    -0.273 OA
HETATM    3  O3  UNK     1      18.706  11.746  34.490  1.00  0.00    -0.259 OA
HETATM    4  C1  UNK     1      17.205   8.133  33.334  1.00  0.00     0.006 A 
HETATM    5  C2  UNK     1      18.627   8.237  33.719  1.00  0.00    -0.037 A 
HETATM    6  C3  UNK     1      19.132   9.439  34.074  1.00  0.00     0.020 A 
HETATM    7  C4  UNK     1      16.409   9.274  33.381  1.00  0.00     0.109 A 
HETATM    8  C5  UNK     1      16.594   6.943  32.906  1.00  0.00     0.017 A 
HETATM    9  C6  UNK     1      19.434   6.963  33.705  1.00  0.00     0.050 C 
HETATM   10  C7  UNK     1      18.270  10.654  34.137  1.00  0.00     0.294 A 
HETATM   11  C8  UNK     1      15.056   9.262  33.032  1.00  0.00     0.074 A 
HETATM   12  C9  UNK     1      20.574   9.698  34.427  1.00  0.00     0.055 C 
HETATM   13  C10 UNK     1      15.240   6.913  32.552  1.00  0.00     0.039 A 
HETATM   14  C11 UNK     1      14.471   8.072  32.617  1.00  0.00     0.085 A 
ENDROOT
BRANCH  14  15
HETATM   15  O2  UNK     1      13.157   7.989  32.262  1.00  0.00    -0.359 OA
HETATM   16  H9  UNK     1      12.753   8.871  32.313  1.00  0.00     0.217 HD
ENDBRANCH  14  15
TORSDOF 1
ENDMDL
MODEL 8
REMARK VINA RESULT:      -6.3      3.171      4.829
REMARK  1 active torsions:
REMARK  status: ('A' for Active; 'I' for Inactive)
REMARK    1  A    between atoms: C11_15  and  O2_3 
ROOT
HETATM    1  I1  UNK     1      17.904   1.050  34.409  1.00  0.00    -0.039 I 
HETATM    2  O1  UNK     1      17.936   4.078  33.509  1.00  0.00    -0.273 OA
HETATM    3  O3  UNK     1      17.519   6.092  34.467  1.00  0.00    -0.259 OA
HETATM    4  C1  UNK     1      18.586   3.943  31.167  1.00  0.00     0.006 A 
HETATM    5  C2  UNK     1      18.509   5.416  31.080  1.00  0.00    -0.037 A 
HETATM    6  C3  UNK     1      18.127   6.126  32.164  1.00  0.00     0.020 A 
HETATM    7  C4  UNK     1      18.298   3.325  32.381  1.00  0.00     0.109 A 
HETATM    8  C5  UNK     1      18.927   3.110  30.090  1.00  0.00     0.017 A 
HETATM    9  C6  UNK     1      18.885   6.042  29.760  1.00  0.00     0.050 C 
HETATM   10  C7  UNK     1      17.834   5.458  33.465  1.00  0.00     0.294 A 
HETATM   11  C8  UNK     1      18.346   1.938  32.549  1.00  0.00     0.074 A 
HETATM   12  C9  UNK     1      17.945   7.622  32.193  1.00  0.00     0.055 C 
HETATM   13  C10 UNK     1      18.980   1.719  30.240  1.00  0.00     0.039 A 
HETATM   14  C11 UNK     1      18.691   1.133  31.470  1.00  0.00     0.085 A 
ENDROOT
BRANCH  14  15
HETATM   15  O2  UNK     1      18.757  -0.224  31.564  1.00  0.00    -0.359 OA
HETATM   16  H9  UNK     1      19.345  -0.469  32.297  1.00  0.00     0.217 HD
ENDBRANCH  14  15
TORSDOF 1
ENDMDL
MODEL 9
REMARK VINA RESULT:      -6.3     23.507     24.661
REMARK  1 active torsions:
REMARK  status: ('A' for Active; 'I' for Inactive)
REMARK    1  A    between atoms: C11_15  and  O2_3 
ROOT
HETATM    1  I1  UNK     1      16.085   9.929  10.472  1.00  0.00    -0.039 I 
HETATM    2  O1  UNK     1      13.378   8.608   9.519  1.00  0.00    -0.273 OA
HETATM    3  O3  UNK     1      11.243   9.288   9.159  1.00  0.00    -0.259 OA
HETATM    4  C1  UNK     1      14.002   6.284   9.160  1.00  0.00     0.006 A 
HETATM    5  C2  UNK     1      12.613   5.992   8.753  1.00  0.00    -0.037 A 
HETATM    6  C3  UNK     1      11.692   6.980   8.780  1.00  0.00     0.020 A 
HETATM    7  C4  UNK     1      14.337   7.584   9.529  1.00  0.00     0.109 A 
HETATM    8  C5  UNK     1      15.024   5.322   9.212  1.00  0.00     0.017 A 
HETATM    9  C6  UNK     1      12.314   4.582   8.309  1.00  0.00     0.050 C 
HETATM   10  C7  UNK     1      12.060   8.373   9.162  1.00  0.00     0.294 A 
HETATM   11  C8  UNK     1      15.627   7.944   9.927  1.00  0.00     0.074 A 
HETATM   12  C9  UNK     1      10.231   6.805   8.453  1.00  0.00     0.055 C 
HETATM   13  C10 UNK     1      16.322   5.665   9.609  1.00  0.00     0.039 A 
HETATM   14  C11 UNK     1      16.623   6.976   9.966  1.00  0.00     0.085 A 
ENDROOT
BRANCH  14  15
HETATM   15  O2  UNK     1      17.901   7.259  10.345  1.00  0.00    -0.359 OA
HETATM   16  H9  UNK     1      18.270   7.940   9.758  1.00  0.00     0.217 HD
ENDBRANCH  14  15
TORSDOF 1
ENDMDL
MODEL 10
REMARK VINA RESULT:      -6.3      1.927      3.127
REMARK  1 active torsions:
REMARK  status: ('A' for Active; 'I' for Inactive)
REMARK    1  A    between atoms: C11_15  and  O2_3 
ROOT
HETATM    1  I1  UNK     1      17.268   0.619  36.287  1.00  0.00    -0.039 I 
HETATM    2  O1  UNK     1      18.613  -0.122  33.527  1.00  0.00    -0.273 OA
HETATM    3  O3  UNK     1      18.653   0.732  31.425  1.00  0.00    -0.259 OA
HETATM    4  C1  UNK     1      19.846  -2.154  34.050  1.00  0.00     0.006 A 
HETATM    5  C2  UNK     1      20.313  -2.209  32.650  1.00  0.00    -0.037 A 
HETATM    6  C3  UNK     1      19.895  -1.271  31.773  1.00  0.00     0.020 A 
HETATM    7  C4  UNK     1      19.012  -1.110  34.441  1.00  0.00     0.109 A 
HETATM    8  C5  UNK     1      20.183  -3.103  35.028  1.00  0.00     0.017 A 
HETATM    9  C6  UNK     1      21.259  -3.327  32.290  1.00  0.00     0.050 C 
HETATM   10  C7  UNK     1      19.013  -0.147  32.201  1.00  0.00     0.294 A 
HETATM   11  C8  UNK     1      18.525  -0.983  35.744  1.00  0.00     0.074 A 
HETATM   12  C9  UNK     1      20.242  -1.246  30.306  1.00  0.00     0.055 C 
HETATM   13  C10 UNK     1      19.704  -2.992  36.339  1.00  0.00     0.039 A 
HETATM   14  C11 UNK     1      18.876  -1.932  36.697  1.00  0.00     0.085 A 
ENDROOT
BRANCH  14  15
HETATM   15  O2  UNK     1      18.437  -1.870  37.985  1.00  0.00    -0.359 OA
HETATM   16  H9  UNK     1      17.675  -2.463  38.096  1.00  0.00     0.217 HD
ENDBRANCH  14  15
TORSDOF 1
ENDMDL
