MODEL 1
REMARK VINA RESULT:      -9.5      0.000      0.000
REMARK  6 active torsions:
REMARK  status: ('A' for Active; 'I' for Inactive)
REMARK    1  A    between atoms: C18_25  and  O3_4 
REMARK    2  A    between atoms: C12_19  and  N1_6 
REMARK    3  A    between atoms: C4_11  and  N1_6 
REMARK    4  A    between atoms: C11_18  and  N2_7 
REMARK    5  A    between atoms: C12_19  and  N2_7 
REMARK    6  A    between atoms: C14_21  and  C18_25 
ROOT
HETATM    1  N1  UNK     1      18.229  -4.999  36.505  1.00  0.00    -0.333 N 
HETATM    2  H8  UNK     1      17.263  -5.136  36.788  1.00  0.00     0.168 HD
ENDROOT
BRANCH   1   3
HETATM    3  C12 UNK     1      18.693  -3.703  36.752  1.00  0.00     0.176 C 
HETATM    4  S1  UNK     1      20.277  -3.275  37.133  1.00  0.00    -0.041 SA
BRANCH   3   5
HETATM    5  N2  UNK     1      17.745  -2.692  36.804  1.00  0.00    -0.333 N 
HETATM    6  H9  UNK     1      16.791  -3.029  36.909  1.00  0.00     0.168 HD
BRANCH   5   7
HETATM    7  C11 UNK     1      17.842  -1.305  36.528  1.00  0.00     0.035 A 
HETATM    8  C13 UNK     1      17.999  -0.887  35.217  1.00  0.00     0.047 A 
HETATM    9  C14 UNK     1      18.097   0.478  34.946  1.00  0.00     0.039 A 
HETATM   10  C16 UNK     1      18.036   1.403  35.988  1.00  0.00     0.018 A 
HETATM   11  C17 UNK     1      17.877   0.962  37.302  1.00  0.00     0.003 A 
HETATM   12  C15 UNK     1      17.779  -0.402  37.574  1.00  0.00     0.029 A 
BRANCH   9  13
HETATM   13  C18 UNK     1      18.262   0.936  33.576  1.00  0.00     0.176 C 
HETATM   14  O4  UNK     1      18.914   0.359  32.700  1.00  0.00    -0.646 OA
BRANCH  13  15
HETATM   15  O3  UNK     1      17.606   2.106  33.336  1.00  0.00    -0.773 OA
HETATM   16  H14 UNK     1      17.254   2.502  34.162  1.00  0.00     0.167 HD
ENDBRANCH  13  15
ENDBRANCH   9  13
ENDBRANCH   5   7
ENDBRANCH   3   5
ENDBRANCH   1   3
BRANCH   1  17
HETATM   17  C4  UNK     1      18.894  -6.221  36.407  1.00  0.00     0.036 A 
HETATM   18  C5  UNK     1      18.592  -7.255  37.287  1.00  0.00     0.067 A 
HETATM   19  C2  UNK     1      19.270  -8.469  37.170  1.00  0.00     0.092 A 
HETATM   20  C1  UNK     1      20.246  -8.687  36.197  1.00  0.00     0.004 A 
HETATM   21  O1  UNK     1      18.920  -9.479  38.089  1.00  0.00    -0.275 OA
HETATM   22  C3  UNK     1      20.909  -9.998  36.147  1.00  0.00    -0.043 A 
HETATM   23  C6  UNK     1      20.537  -7.634  35.320  1.00  0.00     0.017 A 
HETATM   24  C8  UNK     1      20.556 -10.939  37.033  1.00  0.00     0.090 A 
HETATM   25  C9  UNK     1      21.964 -10.264  35.112  1.00  0.00     0.049 C 
HETATM   26  C10 UNK     1      19.528 -10.724  38.066  1.00  0.00     0.288 A 
HETATM   27  O2  UNK     1      19.230 -11.609  38.860  1.00  0.00    -0.260 OA
HETATM   28  C7  UNK     1      19.866  -6.410  35.425  1.00  0.00     0.030 A 
ENDBRANCH   1  17
TORSDOF 6
ENDMDL
MODEL 2
REMARK VINA RESULT:      -9.4      6.878     12.682
REMARK  6 active torsions:
REMARK  status: ('A' for Active; 'I' for Inactive)
REMARK    1  A    between atoms: C18_25  and  O3_4 
REMARK    2  A    between atoms: C12_19  and  N1_6 
REMARK    3  A    between atoms: C4_11  and  N1_6 
REMARK    4  A    between atoms: C11_18  and  N2_7 
REMARK    5  A    between atoms: C12_19  and  N2_7 
REMARK    6  A    between atoms: C14_21  and  C18_25 
ROOT
HETATM    1  N1  UNK     1      19.397   3.951  29.894  1.00  0.00    -0.333 N 
HETATM    2  H8  UNK     1      20.262   4.102  29.384  1.00  0.00     0.168 HD
ENDROOT
BRANCH   1   3
HETATM    3  C12 UNK     1      18.903   2.649  29.760  1.00  0.00     0.176 C 
HETATM    4  S1  UNK     1      17.759   2.135  28.635  1.00  0.00    -0.041 SA
BRANCH   3   5
HETATM    5  N2  UNK     1      19.299   1.723  30.713  1.00  0.00    -0.333 N 
HETATM    6  H9  UNK     1      19.411   2.114  31.645  1.00  0.00     0.168 HD
BRANCH   5   7
HETATM    7  C11 UNK     1      19.774   0.393  30.582  1.00  0.00     0.035 A 
HETATM    8  C13 UNK     1      19.915  -0.387  31.717  1.00  0.00     0.047 A 
HETATM    9  C14 UNK     1      20.385  -1.695  31.589  1.00  0.00     0.039 A 
HETATM   10  C16 UNK     1      20.706  -2.201  30.329  1.00  0.00     0.018 A 
HETATM   11  C17 UNK     1      20.557  -1.399  29.198  1.00  0.00     0.003 A 
HETATM   12  C15 UNK     1      20.087  -0.092  29.325  1.00  0.00     0.029 A 
BRANCH   9  13
HETATM   13  C18 UNK     1      20.539  -2.531  32.768  1.00  0.00     0.176 C 
HETATM   14  O4  UNK     1      21.259  -3.531  32.849  1.00  0.00    -0.646 OA
BRANCH  13  15
HETATM   15  O3  UNK     1      19.789  -2.093  33.817  1.00  0.00    -0.773 OA
HETATM   16  H14 UNK     1      19.231  -2.809  34.190  1.00  0.00     0.167 HD
ENDBRANCH  13  15
ENDBRANCH   9  13
ENDBRANCH   5   7
ENDBRANCH   3   5
ENDBRANCH   1   3
BRANCH   1  17
HETATM   17  C4  UNK     1      19.242   4.904  30.900  1.00  0.00     0.036 A 
HETATM   18  C5  UNK     1      17.987   5.144  31.448  1.00  0.00     0.067 A 
HETATM   19  C2  UNK     1      17.855   6.102  32.455  1.00  0.00     0.092 A 
HETATM   20  C1  UNK     1      18.943   6.833  32.936  1.00  0.00     0.004 A 
HETATM   21  O1  UNK     1      16.559   6.301  32.972  1.00  0.00    -0.275 OA
HETATM   22  C3  UNK     1      18.712   7.821  33.998  1.00  0.00    -0.043 A 
HETATM   23  C6  UNK     1      20.199   6.577  32.370  1.00  0.00     0.017 A 
HETATM   24  C8  UNK     1      17.469   7.989  34.470  1.00  0.00     0.090 A 
HETATM   25  C9  UNK     1      19.861   8.624  34.536  1.00  0.00     0.049 C 
HETATM   26  C10 UNK     1      16.311   7.226  33.973  1.00  0.00     0.288 A 
HETATM   27  O2  UNK     1      15.188   7.406  34.430  1.00  0.00    -0.260 OA
HETATM   28  C7  UNK     1      20.347   5.620  31.360  1.00  0.00     0.030 A 
ENDBRANCH   1  17
TORSDOF 6
ENDMDL
MODEL 3
REMARK VINA RESULT:      -9.4      1.387      2.126
REMARK  6 active torsions:
REMARK  status: ('A' for Active; 'I' for Inactive)
REMARK    1  A    between atoms: C18_25  and  O3_4 
REMARK    2  A    between atoms: C12_19  and  N1_6 
REMARK    3  A    between atoms: C4_11  and  N1_6 
REMARK    4  A    between atoms: C11_18  and  N2_7 
REMARK    5  A    between atoms: C12_19  and  N2_7 
REMARK    6  A    between atoms: C14_21  and  C18_25 
ROOT
HETATM    1  N1  UNK     1      19.083  -5.015  35.931  1.00  0.00    -0.333 N 
HETATM    2  H8  UNK     1      18.321  -4.971  35.262  1.00  0.00     0.168 HD
ENDROOT
BRANCH   1   3
HETATM    3  C12 UNK     1      19.302  -3.802  36.592  1.00  0.00     0.176 C 
HETATM    4  S1  UNK     1      20.737  -3.324  37.335  1.00  0.00    -0.041 SA
BRANCH   3   5
HETATM    5  N2  UNK     1      18.208  -2.965  36.755  1.00  0.00    -0.333 N 
HETATM    6  H9  UNK     1      17.326  -3.459  36.862  1.00  0.00     0.168 HD
BRANCH   5   7
HETATM    7  C11 UNK     1      18.071  -1.564  36.589  1.00  0.00     0.035 A 
HETATM    8  C13 UNK     1      18.195  -1.019  35.323  1.00  0.00     0.047 A 
HETATM    9  C14 UNK     1      18.062   0.361  35.160  1.00  0.00     0.039 A 
HETATM   10  C16 UNK     1      17.807   1.172  36.265  1.00  0.00     0.018 A 
HETATM   11  C17 UNK     1      17.685   0.605  37.533  1.00  0.00     0.003 A 
HETATM   12  C15 UNK     1      17.819  -0.774  37.697  1.00  0.00     0.029 A 
BRANCH   9  13
HETATM   13  C18 UNK     1      18.188   0.952  33.837  1.00  0.00     0.176 C 
HETATM   14  O4  UNK     1      17.600   1.965  33.447  1.00  0.00    -0.646 OA
BRANCH  13  15
HETATM   15  O3  UNK     1      19.046   0.260  33.038  1.00  0.00    -0.773 OA
HETATM   16  H14 UNK     1      19.582  -0.383  33.549  1.00  0.00     0.167 HD
ENDBRANCH  13  15
ENDBRANCH   9  13
ENDBRANCH   5   7
ENDBRANCH   3   5
ENDBRANCH   1   3
BRANCH   1  17
HETATM   17  C4  UNK     1      19.342  -6.334  36.301  1.00  0.00     0.036 A 
HETATM   18  C5  UNK     1      20.269  -7.090  35.593  1.00  0.00     0.067 A 
HETATM   19  C2  UNK     1      20.513  -8.408  35.982  1.00  0.00     0.092 A 
HETATM   20  C1  UNK     1      19.857  -9.000  37.063  1.00  0.00     0.004 A 
HETATM   21  O1  UNK     1      21.463  -9.124  35.227  1.00  0.00    -0.275 OA
HETATM   22  C3  UNK     1      20.177 -10.394  37.402  1.00  0.00    -0.043 A 
HETATM   23  C6  UNK     1      18.927  -8.222  37.764  1.00  0.00     0.017 A 
HETATM   24  C8  UNK     1      21.084 -11.050  36.666  1.00  0.00     0.090 A 
HETATM   25  C9  UNK     1      19.488 -11.059  38.558  1.00  0.00     0.049 C 
HETATM   26  C10 UNK     1      21.784 -10.439  35.523  1.00  0.00     0.288 A 
HETATM   27  O2  UNK     1      22.610 -11.070  34.873  1.00  0.00    -0.260 OA
HETATM   28  C7  UNK     1      18.671  -6.899  37.386  1.00  0.00     0.030 A 
ENDBRANCH   1  17
TORSDOF 6
ENDMDL
MODEL 4
REMARK VINA RESULT:      -9.0      6.593     12.771
REMARK  6 active torsions:
REMARK  status: ('A' for Active; 'I' for Inactive)
REMARK    1  A    between atoms: C18_25  and  O3_4 
REMARK    2  A    between atoms: C12_19  and  N1_6 
REMARK    3  A    between atoms: C4_11  and  N1_6 
REMARK    4  A    between atoms: C11_18  and  N2_7 
REMARK    5  A    between atoms: C12_19  and  N2_7 
REMARK    6  A    between atoms: C14_21  and  C18_25 
ROOT
HETATM    1  N1  UNK     1      19.106   4.013  30.584  1.00  0.00    -0.333 N 
HETATM    2  H8  UNK     1      19.855   4.060  29.900  1.00  0.00     0.168 HD
ENDROOT
BRANCH   1   3
HETATM    3  C12 UNK     1      18.651   2.710  30.809  1.00  0.00     0.176 C 
HETATM    4  S1  UNK     1      18.867   1.394  29.779  1.00  0.00    -0.041 SA
BRANCH   3   5
HETATM    5  N2  UNK     1      17.848   2.505  31.921  1.00  0.00    -0.333 N 
HETATM    6  H9  UNK     1      16.905   2.872  31.821  1.00  0.00     0.168 HD
BRANCH   5   7
HETATM    7  C11 UNK     1      18.163   2.070  33.233  1.00  0.00     0.035 A 
HETATM    8  C13 UNK     1      18.329   0.717  33.474  1.00  0.00     0.047 A 
HETATM    9  C14 UNK     1      18.637   0.289  34.766  1.00  0.00     0.039 A 
HETATM   10  C16 UNK     1      18.775   1.220  35.795  1.00  0.00     0.018 A 
HETATM   11  C17 UNK     1      18.605   2.579  35.533  1.00  0.00     0.003 A 
HETATM   12  C15 UNK     1      18.296   3.008  34.242  1.00  0.00     0.029 A 
BRANCH   9  13
HETATM   13  C18 UNK     1      18.815  -1.128  35.039  1.00  0.00     0.176 C 
HETATM   14  O4  UNK     1      19.849  -1.773  34.835  1.00  0.00    -0.646 OA
BRANCH  13  15
HETATM   15  O3  UNK     1      17.696  -1.702  35.560  1.00  0.00    -0.773 OA
HETATM   16  H14 UNK     1      17.413  -1.262  36.390  1.00  0.00     0.167 HD
ENDBRANCH  13  15
ENDBRANCH   9  13
ENDBRANCH   5   7
ENDBRANCH   3   5
ENDBRANCH   1   3
BRANCH   1  17
HETATM   17  C4  UNK     1      19.100   5.151  31.391  1.00  0.00     0.036 A 
HETATM   18  C5  UNK     1      17.931   5.886  31.554  1.00  0.00     0.067 A 
HETATM   19  C2  UNK     1      17.947   7.020  32.366  1.00  0.00     0.092 A 
HETATM   20  C1  UNK     1      19.100   7.448  33.028  1.00  0.00     0.004 A 
HETATM   21  O1  UNK     1      16.732   7.724  32.493  1.00  0.00    -0.275 OA
HETATM   22  C3  UNK     1      19.025   8.654  33.864  1.00  0.00    -0.043 A 
HETATM   23  C6  UNK     1      20.267   6.694  32.851  1.00  0.00     0.017 A 
HETATM   24  C8  UNK     1      17.857   9.303  33.965  1.00  0.00     0.090 A 
HETATM   25  C9  UNK     1      20.248   9.140  34.587  1.00  0.00     0.049 C 
HETATM   26  C10 UNK     1      16.632   8.865  33.274  1.00  0.00     0.288 A 
HETATM   27  O2  UNK     1      15.581   9.483  33.391  1.00  0.00    -0.260 OA
HETATM   28  C7  UNK     1      20.267   5.554  32.039  1.00  0.00     0.030 A 
ENDBRANCH   1  17
TORSDOF 6
ENDMDL
MODEL 5
REMARK VINA RESULT:      -9.0      6.155      8.521
REMARK  6 active torsions:
REMARK  status: ('A' for Active; 'I' for Inactive)
REMARK    1  A    between atoms: C18_25  and  O3_4 
REMARK    2  A    between atoms: C12_19  and  N1_6 
REMARK    3  A    between atoms: C4_11  and  N1_6 
REMARK    4  A    between atoms: C11_18  and  N2_7 
REMARK    5  A    between atoms: C12_19  and  N2_7 
REMARK    6  A    between atoms: C14_21  and  C18_25 
ROOT
HETATM    1  N1  UNK     1      19.028   0.879  31.150  1.00  0.00    -0.333 N 
HETATM    2  H8  UNK     1      19.593   0.275  30.560  1.00  0.00     0.168 HD
ENDROOT
BRANCH   1   3
HETATM    3  C12 UNK     1      18.242   1.777  30.421  1.00  0.00     0.176 C 
HETATM    4  S1  UNK     1      17.925   1.700  28.768  1.00  0.00    -0.041 SA
BRANCH   3   5
HETATM    5  N2  UNK     1      17.777   2.898  31.093  1.00  0.00    -0.333 N 
HETATM    6  H9  UNK     1      16.774   2.888  31.263  1.00  0.00     0.168 HD
BRANCH   5   7
HETATM    7  C11 UNK     1      18.402   4.134  31.393  1.00  0.00     0.035 A 
HETATM    8  C13 UNK     1      18.127   4.754  32.600  1.00  0.00     0.047 A 
HETATM    9  C14 UNK     1      18.741   5.971  32.895  1.00  0.00     0.039 A 
HETATM   10  C16 UNK     1      19.620   6.550  31.979  1.00  0.00     0.018 A 
HETATM   11  C17 UNK     1      19.885   5.910  30.768  1.00  0.00     0.003 A 
HETATM   12  C15 UNK     1      19.271   4.693  30.473  1.00  0.00     0.029 A 
BRANCH   9  13
HETATM   13  C18 UNK     1      18.465   6.637  34.158  1.00  0.00     0.176 C 
HETATM   14  O4  UNK     1      19.226   7.420  34.736  1.00  0.00    -0.646 OA
BRANCH  13  15
HETATM   15  O3  UNK     1      17.245   6.308  34.664  1.00  0.00    -0.773 OA
HETATM   16  H14 UNK     1      17.219   5.379  34.977  1.00  0.00     0.167 HD
ENDBRANCH  13  15
ENDBRANCH   9  13
ENDBRANCH   5   7
ENDBRANCH   3   5
ENDBRANCH   1   3
BRANCH   1  17
HETATM   17  C4  UNK     1      18.868   0.322  32.419  1.00  0.00     0.036 A 
HETATM   18  C5  UNK     1      18.366   1.093  33.462  1.00  0.00     0.067 A 
HETATM   19  C2  UNK     1      18.213   0.515  34.723  1.00  0.00     0.092 A 
HETATM   20  C1  UNK     1      18.545  -0.816  34.979  1.00  0.00     0.004 A 
HETATM   21  O1  UNK     1      17.699   1.345  35.740  1.00  0.00    -0.275 OA
HETATM   22  C3  UNK     1      18.350  -1.341  36.337  1.00  0.00    -0.043 A 
HETATM   23  C6  UNK     1      19.049  -1.576  33.915  1.00  0.00     0.017 A 
HETATM   24  C8  UNK     1      17.861  -0.529  37.284  1.00  0.00     0.090 A 
HETATM   25  C9  UNK     1      18.699  -2.769  36.645  1.00  0.00     0.049 C 
HETATM   26  C10 UNK     1      17.506   0.878  37.030  1.00  0.00     0.288 A 
HETATM   27  O2  UNK     1      17.059   1.591  37.921  1.00  0.00    -0.260 OA
HETATM   28  C7  UNK     1      19.209  -1.011  32.645  1.00  0.00     0.030 A 
ENDBRANCH   1  17
TORSDOF 6
ENDMDL
MODEL 6
REMARK VINA RESULT:      -8.9      8.774     14.594
REMARK  6 active torsions:
REMARK  status: ('A' for Active; 'I' for Inactive)
REMARK    1  A    between atoms: C18_25  and  O3_4 
REMARK    2  A    between atoms: C12_19  and  N1_6 
REMARK    3  A    between atoms: C4_11  and  N1_6 
REMARK    4  A    between atoms: C11_18  and  N2_7 
REMARK    5  A    between atoms: C12_19  and  N2_7 
REMARK    6  A    between atoms: C14_21  and  C18_25 
ROOT
HETATM    1  N1  UNK     1      18.427   5.607  32.897  1.00  0.00    -0.333 N 
HETATM    2  H8  UNK     1      18.482   4.957  33.675  1.00  0.00     0.168 HD
ENDROOT
BRANCH   1   3
HETATM    3  C12 UNK     1      18.609   4.991  31.655  1.00  0.00     0.176 C 
HETATM    4  S1  UNK     1      19.377   5.667  30.317  1.00  0.00    -0.041 SA
BRANCH   3   5
HETATM    5  N2  UNK     1      18.001   3.759  31.467  1.00  0.00    -0.333 N 
HETATM    6  H9  UNK     1      17.312   3.527  32.179  1.00  0.00     0.168 HD
BRANCH   5   7
HETATM    7  C11 UNK     1      18.313   2.686  30.593  1.00  0.00     0.035 A 
HETATM    8  C13 UNK     1      19.106   1.650  31.054  1.00  0.00     0.047 A 
HETATM    9  C14 UNK     1      19.415   0.595  30.194  1.00  0.00     0.039 A 
HETATM   10  C16 UNK     1      18.926   0.594  28.888  1.00  0.00     0.018 A 
HETATM   11  C17 UNK     1      18.128   1.647  28.442  1.00  0.00     0.003 A 
HETATM   12  C15 UNK     1      17.819   2.702  29.301  1.00  0.00     0.029 A 
BRANCH   9  13
HETATM   13  C18 UNK     1      20.247  -0.503  30.660  1.00  0.00     0.176 C 
HETATM   14  O4  UNK     1      21.251  -0.390  31.370  1.00  0.00    -0.646 OA
BRANCH  13  15
HETATM   15  O3  UNK     1      19.800  -1.714  30.226  1.00  0.00    -0.773 OA
HETATM   16  H14 UNK     1      20.536  -2.350  30.101  1.00  0.00     0.167 HD
ENDBRANCH  13  15
ENDBRANCH   9  13
ENDBRANCH   5   7
ENDBRANCH   3   5
ENDBRANCH   1   3
BRANCH   1  17
HETATM   17  C4  UNK     1      17.748   6.768  33.267  1.00  0.00     0.036 A 
HETATM   18  C5  UNK     1      18.410   7.991  33.281  1.00  0.00     0.067 A 
HETATM   19  C2  UNK     1      17.711   9.139  33.654  1.00  0.00     0.092 A 
HETATM   20  C1  UNK     1      16.362   9.108  34.014  1.00  0.00     0.004 A 
HETATM   21  O1  UNK     1      18.434  10.349  33.649  1.00  0.00    -0.275 OA
HETATM   22  C3  UNK     1      15.706  10.366  34.392  1.00  0.00    -0.043 A 
HETATM   23  C6  UNK     1      15.714   7.866  33.993  1.00  0.00     0.017 A 
HETATM   24  C8  UNK     1      16.418  11.501  34.379  1.00  0.00     0.090 A 
HETATM   25  C9  UNK     1      14.256  10.365  34.786  1.00  0.00     0.049 C 
HETATM   26  C10 UNK     1      17.841  11.551  34.002  1.00  0.00     0.288 A 
HETATM   27  O2  UNK     1      18.461  12.608  34.000  1.00  0.00    -0.260 OA
HETATM   28  C7  UNK     1      16.401   6.705  33.622  1.00  0.00     0.030 A 
ENDBRANCH   1  17
TORSDOF 6
ENDMDL
MODEL 7
REMARK VINA RESULT:      -8.8      7.046      9.561
REMARK  6 active torsions:
REMARK  status: ('A' for Active; 'I' for Inactive)
REMARK    1  A    between atoms: C18_25  and  O3_4 
REMARK    2  A    between atoms: C12_19  and  N1_6 
REMARK    3  A    between atoms: C4_11  and  N1_6 
REMARK    4  A    between atoms: C11_18  and  N2_7 
REMARK    5  A    between atoms: C12_19  and  N2_7 
REMARK    6  A    between atoms: C14_21  and  C18_25 
ROOT
HETATM    1  N1  UNK     1      17.897   3.729  31.315  1.00  0.00    -0.333 N 
HETATM    2  H8  UNK     1      16.976   3.671  31.740  1.00  0.00     0.168 HD
ENDROOT
BRANCH   1   3
HETATM    3  C12 UNK     1      18.493   4.984  31.471  1.00  0.00     0.176 C 
HETATM    4  S1  UNK     1      19.474   5.762  30.344  1.00  0.00    -0.041 SA
BRANCH   3   5
HETATM    5  N2  UNK     1      18.365   5.594  32.710  1.00  0.00    -0.333 N 
HETATM    6  H9  UNK     1      18.863   5.116  33.457  1.00  0.00     0.168 HD
BRANCH   5   7
HETATM    7  C11 UNK     1      17.507   6.629  33.158  1.00  0.00     0.035 A 
HETATM    8  C13 UNK     1      16.211   6.687  32.674  1.00  0.00     0.047 A 
HETATM    9  C14 UNK     1      15.366   7.707  33.113  1.00  0.00     0.039 A 
HETATM   10  C16 UNK     1      15.829   8.653  34.028  1.00  0.00     0.018 A 
HETATM   11  C17 UNK     1      17.138   8.578  34.504  1.00  0.00     0.003 A 
HETATM   12  C15 UNK     1      17.984   7.558  34.066  1.00  0.00     0.029 A 
BRANCH   9  13
HETATM   13  C18 UNK     1      14.001   7.785  32.617  1.00  0.00     0.176 C 
HETATM   14  O4  UNK     1      13.431   6.916  31.949  1.00  0.00    -0.646 OA
BRANCH  13  15
HETATM   15  O3  UNK     1      13.384   8.946  32.970  1.00  0.00    -0.773 OA
HETATM   16  H14 UNK     1      12.464   8.987  32.633  1.00  0.00     0.167 HD
ENDBRANCH  13  15
ENDBRANCH   9  13
ENDBRANCH   5   7
ENDBRANCH   3   5
ENDBRANCH   1   3
BRANCH   1  17
HETATM   17  C4  UNK     1      18.441   2.458  31.137  1.00  0.00     0.036 A 
HETATM   18  C5  UNK     1      18.607   1.609  32.226  1.00  0.00     0.067 A 
HETATM   19  C2  UNK     1      19.153   0.341  32.024  1.00  0.00     0.092 A 
HETATM   20  C1  UNK     1      19.542  -0.112  30.762  1.00  0.00     0.004 A 
HETATM   21  O1  UNK     1      19.295  -0.474  33.165  1.00  0.00    -0.275 OA
HETATM   22  C3  UNK     1      20.107  -1.463  30.643  1.00  0.00    -0.043 A 
HETATM   23  C6  UNK     1      19.367   0.758  29.678  1.00  0.00     0.017 A 
HETATM   24  C8  UNK     1      20.232  -2.215  31.745  1.00  0.00     0.090 A 
HETATM   25  C9  UNK     1      20.536  -1.978  29.300  1.00  0.00     0.049 C 
HETATM   26  C10 UNK     1      19.826  -1.752  33.083  1.00  0.00     0.288 A 
HETATM   27  O2  UNK     1      19.953  -2.469  34.069  1.00  0.00    -0.260 OA
HETATM   28  C7  UNK     1      18.821   2.033  29.864  1.00  0.00     0.030 A 
ENDBRANCH   1  17
TORSDOF 6
ENDMDL
MODEL 8
REMARK VINA RESULT:      -8.8      8.628     14.420
REMARK  6 active torsions:
REMARK  status: ('A' for Active; 'I' for Inactive)
REMARK    1  A    between atoms: C18_25  and  O3_4 
REMARK    2  A    between atoms: C12_19  and  N1_6 
REMARK    3  A    between atoms: C4_11  and  N1_6 
REMARK    4  A    between atoms: C11_18  and  N2_7 
REMARK    5  A    between atoms: C12_19  and  N2_7 
REMARK    6  A    between atoms: C14_21  and  C18_25 
ROOT
HETATM    1  N1  UNK     1      18.241   5.364  32.779  1.00  0.00    -0.333 N 
HETATM    2  H8  UNK     1      17.830   4.730  33.457  1.00  0.00     0.168 HD
ENDROOT
BRANCH   1   3
HETATM    3  C12 UNK     1      18.571   4.737  31.574  1.00  0.00     0.176 C 
HETATM    4  S1  UNK     1      19.554   5.374  30.363  1.00  0.00    -0.041 SA
BRANCH   3   5
HETATM    5  N2  UNK     1      17.941   3.533  31.295  1.00  0.00    -0.333 N 
HETATM    6  H9  UNK     1      17.151   3.333  31.902  1.00  0.00     0.168 HD
BRANCH   5   7
HETATM    7  C11 UNK     1      18.325   2.448  30.467  1.00  0.00     0.035 A 
HETATM    8  C13 UNK     1      19.106   1.436  30.999  1.00  0.00     0.047 A 
HETATM    9  C14 UNK     1      19.485   0.369  30.184  1.00  0.00     0.039 A 
HETATM   10  C16 UNK     1      19.077   0.330  28.851  1.00  0.00     0.018 A 
HETATM   11  C17 UNK     1      18.289   1.358  28.333  1.00  0.00     0.003 A 
HETATM   12  C15 UNK     1      17.910   2.425  29.147  1.00  0.00     0.029 A 
BRANCH   9  13
HETATM   13  C18 UNK     1      20.305  -0.703  30.725  1.00  0.00     0.176 C 
HETATM   14  O4  UNK     1      21.345  -0.552  31.374  1.00  0.00    -0.646 OA
BRANCH  13  15
HETATM   15  O3  UNK     1      19.804  -1.936  30.439  1.00  0.00    -0.773 OA
HETATM   16  H14 UNK     1      20.447  -2.485  29.943  1.00  0.00     0.167 HD
ENDBRANCH  13  15
ENDBRANCH   9  13
ENDBRANCH   5   7
ENDBRANCH   3   5
ENDBRANCH   1   3
BRANCH   1  17
HETATM   17  C4  UNK     1      17.919   6.687  33.079  1.00  0.00     0.036 A 
HETATM   18  C5  UNK     1      16.605   7.130  32.970  1.00  0.00     0.067 A 
HETATM   19  C2  UNK     1      16.306   8.458  33.277  1.00  0.00     0.092 A 
HETATM   20  C1  UNK     1      17.282   9.366  33.692  1.00  0.00     0.004 A 
HETATM   21  O1  UNK     1      14.958   8.848  33.148  1.00  0.00    -0.275 OA
HETATM   22  C3  UNK     1      16.877  10.745  33.995  1.00  0.00    -0.043 A 
HETATM   23  C6  UNK     1      18.600   8.900  33.796  1.00  0.00     0.017 A 
HETATM   24  C8  UNK     1      15.588  11.087  33.863  1.00  0.00     0.090 A 
HETATM   25  C9  UNK     1      17.903  11.745  34.444  1.00  0.00     0.049 C 
HETATM   26  C10 UNK     1      14.547  10.142  33.425  1.00  0.00     0.288 A 
HETATM   27  O2  UNK     1      13.377  10.491  33.317  1.00  0.00    -0.260 OA
HETATM   28  C7  UNK     1      18.915   7.572  33.492  1.00  0.00     0.030 A 
ENDBRANCH   1  17
TORSDOF 6
ENDMDL
MODEL 9
REMARK VINA RESULT:      -8.8      7.421     10.359
REMARK  6 active torsions:
REMARK  status: ('A' for Active; 'I' for Inactive)
REMARK    1  A    between atoms: C18_25  and  O3_4 
REMARK    2  A    between atoms: C12_19  and  N1_6 
REMARK    3  A    between atoms: C4_11  and  N1_6 
REMARK    4  A    between atoms: C11_18  and  N2_7 
REMARK    5  A    between atoms: C12_19  and  N2_7 
REMARK    6  A    between atoms: C14_21  and  C18_25 
ROOT
HETATM    1  N1  UNK     1      17.718   4.395  31.943  1.00  0.00    -0.333 N 
HETATM    2  H8  UNK     1      17.065   4.238  32.704  1.00  0.00     0.168 HD
ENDROOT
BRANCH   1   3
HETATM    3  C12 UNK     1      18.217   5.701  31.911  1.00  0.00     0.176 C 
HETATM    4  S1  UNK     1      19.755   6.185  32.397  1.00  0.00    -0.041 SA
BRANCH   3   5
HETATM    5  N2  UNK     1      17.330   6.708  31.559  1.00  0.00    -0.333 N 
HETATM    6  H9  UNK     1      17.584   7.200  30.706  1.00  0.00     0.168 HD
BRANCH   5   7
HETATM    7  C11 UNK     1      16.264   7.306  32.276  1.00  0.00     0.035 A 
HETATM    8  C13 UNK     1      16.544   8.304  33.194  1.00  0.00     0.047 A 
HETATM    9  C14 UNK     1      15.495   8.892  33.902  1.00  0.00     0.039 A 
HETATM   10  C16 UNK     1      14.183   8.474  33.680  1.00  0.00     0.018 A 
HETATM   11  C17 UNK     1      13.920   7.468  32.750  1.00  0.00     0.003 A 
HETATM   12  C15 UNK     1      14.968   6.879  32.042  1.00  0.00     0.029 A 
BRANCH   9  13
HETATM   13  C18 UNK     1      15.770   9.941  34.871  1.00  0.00     0.176 C 
HETATM   14  O4  UNK     1      16.717  10.732  34.821  1.00  0.00    -0.646 OA
BRANCH  13  15
HETATM   15  O3  UNK     1      14.852   9.974  35.876  1.00  0.00    -0.773 OA
HETATM   16  H14 UNK     1      14.119   9.340  35.721  1.00  0.00     0.167 HD
ENDBRANCH  13  15
ENDBRANCH   9  13
ENDBRANCH   5   7
ENDBRANCH   3   5
ENDBRANCH   1   3
BRANCH   1  17
HETATM   17  C4  UNK     1      18.245   3.188  31.484  1.00  0.00     0.036 A 
HETATM   18  C5  UNK     1      18.439   2.130  32.366  1.00  0.00     0.067 A 
HETATM   19  C2  UNK     1      18.967   0.931  31.885  1.00  0.00     0.092 A 
HETATM   20  C1  UNK     1      19.310   0.752  30.544  1.00  0.00     0.004 A 
HETATM   21  O1  UNK     1      19.140  -0.105  32.825  1.00  0.00    -0.275 OA
HETATM   22  C3  UNK     1      19.860  -0.545  30.126  1.00  0.00    -0.043 A 
HETATM   23  C6  UNK     1      19.108   1.829  29.672  1.00  0.00     0.017 A 
HETATM   24  C8  UNK     1      20.014  -1.511  31.042  1.00  0.00     0.090 A 
HETATM   25  C9  UNK     1      20.240  -0.769  28.691  1.00  0.00     0.049 C 
HETATM   26  C10 UNK     1      19.656  -1.338  32.460  1.00  0.00     0.288 A 
HETATM   27  O2  UNK     1      19.810  -2.245  33.270  1.00  0.00    -0.260 OA
HETATM   28  C7  UNK     1      18.580   3.038  30.139  1.00  0.00     0.030 A 
ENDBRANCH   1  17
TORSDOF 6
ENDMDL
MODEL 10
REMARK VINA RESULT:      -8.8      7.300     13.414
REMARK  6 active torsions:
REMARK  status: ('A' for Active; 'I' for Inactive)
REMARK    1  A    between atoms: C18_25  and  O3_4 
REMARK    2  A    between atoms: C12_19  and  N1_6 
REMARK    3  A    between atoms: C4_11  and  N1_6 
REMARK    4  A    between atoms: C11_18  and  N2_7 
REMARK    5  A    between atoms: C12_19  and  N2_7 
REMARK    6  A    between atoms: C14_21  and  C18_25 
ROOT
HETATM    1  N1  UNK     1      18.107   3.934  32.212  1.00  0.00    -0.333 N 
HETATM    2  H8  UNK     1      17.561   3.334  32.822  1.00  0.00     0.168 HD
ENDROOT
BRANCH   1   3
HETATM    3  C12 UNK     1      18.395   3.344  30.977  1.00  0.00     0.176 C 
HETATM    4  S1  UNK     1      18.929   4.148  29.596  1.00  0.00    -0.041 SA
BRANCH   3   5
HETATM    5  N2  UNK     1      18.104   1.995  30.839  1.00  0.00    -0.333 N 
HETATM    6  H9  UNK     1      17.181   1.737  31.179  1.00  0.00     0.168 HD
BRANCH   5   7
HETATM    7  C11 UNK     1      18.929   0.891  30.509  1.00  0.00     0.035 A 
HETATM    8  C13 UNK     1      19.271  -0.015  31.499  1.00  0.00     0.047 A 
HETATM    9  C14 UNK     1      20.085  -1.101  31.175  1.00  0.00     0.039 A 
HETATM   10  C16 UNK     1      20.543  -1.265  29.868  1.00  0.00     0.018 A 
HETATM   11  C17 UNK     1      20.187  -0.342  28.884  1.00  0.00     0.003 A 
HETATM   12  C15 UNK     1      19.374   0.744  29.207  1.00  0.00     0.029 A 
BRANCH   9  13
HETATM   13  C18 UNK     1      20.454  -2.064  32.200  1.00  0.00     0.176 C 
HETATM   14  O4  UNK     1      21.117  -3.089  32.015  1.00  0.00    -0.646 OA
BRANCH  13  15
HETATM   15  O3  UNK     1      19.986  -1.718  33.431  1.00  0.00    -0.773 OA
HETATM   16  H14 UNK     1      19.669  -0.790  33.453  1.00  0.00     0.167 HD
ENDBRANCH  13  15
ENDBRANCH   9  13
ENDBRANCH   5   7
ENDBRANCH   3   5
ENDBRANCH   1   3
BRANCH   1  17
HETATM   17  C4  UNK     1      17.993   5.269  32.598  1.00  0.00     0.036 A 
HETATM   18  C5  UNK     1      19.104   5.958  33.073  1.00  0.00     0.067 A 
HETATM   19  C2  UNK     1      18.967   7.293  33.453  1.00  0.00     0.092 A 
HETATM   20  C1  UNK     1      17.748   7.970  33.375  1.00  0.00     0.004 A 
HETATM   21  O1  UNK     1      20.128   7.938  33.925  1.00  0.00    -0.275 OA
HETATM   22  C3  UNK     1      17.696   9.376  33.797  1.00  0.00    -0.043 A 
HETATM   23  C6  UNK     1      16.641   7.259  32.894  1.00  0.00     0.017 A 
HETATM   24  C8  UNK     1      18.815   9.963  34.242  1.00  0.00     0.090 A 
HETATM   25  C9  UNK     1      16.400  10.131  33.725  1.00  0.00     0.049 C 
HETATM   26  C10 UNK     1      20.108   9.263  34.330  1.00  0.00     0.288 A 
HETATM   27  O2  UNK     1      21.112   9.833  34.741  1.00  0.00    -0.260 OA
HETATM   28  C7  UNK     1      16.762   5.919  32.509  1.00  0.00     0.030 A 
ENDBRANCH   1  17
TORSDOF 6
ENDMDL
