MODEL 1
REMARK VINA RESULT:      -7.1      0.000      0.000
REMARK  3 active torsions:
REMARK  status: ('A' for Active; 'I' for Inactive)
REMARK    1  A    between atoms: C2_6  and  O2_2 
REMARK    2  A    between atoms: C5_9  and  O3_3 
REMARK    3  A    between atoms: C1_5  and  C2_6 
ROOT
HETATM    1  O1  UNK     1      17.588   9.368  33.152  1.00  0.00    -0.274 OA
HETATM    2  O4  UNK     1      17.799  11.575  33.727  1.00  0.00    -0.260 OA
HETATM    3  C1  UNK     1      17.383   7.054  32.558  1.00  0.00     0.038 A 
HETATM    4  C3  UNK     1      18.112   8.060  33.186  1.00  0.00     0.101 A 
HETATM    5  C4  UNK     1      19.320   7.798  33.829  1.00  0.00    -0.001 A 
HETATM    6  C5  UNK     1      17.876   5.750  32.576  1.00  0.00     0.077 A 
HETATM    7  C6  UNK     1      19.807   6.489  33.843  1.00  0.00     0.017 A 
HETATM    8  C8  UNK     1      19.085   5.468  33.216  1.00  0.00     0.038 A 
HETATM    9  C9  UNK     1      20.029   8.895  34.464  1.00  0.00     0.020 A 
HETATM   10  C10 UNK     1      19.525  10.131  34.427  1.00  0.00     0.083 A 
HETATM   11  C11 UNK     1      18.248  10.434  33.753  1.00  0.00     0.288 A 
ENDROOT
BRANCH   3  12
HETATM   12  C2  UNK     1      16.091   7.361  31.875  1.00  0.00     0.152 C 
HETATM   13  C7  UNK     1      14.965   7.690  32.858  1.00  0.00     0.044 C 
BRANCH  12  14
HETATM   14  O2  UNK     1      16.261   8.470  30.986  1.00  0.00    -0.391 OA
HETATM   15  H9  UNK     1      15.431   8.577  30.490  1.00  0.00     0.210 HD
ENDBRANCH  12  14
ENDBRANCH   3  12
BRANCH   6  16
HETATM   16  O3  UNK     1      17.191   4.737  31.973  1.00  0.00    -0.360 OA
HETATM   17  H10 UNK     1      16.825   4.151  32.659  1.00  0.00     0.217 HD
ENDBRANCH   6  16
TORSDOF 3
ENDMDL
MODEL 2
REMARK VINA RESULT:      -7.0      7.125      8.532
REMARK  3 active torsions:
REMARK  status: ('A' for Active; 'I' for Inactive)
REMARK    1  A    between atoms: C2_6  and  O2_2 
REMARK    2  A    between atoms: C5_9  and  O3_3 
REMARK    3  A    between atoms: C1_5  and  C2_6 
ROOT
HETATM    1  O1  UNK     1      18.544   1.116  32.121  1.00  0.00    -0.274 OA
HETATM    2  O4  UNK     1      17.595   1.917  34.046  1.00  0.00    -0.260 OA
HETATM    3  C1  UNK     1      19.541   0.263  30.114  1.00  0.00     0.038 A 
HETATM    4  C3  UNK     1      19.183   0.058  31.444  1.00  0.00     0.101 A 
HETATM    5  C4  UNK     1      19.442  -1.146  32.095  1.00  0.00    -0.001 A 
HETATM    6  C5  UNK     1      20.175  -0.766  29.419  1.00  0.00     0.077 A 
HETATM    7  C6  UNK     1      20.076  -2.172  31.391  1.00  0.00     0.017 A 
HETATM    8  C8  UNK     1      20.442  -1.980  30.056  1.00  0.00     0.038 A 
HETATM    9  C9  UNK     1      19.040  -1.292  33.484  1.00  0.00     0.020 A 
HETATM   10  C10 UNK     1      18.436  -0.284  34.118  1.00  0.00     0.083 A 
HETATM   11  C11 UNK     1      18.151   1.000  33.450  1.00  0.00     0.288 A 
ENDROOT
BRANCH   3  12
HETATM   12  C2  UNK     1      19.255   1.563  29.439  1.00  0.00     0.152 C 
HETATM   13  C7  UNK     1      17.847   1.620  28.838  1.00  0.00     0.044 C 
BRANCH  12  14
HETATM   14  O2  UNK     1      19.398   2.640  30.371  1.00  0.00    -0.391 OA
HETATM   15  H9  UNK     1      20.199   2.469  30.896  1.00  0.00     0.210 HD
ENDBRANCH  12  14
ENDBRANCH   3  12
BRANCH   6  16
HETATM   16  O3  UNK     1      20.540  -0.604  28.116  1.00  0.00    -0.360 OA
HETATM   17  H10 UNK     1      20.584   0.347  27.915  1.00  0.00     0.217 HD
ENDBRANCH   6  16
TORSDOF 3
ENDMDL
MODEL 3
REMARK VINA RESULT:      -6.8      2.022      3.476
REMARK  3 active torsions:
REMARK  status: ('A' for Active; 'I' for Inactive)
REMARK    1  A    between atoms: C2_6  and  O2_2 
REMARK    2  A    between atoms: C5_9  and  O3_3 
REMARK    3  A    between atoms: C1_5  and  C2_6 
ROOT
HETATM    1  O1  UNK     1      18.177   6.785  31.202  1.00  0.00    -0.274 OA
HETATM    2  O4  UNK     1      19.583   5.888  29.632  1.00  0.00    -0.260 OA
HETATM    3  C1  UNK     1      16.716   7.721  32.857  1.00  0.00     0.038 A 
HETATM    4  C3  UNK     1      17.957   7.176  32.538  1.00  0.00     0.101 A 
HETATM    5  C4  UNK     1      18.956   7.017  33.495  1.00  0.00    -0.001 A 
HETATM    6  C5  UNK     1      16.471   8.117  34.171  1.00  0.00     0.077 A 
HETATM    7  C6  UNK     1      18.702   7.417  34.809  1.00  0.00     0.017 A 
HETATM    8  C8  UNK     1      17.461   7.965  35.144  1.00  0.00     0.038 A 
HETATM    9  C9  UNK     1      20.228   6.441  33.093  1.00  0.00     0.020 A 
HETATM   10  C10 UNK     1      20.427   6.073  31.825  1.00  0.00     0.083 A 
HETATM   11  C11 UNK     1      19.385   6.232  30.793  1.00  0.00     0.288 A 
ENDROOT
BRANCH   3  12
HETATM   12  C2  UNK     1      15.661   7.880  31.813  1.00  0.00     0.152 C 
HETATM   13  C7  UNK     1      14.441   6.991  32.066  1.00  0.00     0.044 C 
BRANCH  12  14
HETATM   14  O2  UNK     1      15.230   9.244  31.758  1.00  0.00    -0.391 OA
HETATM   15  H9  UNK     1      14.860   9.470  32.628  1.00  0.00     0.210 HD
ENDBRANCH  12  14
ENDBRANCH   3  12
BRANCH   6  16
HETATM   16  O3  UNK     1      15.269   8.656  34.523  1.00  0.00    -0.360 OA
HETATM   17  H10 UNK     1      15.424   9.484  35.010  1.00  0.00     0.217 HD
ENDBRANCH   6  16
TORSDOF 3
ENDMDL
MODEL 4
REMARK VINA RESULT:      -6.8     14.805     16.532
REMARK  3 active torsions:
REMARK  status: ('A' for Active; 'I' for Inactive)
REMARK    1  A    between atoms: C2_6  and  O2_2 
REMARK    2  A    between atoms: C5_9  and  O3_3 
REMARK    3  A    between atoms: C1_5  and  C2_6 
ROOT
HETATM    1  O1  UNK     1      21.883  -6.447  37.890  1.00  0.00    -0.274 OA
HETATM    2  O4  UNK     1      23.786  -5.481  38.721  1.00  0.00    -0.260 OA
HETATM    3  C1  UNK     1      19.892  -7.471  37.031  1.00  0.00     0.038 A 
HETATM    4  C3  UNK     1      20.913  -7.466  37.978  1.00  0.00     0.101 A 
HETATM    5  C4  UNK     1      20.985  -8.427  38.983  1.00  0.00    -0.001 A 
HETATM    6  C5  UNK     1      18.918  -8.466  37.094  1.00  0.00     0.077 A 
HETATM    7  C6  UNK     1      20.005  -9.420  39.040  1.00  0.00     0.017 A 
HETATM    8  C8  UNK     1      18.974  -9.438  38.095  1.00  0.00     0.038 A 
HETATM    9  C9  UNK     1      22.078  -8.361  39.939  1.00  0.00     0.020 A 
HETATM   10  C10 UNK     1      22.993  -7.393  39.848  1.00  0.00     0.083 A 
HETATM   11  C11 UNK     1      22.937  -6.364  38.793  1.00  0.00     0.288 A 
ENDROOT
BRANCH   3  12
HETATM   12  C2  UNK     1      19.837  -6.430  35.963  1.00  0.00     0.152 C 
HETATM   13  C7  UNK     1      20.237  -6.972  34.588  1.00  0.00     0.044 C 
BRANCH  12  14
HETATM   14  O2  UNK     1      18.513  -5.890  35.874  1.00  0.00    -0.391 OA
HETATM   15  H9  UNK     1      18.388  -5.294  36.631  1.00  0.00     0.210 HD
ENDBRANCH  12  14
ENDBRANCH   3  12
BRANCH   6  16
HETATM   16  O3  UNK     1      17.902  -8.505  36.186  1.00  0.00    -0.360 OA
HETATM   17  H10 UNK     1      17.280  -9.210  36.437  1.00  0.00     0.217 HD
ENDBRANCH   6  16
TORSDOF 3
ENDMDL
MODEL 5
REMARK VINA RESULT:      -6.7      7.637      9.170
REMARK  3 active torsions:
REMARK  status: ('A' for Active; 'I' for Inactive)
REMARK    1  A    between atoms: C2_6  and  O2_2 
REMARK    2  A    between atoms: C5_9  and  O3_3 
REMARK    3  A    between atoms: C1_5  and  C2_6 
ROOT
HETATM    1  O1  UNK     1      18.651   0.796  31.203  1.00  0.00    -0.274 OA
HETATM    2  O4  UNK     1      18.188   2.291  29.530  1.00  0.00    -0.260 OA
HETATM    3  C1  UNK     1      19.144  -0.779  32.944  1.00  0.00     0.038 A 
HETATM    4  C3  UNK     1      19.309  -0.379  31.620  1.00  0.00     0.101 A 
HETATM    5  C4  UNK     1      20.094  -1.105  30.727  1.00  0.00    -0.001 A 
HETATM    6  C5  UNK     1      19.783  -1.936  33.384  1.00  0.00     0.077 A 
HETATM    7  C6  UNK     1      20.731  -2.264  31.177  1.00  0.00     0.017 A 
HETATM    8  C8  UNK     1      20.574  -2.677  32.503  1.00  0.00     0.038 A 
HETATM    9  C9  UNK     1      20.222  -0.630  29.360  1.00  0.00     0.020 A 
HETATM   10  C10 UNK     1      19.595   0.483  28.974  1.00  0.00     0.083 A 
HETATM   11  C11 UNK     1      18.759   1.270  29.901  1.00  0.00     0.288 A 
ENDROOT
BRANCH   3  12
HETATM   12  C2  UNK     1      18.296   0.017  33.881  1.00  0.00     0.152 C 
HETATM   13  C7  UNK     1      17.029  -0.728  34.308  1.00  0.00     0.044 C 
BRANCH  12  14
HETATM   14  O2  UNK     1      19.047   0.352  35.053  1.00  0.00    -0.391 OA
HETATM   15  H9  UNK     1      19.591   1.129  34.840  1.00  0.00     0.210 HD
ENDBRANCH  12  14
ENDBRANCH   3  12
BRANCH   6  16
HETATM   16  O3  UNK     1      19.647  -2.360  34.672  1.00  0.00    -0.360 OA
HETATM   17  H10 UNK     1      18.713  -2.287  34.933  1.00  0.00     0.217 HD
ENDBRANCH   6  16
TORSDOF 3
ENDMDL
MODEL 6
REMARK VINA RESULT:      -6.7     24.141     26.235
REMARK  3 active torsions:
REMARK  status: ('A' for Active; 'I' for Inactive)
REMARK    1  A    between atoms: C2_6  and  O2_2 
REMARK    2  A    between atoms: C5_9  and  O3_3 
REMARK    3  A    between atoms: C1_5  and  C2_6 
ROOT
HETATM    1  O1  UNK     1       9.935   5.636   9.626  1.00  0.00    -0.274 OA
HETATM    2  O4  UNK     1       8.187   5.161  11.028  1.00  0.00    -0.260 OA
HETATM    3  C1  UNK     1      11.754   6.134   8.145  1.00  0.00     0.038 A 
HETATM    4  C3  UNK     1      10.391   5.914   8.322  1.00  0.00     0.101 A 
HETATM    5  C4  UNK     1       9.496   5.963   7.255  1.00  0.00    -0.001 A 
HETATM    6  C5  UNK     1      12.234   6.410   6.866  1.00  0.00     0.077 A 
HETATM    7  C6  UNK     1       9.985   6.242   5.977  1.00  0.00     0.017 A 
HETATM    8  C8  UNK     1      11.351   6.465   5.785  1.00  0.00     0.038 A 
HETATM    9  C9  UNK     1       8.086   5.725   7.511  1.00  0.00     0.020 A 
HETATM   10  C10 UNK     1       7.663   5.462   8.750  1.00  0.00     0.083 A 
HETATM   11  C11 UNK     1       8.591   5.405   9.896  1.00  0.00     0.288 A 
ENDROOT
BRANCH   3  12
HETATM   12  C2  UNK     1      12.693   6.074   9.305  1.00  0.00     0.152 C 
HETATM   13  C7  UNK     1      12.886   7.434   9.980  1.00  0.00     0.044 C 
BRANCH  12  14
HETATM   14  O2  UNK     1      12.208   5.144  10.279  1.00  0.00    -0.391 OA
HETATM   15  H9  UNK     1      11.940   4.337   9.806  1.00  0.00     0.210 HD
ENDBRANCH  12  14
ENDBRANCH   3  12
BRANCH   6  16
HETATM   16  O3  UNK     1      13.562   6.632   6.652  1.00  0.00    -0.360 OA
HETATM   17  H10 UNK     1      13.685   6.961   5.745  1.00  0.00     0.217 HD
ENDBRANCH   6  16
TORSDOF 3
ENDMDL
MODEL 7
REMARK VINA RESULT:      -6.6      6.258      8.877
REMARK  3 active torsions:
REMARK  status: ('A' for Active; 'I' for Inactive)
REMARK    1  A    between atoms: C2_6  and  O2_2 
REMARK    2  A    between atoms: C5_9  and  O3_3 
REMARK    3  A    between atoms: C1_5  and  C2_6 
ROOT
HETATM    1  O1  UNK     1      18.805   0.597  32.557  1.00  0.00    -0.274 OA
HETATM    2  O4  UNK     1      17.875   2.315  33.751  1.00  0.00    -0.260 OA
HETATM    3  C1  UNK     1      19.779  -1.193  31.292  1.00  0.00     0.038 A 
HETATM    4  C3  UNK     1      19.301   0.115  31.329  1.00  0.00     0.101 A 
HETATM    5  C4  UNK     1      19.306   0.929  30.199  1.00  0.00    -0.001 A 
HETATM    6  C5  UNK     1      20.275  -1.697  30.091  1.00  0.00     0.077 A 
HETATM    7  C6  UNK     1      19.806   0.417  28.999  1.00  0.00     0.017 A 
HETATM    8  C8  UNK     1      20.289  -0.894  28.948  1.00  0.00     0.038 A 
HETATM    9  C9  UNK     1      18.793   2.284  30.308  1.00  0.00     0.020 A 
HETATM   10  C10 UNK     1      18.325   2.732  31.476  1.00  0.00     0.083 A 
HETATM   11  C11 UNK     1      18.309   1.889  32.686  1.00  0.00     0.288 A 
ENDROOT
BRANCH   3  12
HETATM   12  C2  UNK     1      19.761  -2.046  32.517  1.00  0.00     0.152 C 
HETATM   13  C7  UNK     1      21.108  -2.066  33.244  1.00  0.00     0.044 C 
BRANCH  12  14
HETATM   14  O2  UNK     1      18.758  -1.577  33.425  1.00  0.00    -0.391 OA
HETATM   15  H9  UNK     1      19.121  -0.804  33.888  1.00  0.00     0.210 HD
ENDBRANCH  12  14
ENDBRANCH   3  12
BRANCH   6  16
HETATM   16  O3  UNK     1      20.753  -2.971  30.014  1.00  0.00    -0.360 OA
HETATM   17  H10 UNK     1      20.645  -3.402  30.880  1.00  0.00     0.217 HD
ENDBRANCH   6  16
TORSDOF 3
ENDMDL
MODEL 8
REMARK VINA RESULT:      -6.6     19.830     21.358
REMARK  3 active torsions:
REMARK  status: ('A' for Active; 'I' for Inactive)
REMARK    1  A    between atoms: C2_6  and  O2_2 
REMARK    2  A    between atoms: C5_9  and  O3_3 
REMARK    3  A    between atoms: C1_5  and  C2_6 
ROOT
HETATM    1  O1  UNK     1      19.479   0.065  14.408  1.00  0.00    -0.274 OA
HETATM    2  O4  UNK     1      19.819   1.989  15.605  1.00  0.00    -0.260 OA
HETATM    3  C1  UNK     1      19.119  -1.956  13.169  1.00  0.00     0.038 A 
HETATM    4  C3  UNK     1      19.095  -1.291  14.393  1.00  0.00     0.101 A 
HETATM    5  C4  UNK     1      18.708  -1.930  15.568  1.00  0.00    -0.001 A 
HETATM    6  C5  UNK     1      18.744  -3.298  13.124  1.00  0.00     0.077 A 
HETATM    7  C6  UNK     1      18.333  -3.275  15.513  1.00  0.00     0.017 A 
HETATM    8  C8  UNK     1      18.353  -3.956  14.292  1.00  0.00     0.038 A 
HETATM    9  C9  UNK     1      18.706  -1.175  16.809  1.00  0.00     0.020 A 
HETATM   10  C10 UNK     1      19.071   0.109  16.814  1.00  0.00     0.083 A 
HETATM   11  C11 UNK     1      19.485   0.808  15.583  1.00  0.00     0.288 A 
ENDROOT
BRANCH   3  12
HETATM   12  C2  UNK     1      19.539  -1.249  11.924  1.00  0.00     0.152 C 
HETATM   13  C7  UNK     1      20.933  -1.666  11.448  1.00  0.00     0.044 C 
BRANCH  12  14
HETATM   14  O2  UNK     1      18.601  -1.509  10.874  1.00  0.00    -0.391 OA
HETATM   15  H9  UNK     1      17.865  -2.017  11.257  1.00  0.00     0.210 HD
ENDBRANCH  12  14
ENDBRANCH   3  12
BRANCH   6  16
HETATM   16  O3  UNK     1      18.753  -3.984  11.946  1.00  0.00    -0.360 OA
HETATM   17  H10 UNK     1      19.393  -4.714  12.010  1.00  0.00     0.217 HD
ENDBRANCH   6  16
TORSDOF 3
ENDMDL
MODEL 9
REMARK VINA RESULT:      -6.6      5.989      8.393
REMARK  3 active torsions:
REMARK  status: ('A' for Active; 'I' for Inactive)
REMARK    1  A    between atoms: C2_6  and  O2_2 
REMARK    2  A    between atoms: C5_9  and  O3_3 
REMARK    3  A    between atoms: C1_5  and  C2_6 
ROOT
HETATM    1  O1  UNK     1      18.294   1.681  32.065  1.00  0.00    -0.274 OA
HETATM    2  O4  UNK     1      17.639   3.684  31.167  1.00  0.00    -0.260 OA
HETATM    3  C1  UNK     1      18.986  -0.420  32.990  1.00  0.00     0.038 A 
HETATM    4  C3  UNK     1      18.943   0.441  31.897  1.00  0.00     0.101 A 
HETATM    5  C4  UNK     1      19.518   0.103  30.674  1.00  0.00    -0.001 A 
HETATM    6  C5  UNK     1      19.622  -1.653  32.853  1.00  0.00     0.077 A 
HETATM    7  C6  UNK     1      20.154  -1.134  30.546  1.00  0.00     0.017 A 
HETATM    8  C8  UNK     1      20.204  -2.009  31.635  1.00  0.00     0.038 A 
HETATM    9  C9  UNK     1      19.437   1.050  29.576  1.00  0.00     0.020 A 
HETATM   10  C10 UNK     1      18.820   2.222  29.743  1.00  0.00     0.083 A 
HETATM   11  C11 UNK     1      18.204   2.603  31.028  1.00  0.00     0.288 A 
ENDROOT
BRANCH   3  12
HETATM   12  C2  UNK     1      18.361  -0.035  34.290  1.00  0.00     0.152 C 
HETATM   13  C7  UNK     1      17.055  -0.785  34.564  1.00  0.00     0.044 C 
BRANCH  12  14
HETATM   14  O2  UNK     1      19.271  -0.294  35.365  1.00  0.00    -0.391 OA
HETATM   15  H9  UNK     1      19.631  -1.188  35.235  1.00  0.00     0.210 HD
ENDBRANCH  12  14
ENDBRANCH   3  12
BRANCH   6  16
HETATM   16  O3  UNK     1      19.685  -2.524  33.900  1.00  0.00    -0.360 OA
HETATM   17  H10 UNK     1      20.597  -2.545  34.240  1.00  0.00     0.217 HD
ENDBRANCH   6  16
TORSDOF 3
ENDMDL
MODEL 10
REMARK VINA RESULT:      -6.5     17.601     20.242
REMARK  3 active torsions:
REMARK  status: ('A' for Active; 'I' for Inactive)
REMARK    1  A    between atoms: C2_6  and  O2_2 
REMARK    2  A    between atoms: C5_9  and  O3_3 
REMARK    3  A    between atoms: C1_5  and  C2_6 
ROOT
HETATM    1  O1  UNK     1      30.199  -8.465  28.777  1.00  0.00    -0.274 OA
HETATM    2  O4  UNK     1      30.788 -10.093  27.277  1.00  0.00    -0.260 OA
HETATM    3  C1  UNK     1      29.567  -6.767  30.348  1.00  0.00     0.038 A 
HETATM    4  C3  UNK     1      29.219  -7.901  29.618  1.00  0.00     0.101 A 
HETATM    5  C4  UNK     1      27.951  -8.470  29.708  1.00  0.00    -0.001 A 
HETATM    6  C5  UNK     1      28.618  -6.188  31.189  1.00  0.00     0.077 A 
HETATM    7  C6  UNK     1      27.006  -7.884  30.553  1.00  0.00     0.017 A 
HETATM    8  C8  UNK     1      27.341  -6.744  31.291  1.00  0.00     0.038 A 
HETATM    9  C9  UNK     1      27.656  -9.653  28.919  1.00  0.00     0.020 A 
HETATM   10  C10 UNK     1      28.590 -10.181  28.124  1.00  0.00     0.083 A 
HETATM   11  C11 UNK     1      29.941  -9.597  28.013  1.00  0.00     0.288 A 
ENDROOT
BRANCH   3  12
HETATM   12  C2  UNK     1      30.933  -6.176  30.234  1.00  0.00     0.152 C 
HETATM   13  C7  UNK     1      32.011  -7.048  30.882  1.00  0.00     0.044 C 
BRANCH  12  14
HETATM   14  O2  UNK     1      31.269  -5.983  28.856  1.00  0.00    -0.391 OA
HETATM   15  H9  UNK     1      31.751  -5.142  28.787  1.00  0.00     0.210 HD
ENDBRANCH  12  14
ENDBRANCH   3  12
BRANCH   6  16
HETATM   16  O3  UNK     1      28.919  -5.078  31.920  1.00  0.00    -0.360 OA
HETATM   17  H10 UNK     1      28.129  -4.800  32.415  1.00  0.00     0.217 HD
ENDBRANCH   6  16
TORSDOF 3
ENDMDL
