MODEL 1
REMARK VINA RESULT:      -8.6      0.000      0.000
REMARK  5 active torsions:
REMARK  status: ('A' for Active; 'I' for Inactive)
REMARK    1  A    between atoms: C5_11  and  O2_2 
REMARK    2  A    between atoms: C7_13  and  O3_3 
REMARK    3  A    between atoms: C9_15  and  O5_5 
REMARK    4  A    between atoms: C15_21  and  O6_6 
REMARK    5  A    between atoms: C3_9  and  C4_10 
ROOT
HETATM    1  O1  UNK     1      18.994  -0.965  17.701  1.00  0.00    -0.306 OA
HETATM    2  O4  UNK     1      19.337   2.308  15.298  1.00  0.00    -0.284 OA
HETATM    3  C1  UNK     1      19.107   1.450  17.483  1.00  0.00     0.084 A 
HETATM    4  C2  UNK     1      18.991   0.291  18.248  1.00  0.00     0.096 A 
HETATM    5  C3  UNK     1      19.129  -1.087  16.327  1.00  0.00     0.123 A 
HETATM    6  C5  UNK     1      19.241  -0.051  15.476  1.00  0.00     0.152 A 
HETATM    7  C6  UNK     1      19.238   1.327  16.023  1.00  0.00     0.223 A 
HETATM    8  C7  UNK     1      19.097   2.705  18.095  1.00  0.00     0.085 A 
HETATM    9  C8  UNK     1      18.864   0.381  19.635  1.00  0.00     0.075 A 
HETATM   10  C9  UNK     1      18.854   1.633  20.251  1.00  0.00     0.071 A 
HETATM   11  C10 UNK     1      18.970   2.792  19.483  1.00  0.00     0.074 A 
ENDROOT
BRANCH   5  12
HETATM   12  C4  UNK     1      19.116  -2.489  15.870  1.00  0.00     0.001 A 
HETATM   13  C11 UNK     1      20.297  -3.233  15.866  1.00  0.00     0.017 A 
HETATM   14  C13 UNK     1      20.284  -4.559  15.433  1.00  0.00     0.037 A 
HETATM   15  C15 UNK     1      19.091  -5.141  15.005  1.00  0.00     0.068 A 
HETATM   16  C14 UNK     1      17.911  -4.397  15.010  1.00  0.00     0.037 A 
HETATM   17  C12 UNK     1      17.923  -3.071  15.442  1.00  0.00     0.017 A 
BRANCH  15  18
HETATM   18  O6  UNK     1      19.079  -6.435  14.584  1.00  0.00    -0.356 OA
HETATM   19  C16 UNK     1      17.887  -6.902  13.953  1.00  0.00     0.210 C 
ENDBRANCH  15  18
ENDBRANCH   5  12
BRANCH   6  20
HETATM   20  O2  UNK     1      19.341  -0.207  14.111  1.00  0.00    -0.355 OA
HETATM   21  H7  UNK     1      18.491   0.065  13.723  1.00  0.00     0.218 HD
ENDBRANCH   6  20
BRANCH   8  22
HETATM   22  O3  UNK     1      19.206   3.867  17.393  1.00  0.00    -0.360 OA
HETATM   23  H8  UNK     1      18.385   4.379  17.453  1.00  0.00     0.217 HD
ENDBRANCH   8  22
BRANCH  10  24
HETATM   24  O5  UNK     1      18.730   1.724  21.604  1.00  0.00    -0.361 OA
HETATM   25  H9  UNK     1      19.536   1.373  22.020  1.00  0.00     0.217 HD
ENDBRANCH  10  24
TORSDOF 5
ENDMDL
MODEL 2
REMARK VINA RESULT:      -8.1     14.436     17.660
REMARK  5 active torsions:
REMARK  status: ('A' for Active; 'I' for Inactive)
REMARK    1  A    between atoms: C5_11  and  O2_2 
REMARK    2  A    between atoms: C7_13  and  O3_3 
REMARK    3  A    between atoms: C9_15  and  O5_5 
REMARK    4  A    between atoms: C15_21  and  O6_6 
REMARK    5  A    between atoms: C3_9  and  C4_10 
ROOT
HETATM    1  O1  UNK     1      18.131   3.083  33.188  1.00  0.00    -0.306 OA
HETATM    2  O4  UNK     1      19.295   1.566  29.590  1.00  0.00    -0.284 OA
HETATM    3  C1  UNK     1      18.723   1.153  31.840  1.00  0.00     0.084 A 
HETATM    4  C2  UNK     1      18.327   1.735  33.043  1.00  0.00     0.096 A 
HETATM    5  C3  UNK     1      18.325   3.902  32.086  1.00  0.00     0.123 A 
HETATM    6  C5  UNK     1      18.714   3.469  30.873  1.00  0.00     0.152 A 
HETATM    7  C6  UNK     1      18.941   2.018  30.670  1.00  0.00     0.223 A 
HETATM    8  C7  UNK     1      18.907  -0.228  31.750  1.00  0.00     0.085 A 
HETATM    9  C8  UNK     1      18.115   0.936  34.167  1.00  0.00     0.075 A 
HETATM   10  C9  UNK     1      18.298  -0.444  34.082  1.00  0.00     0.071 A 
HETATM   11  C10 UNK     1      18.694  -1.025  32.877  1.00  0.00     0.074 A 
ENDROOT
BRANCH   5  12
HETATM   12  C4  UNK     1      18.083   5.326  32.379  1.00  0.00     0.001 A 
HETATM   13  C11 UNK     1      16.816   5.875  32.175  1.00  0.00     0.017 A 
HETATM   14  C13 UNK     1      16.587   7.223  32.452  1.00  0.00     0.037 A 
HETATM   15  C15 UNK     1      17.625   8.022  32.932  1.00  0.00     0.068 A 
HETATM   16  C14 UNK     1      18.891   7.474  33.135  1.00  0.00     0.037 A 
HETATM   17  C12 UNK     1      19.120   6.126  32.858  1.00  0.00     0.017 A 
BRANCH  15  18
HETATM   18  O6  UNK     1      17.401   9.337  33.202  1.00  0.00    -0.356 OA
HETATM   19  C16 UNK     1      18.412  10.032  33.929  1.00  0.00     0.210 C 
ENDBRANCH  15  18
ENDBRANCH   5  12
BRANCH   6  20
HETATM   20  O2  UNK     1      18.929   4.315  29.807  1.00  0.00    -0.355 OA
HETATM   21  H7  UNK     1      18.116   4.835  29.678  1.00  0.00     0.218 HD
ENDBRANCH   6  20
BRANCH   8  22
HETATM   22  O3  UNK     1      19.294  -0.846  30.599  1.00  0.00    -0.360 OA
HETATM   23  H8  UNK     1      20.206  -1.164  30.674  1.00  0.00     0.217 HD
ENDBRANCH   8  22
BRANCH  10  24
HETATM   24  O5  UNK     1      18.092  -1.226  35.177  1.00  0.00    -0.361 OA
HETATM   25  H9  UNK     1      18.800  -1.891  35.230  1.00  0.00     0.217 HD
ENDBRANCH  10  24
TORSDOF 5
ENDMDL
MODEL 3
REMARK VINA RESULT:      -7.9     13.578     15.475
REMARK  5 active torsions:
REMARK  status: ('A' for Active; 'I' for Inactive)
REMARK    1  A    between atoms: C5_11  and  O2_2 
REMARK    2  A    between atoms: C7_13  and  O3_3 
REMARK    3  A    between atoms: C9_15  and  O5_5 
REMARK    4  A    between atoms: C15_21  and  O6_6 
REMARK    5  A    between atoms: C3_9  and  C4_10 
ROOT
HETATM    1  O1  UNK     1       9.664   5.825   9.727  1.00  0.00    -0.306 OA
HETATM    2  O4  UNK     1       9.575   6.839   5.782  1.00  0.00    -0.284 OA
HETATM    3  C1  UNK     1      10.827   6.023   7.605  1.00  0.00     0.084 A 
HETATM    4  C2  UNK     1      10.792   5.695   8.959  1.00  0.00     0.096 A 
HETATM    5  C3  UNK     1       8.505   6.292   9.126  1.00  0.00     0.123 A 
HETATM    6  C5  UNK     1       8.407   6.650   7.833  1.00  0.00     0.152 A 
HETATM    7  C6  UNK     1       9.604   6.530   6.965  1.00  0.00     0.223 A 
HETATM    8  C7  UNK     1      12.006   5.871   6.872  1.00  0.00     0.085 A 
HETATM    9  C8  UNK     1      11.939   5.214   9.590  1.00  0.00     0.075 A 
HETATM   10  C9  UNK     1      13.119   5.060   8.862  1.00  0.00     0.071 A 
HETATM   11  C10 UNK     1      13.153   5.388   7.506  1.00  0.00     0.074 A 
ENDROOT
BRANCH   5  12
HETATM   12  C4  UNK     1       7.370   6.384  10.061  1.00  0.00     0.001 A 
HETATM   13  C11 UNK     1       6.544   5.278  10.267  1.00  0.00     0.017 A 
HETATM   14  C13 UNK     1       5.469   5.366  11.152  1.00  0.00     0.037 A 
HETATM   15  C15 UNK     1       5.220   6.560  11.831  1.00  0.00     0.068 A 
HETATM   16  C14 UNK     1       6.046   7.664  11.624  1.00  0.00     0.037 A 
HETATM   17  C12 UNK     1       7.120   7.577  10.739  1.00  0.00     0.017 A 
BRANCH  15  18
HETATM   18  O6  UNK     1       4.171   6.645  12.694  1.00  0.00    -0.356 OA
HETATM   19  C16 UNK     1       3.764   5.442  13.342  1.00  0.00     0.210 C 
ENDBRANCH  15  18
ENDBRANCH   5  12
BRANCH   6  20
HETATM   20  O2  UNK     1       7.248   7.141   7.274  1.00  0.00    -0.355 OA
HETATM   21  H7  UNK     1       6.650   6.387   7.132  1.00  0.00     0.218 HD
ENDBRANCH   6  20
BRANCH   8  22
HETATM   22  O3  UNK     1      12.093   6.177   5.548  1.00  0.00    -0.360 OA
HETATM   23  H8  UNK     1      12.107   7.137   5.421  1.00  0.00     0.217 HD
ENDBRANCH   8  22
BRANCH  10  24
HETATM   24  O5  UNK     1      14.240   4.590   9.475  1.00  0.00    -0.361 OA
HETATM   25  H9  UNK     1      14.780   4.111   8.823  1.00  0.00     0.217 HD
ENDBRANCH  10  24
TORSDOF 5
ENDMDL
MODEL 4
REMARK VINA RESULT:      -7.7     13.538     17.818
REMARK  5 active torsions:
REMARK  status: ('A' for Active; 'I' for Inactive)
REMARK    1  A    between atoms: C5_11  and  O2_2 
REMARK    2  A    between atoms: C7_13  and  O3_3 
REMARK    3  A    between atoms: C9_15  and  O5_5 
REMARK    4  A    between atoms: C15_21  and  O6_6 
REMARK    5  A    between atoms: C3_9  and  C4_10 
ROOT
HETATM    1  O1  UNK     1      16.569   7.265  32.199  1.00  0.00    -0.306 OA
HETATM    2  O4  UNK     1      19.210   9.558  34.291  1.00  0.00    -0.284 OA
HETATM    3  C1  UNK     1      17.013   9.279  33.480  1.00  0.00     0.084 A 
HETATM    4  C2  UNK     1      16.161   8.451  32.753  1.00  0.00     0.096 A 
HETATM    5  C3  UNK     1      17.885   6.869  32.381  1.00  0.00     0.123 A 
HETATM    6  C5  UNK     1      18.809   7.579  33.055  1.00  0.00     0.152 A 
HETATM    7  C6  UNK     1      18.413   8.870  33.667  1.00  0.00     0.223 A 
HETATM    8  C7  UNK     1      16.541  10.477  34.022  1.00  0.00     0.085 A 
HETATM    9  C8  UNK     1      14.828   8.817  32.560  1.00  0.00     0.075 A 
HETATM   10  C9  UNK     1      14.353  10.013  33.099  1.00  0.00     0.071 A 
HETATM   11  C10 UNK     1      15.207  10.841  33.828  1.00  0.00     0.074 A 
ENDROOT
BRANCH   5  12
HETATM   12  C4  UNK     1      18.192   5.580  31.736  1.00  0.00     0.001 A 
HETATM   13  C11 UNK     1      17.905   4.384  32.394  1.00  0.00     0.017 A 
HETATM   14  C13 UNK     1      18.196   3.164  31.783  1.00  0.00     0.037 A 
HETATM   15  C15 UNK     1      18.774   3.141  30.513  1.00  0.00     0.068 A 
HETATM   16  C14 UNK     1      19.060   4.337  29.856  1.00  0.00     0.037 A 
HETATM   17  C12 UNK     1      18.770   5.556  30.467  1.00  0.00     0.017 A 
BRANCH  15  18
HETATM   18  O6  UNK     1      19.058   1.951  29.917  1.00  0.00    -0.356 OA
HETATM   19  C16 UNK     1      18.215   1.547  28.840  1.00  0.00     0.210 C 
ENDBRANCH  15  18
ENDBRANCH   5  12
BRANCH   6  20
HETATM   20  O2  UNK     1      20.118   7.171  33.189  1.00  0.00    -0.355 OA
HETATM   21  H7  UNK     1      20.685   7.926  32.954  1.00  0.00     0.218 HD
ENDBRANCH   6  20
BRANCH   8  22
HETATM   22  O3  UNK     1      17.332  11.322  34.740  1.00  0.00    -0.360 OA
HETATM   23  H8  UNK     1      18.251  11.012  34.736  1.00  0.00     0.217 HD
ENDBRANCH   8  22
BRANCH  10  24
HETATM   24  O5  UNK     1      13.053  10.373  32.913  1.00  0.00    -0.361 OA
HETATM   25  H9  UNK     1      12.827  10.267  31.973  1.00  0.00     0.217 HD
ENDBRANCH  10  24
TORSDOF 5
ENDMDL
MODEL 5
REMARK VINA RESULT:      -7.6     12.960     17.836
REMARK  5 active torsions:
REMARK  status: ('A' for Active; 'I' for Inactive)
REMARK    1  A    between atoms: C5_11  and  O2_2 
REMARK    2  A    between atoms: C7_13  and  O3_3 
REMARK    3  A    between atoms: C9_15  and  O5_5 
REMARK    4  A    between atoms: C15_21  and  O6_6 
REMARK    5  A    between atoms: C3_9  and  C4_10 
ROOT
HETATM    1  O1  UNK     1      18.441   3.711  31.280  1.00  0.00    -0.306 OA
HETATM    2  O4  UNK     1      18.657   1.060  34.367  1.00  0.00    -0.284 OA
HETATM    3  C1  UNK     1      18.789   1.433  32.042  1.00  0.00     0.084 A 
HETATM    4  C2  UNK     1      18.701   2.389  31.032  1.00  0.00     0.096 A 
HETATM    5  C3  UNK     1      18.269   4.116  32.594  1.00  0.00     0.123 A 
HETATM    6  C5  UNK     1      18.322   3.294  33.659  1.00  0.00     0.152 A 
HETATM    7  C6  UNK     1      18.596   1.854  33.438  1.00  0.00     0.223 A 
HETATM    8  C7  UNK     1      19.057   0.098  31.730  1.00  0.00     0.085 A 
HETATM    9  C8  UNK     1      18.878   2.013  29.700  1.00  0.00     0.075 A 
HETATM   10  C9  UNK     1      19.145   0.681  29.383  1.00  0.00     0.071 A 
HETATM   11  C10 UNK     1      19.234  -0.275  30.396  1.00  0.00     0.074 A 
ENDROOT
BRANCH   5  12
HETATM   12  C4  UNK     1      17.995   5.559  32.720  1.00  0.00     0.001 A 
HETATM   13  C11 UNK     1      19.002   6.426  33.147  1.00  0.00     0.017 A 
HETATM   14  C13 UNK     1      18.742   7.791  33.267  1.00  0.00     0.037 A 
HETATM   15  C15 UNK     1      17.476   8.289  32.959  1.00  0.00     0.068 A 
HETATM   16  C14 UNK     1      16.470   7.423  32.532  1.00  0.00     0.037 A 
HETATM   17  C12 UNK     1      16.729   6.057  32.414  1.00  0.00     0.017 A 
BRANCH  15  18
HETATM   18  O6  UNK     1      17.223   9.621  33.076  1.00  0.00    -0.356 OA
HETATM   19  C16 UNK     1      16.467  10.043  34.210  1.00  0.00     0.210 C 
ENDBRANCH  15  18
ENDBRANCH   5  12
BRANCH   6  20
HETATM   20  O2  UNK     1      18.114   3.725  34.951  1.00  0.00    -0.355 OA
HETATM   21  H7  UNK     1      18.685   3.191  35.532  1.00  0.00     0.218 HD
ENDBRANCH   6  20
BRANCH   8  22
HETATM   22  O3  UNK     1      19.153  -0.874  32.679  1.00  0.00    -0.360 OA
HETATM   23  H8  UNK     1      18.434  -1.516  32.582  1.00  0.00     0.217 HD
ENDBRANCH   8  22
BRANCH  10  24
HETATM   24  O5  UNK     1      19.319   0.312  28.084  1.00  0.00    -0.361 OA
HETATM   25  H9  UNK     1      19.935  -0.439  28.049  1.00  0.00     0.217 HD
ENDBRANCH  10  24
TORSDOF 5
ENDMDL
MODEL 6
REMARK VINA RESULT:      -7.5     14.992     17.560
REMARK  5 active torsions:
REMARK  status: ('A' for Active; 'I' for Inactive)
REMARK    1  A    between atoms: C5_11  and  O2_2 
REMARK    2  A    between atoms: C7_13  and  O3_3 
REMARK    3  A    between atoms: C9_15  and  O5_5 
REMARK    4  A    between atoms: C15_21  and  O6_6 
REMARK    5  A    between atoms: C3_9  and  C4_10 
ROOT
HETATM    1  O1  UNK     1      17.843   3.845  33.680  1.00  0.00    -0.306 OA
HETATM    2  O4  UNK     1      18.964   2.952  29.866  1.00  0.00    -0.284 OA
HETATM    3  C1  UNK     1      18.377   4.608  31.439  1.00  0.00     0.084 A 
HETATM    4  C2  UNK     1      17.995   4.847  32.757  1.00  0.00     0.096 A 
HETATM    5  C3  UNK     1      18.092   2.540  33.287  1.00  0.00     0.123 A 
HETATM    6  C5  UNK     1      18.459   2.174  32.045  1.00  0.00     0.152 A 
HETATM    7  C6  UNK     1      18.631   3.224  31.012  1.00  0.00     0.223 A 
HETATM    8  C7  UNK     1      18.516   5.669  30.541  1.00  0.00     0.085 A 
HETATM    9  C8  UNK     1      17.747   6.151  33.187  1.00  0.00     0.075 A 
HETATM   10  C9  UNK     1      17.884   7.214  32.293  1.00  0.00     0.071 A 
HETATM   11  C10 UNK     1      18.268   6.973  30.973  1.00  0.00     0.074 A 
ENDROOT
BRANCH   5  12
HETATM   12  C4  UNK     1      17.891   1.564  34.372  1.00  0.00     0.001 A 
HETATM   13  C11 UNK     1      16.806   0.687  34.331  1.00  0.00     0.017 A 
HETATM   14  C13 UNK     1      16.616  -0.237  35.359  1.00  0.00     0.037 A 
HETATM   15  C15 UNK     1      17.512  -0.284  36.428  1.00  0.00     0.068 A 
HETATM   16  C14 UNK     1      18.596   0.592  36.468  1.00  0.00     0.037 A 
HETATM   17  C12 UNK     1      18.786   1.516  35.441  1.00  0.00     0.017 A 
BRANCH  15  18
HETATM   18  O6  UNK     1      17.327  -1.186  37.431  1.00  0.00    -0.356 OA
HETATM   19  C16 UNK     1      18.496  -1.728  38.041  1.00  0.00     0.210 C 
ENDBRANCH  15  18
ENDBRANCH   5  12
BRANCH   6  20
HETATM   20  O2  UNK     1      18.667   0.863  31.678  1.00  0.00    -0.355 OA
HETATM   21  H7  UNK     1      18.896   0.367  32.483  1.00  0.00     0.218 HD
ENDBRANCH   6  20
BRANCH   8  22
HETATM   22  O3  UNK     1      18.886   5.490  29.242  1.00  0.00    -0.360 OA
HETATM   23  H8  UNK     1      19.000   4.547  29.048  1.00  0.00     0.217 HD
ENDBRANCH   8  22
BRANCH  10  24
HETATM   24  O5  UNK     1      17.643   8.487  32.709  1.00  0.00    -0.361 OA
HETATM   25  H9  UNK     1      18.144   9.103  32.148  1.00  0.00     0.217 HD
ENDBRANCH  10  24
TORSDOF 5
ENDMDL
MODEL 7
REMARK VINA RESULT:      -7.5     12.441     15.838
REMARK  5 active torsions:
REMARK  status: ('A' for Active; 'I' for Inactive)
REMARK    1  A    between atoms: C5_11  and  O2_2 
REMARK    2  A    between atoms: C7_13  and  O3_3 
REMARK    3  A    between atoms: C9_15  and  O5_5 
REMARK    4  A    between atoms: C15_21  and  O6_6 
REMARK    5  A    between atoms: C3_9  and  C4_10 
ROOT
HETATM    1  O1  UNK     1      19.446   1.510  31.456  1.00  0.00    -0.306 OA
HETATM    2  O4  UNK     1      18.828   0.069  27.695  1.00  0.00    -0.284 OA
HETATM    3  C1  UNK     1      19.569  -0.345  29.895  1.00  0.00     0.084 A 
HETATM    4  C2  UNK     1      19.758   0.209  31.160  1.00  0.00     0.096 A 
HETATM    5  C3  UNK     1      18.909   2.305  30.456  1.00  0.00     0.123 A 
HETATM    6  C5  UNK     1      18.684   1.896  29.194  1.00  0.00     0.152 A 
HETATM    7  C6  UNK     1      19.011   0.498  28.826  1.00  0.00     0.223 A 
HETATM    8  C7  UNK     1      19.906  -1.678  29.650  1.00  0.00     0.085 A 
HETATM    9  C8  UNK     1      20.287  -0.570  32.190  1.00  0.00     0.075 A 
HETATM   10  C9  UNK     1      20.625  -1.902  31.950  1.00  0.00     0.071 A 
HETATM   11  C10 UNK     1      20.435  -2.455  30.683  1.00  0.00     0.074 A 
ENDROOT
BRANCH   5  12
HETATM   12  C4  UNK     1      18.620   3.678  30.906  1.00  0.00     0.001 A 
HETATM   13  C11 UNK     1      17.898   3.891  32.081  1.00  0.00     0.017 A 
HETATM   14  C13 UNK     1      17.625   5.191  32.507  1.00  0.00     0.037 A 
HETATM   15  C15 UNK     1      18.075   6.279  31.757  1.00  0.00     0.068 A 
HETATM   16  C14 UNK     1      18.797   6.066  30.584  1.00  0.00     0.037 A 
HETATM   17  C12 UNK     1      19.069   4.767  30.157  1.00  0.00     0.017 A 
BRANCH  15  18
HETATM   18  O6  UNK     1      17.809   7.547  32.173  1.00  0.00    -0.356 OA
HETATM   19  C16 UNK     1      18.474   7.997  33.352  1.00  0.00     0.210 C 
ENDBRANCH  15  18
ENDBRANCH   5  12
BRANCH   6  20
HETATM   20  O2  UNK     1      18.179   2.723  28.214  1.00  0.00    -0.355 OA
HETATM   21  H7  UNK     1      17.264   2.944  28.462  1.00  0.00     0.218 HD
ENDBRANCH   6  20
BRANCH   8  22
HETATM   22  O3  UNK     1      19.742  -2.267  28.433  1.00  0.00    -0.360 OA
HETATM   23  H8  UNK     1      19.620  -1.596  27.744  1.00  0.00     0.217 HD
ENDBRANCH   8  22
BRANCH  10  24
HETATM   24  O5  UNK     1      21.142  -2.664  32.953  1.00  0.00    -0.361 OA
HETATM   25  H9  UNK     1      20.437  -3.223  33.320  1.00  0.00     0.217 HD
ENDBRANCH  10  24
TORSDOF 5
ENDMDL
MODEL 8
REMARK VINA RESULT:      -7.4     17.868     20.140
REMARK  5 active torsions:
REMARK  status: ('A' for Active; 'I' for Inactive)
REMARK    1  A    between atoms: C5_11  and  O2_2 
REMARK    2  A    between atoms: C7_13  and  O3_3 
REMARK    3  A    between atoms: C9_15  and  O5_5 
REMARK    4  A    between atoms: C15_21  and  O6_6 
REMARK    5  A    between atoms: C3_9  and  C4_10 
ROOT
HETATM    1  O1  UNK     1      18.906  -2.436  37.187  1.00  0.00    -0.306 OA
HETATM    2  O4  UNK     1      19.698  -1.304  33.354  1.00  0.00    -0.284 OA
HETATM    3  C1  UNK     1      18.782  -0.742  35.453  1.00  0.00     0.084 A 
HETATM    4  C2  UNK     1      18.539  -1.190  36.749  1.00  0.00     0.096 A 
HETATM    5  C3  UNK     1      19.557  -3.281  36.303  1.00  0.00     0.123 A 
HETATM    6  C5  UNK     1      19.844  -2.975  35.025  1.00  0.00     0.152 A 
HETATM    7  C6  UNK     1      19.462  -1.639  34.506  1.00  0.00     0.223 A 
HETATM    8  C7  UNK     1      18.385   0.539  35.062  1.00  0.00     0.085 A 
HETATM    9  C8  UNK     1      17.894  -0.358  37.665  1.00  0.00     0.075 A 
HETATM   10  C9  UNK     1      17.495   0.922  37.279  1.00  0.00     0.071 A 
HETATM   11  C10 UNK     1      17.740   1.370  35.981  1.00  0.00     0.074 A 
ENDROOT
BRANCH   5  12
HETATM   12  C4  UNK     1      19.894  -4.587  36.899  1.00  0.00     0.001 A 
HETATM   13  C11 UNK     1      19.024  -5.667  36.751  1.00  0.00     0.017 A 
HETATM   14  C13 UNK     1      19.343  -6.902  37.315  1.00  0.00     0.037 A 
HETATM   15  C15 UNK     1      20.533  -7.057  38.027  1.00  0.00     0.068 A 
HETATM   16  C14 UNK     1      21.403  -5.977  38.174  1.00  0.00     0.037 A 
HETATM   17  C12 UNK     1      21.084  -4.742  37.610  1.00  0.00     0.017 A 
BRANCH  15  18
HETATM   18  O6  UNK     1      20.845  -8.262  38.577  1.00  0.00    -0.356 OA
HETATM   19  C16 UNK     1      21.835  -8.272  39.603  1.00  0.00     0.210 C 
ENDBRANCH  15  18
ENDBRANCH   5  12
BRANCH   6  20
HETATM   20  O2  UNK     1      20.465  -3.852  34.162  1.00  0.00    -0.355 OA
HETATM   21  H7  UNK     1      19.771  -4.398  33.752  1.00  0.00     0.218 HD
ENDBRANCH   6  20
BRANCH   8  22
HETATM   22  O3  UNK     1      18.598   1.024  33.807  1.00  0.00    -0.360 OA
HETATM   23  H8  UNK     1      18.217   1.911  33.716  1.00  0.00     0.217 HD
ENDBRANCH   8  22
BRANCH  10  24
HETATM   24  O5  UNK     1      16.866   1.736  38.171  1.00  0.00    -0.361 OA
HETATM   25  H9  UNK     1      17.456   2.477  38.393  1.00  0.00     0.217 HD
ENDBRANCH  10  24
TORSDOF 5
ENDMDL
MODEL 9
REMARK VINA RESULT:      -7.3     16.287     19.650
REMARK  5 active torsions:
REMARK  status: ('A' for Active; 'I' for Inactive)
REMARK    1  A    between atoms: C5_11  and  O2_2 
REMARK    2  A    between atoms: C7_13  and  O3_3 
REMARK    3  A    between atoms: C9_15  and  O5_5 
REMARK    4  A    between atoms: C15_21  and  O6_6 
REMARK    5  A    between atoms: C3_9  and  C4_10 
ROOT
HETATM    1  O1  UNK     1      20.306  -3.398  34.793  1.00  0.00    -0.306 OA
HETATM    2  O4  UNK     1      17.818  -0.424  36.044  1.00  0.00    -0.284 OA
HETATM    3  C1  UNK     1      19.082  -1.364  34.289  1.00  0.00     0.084 A 
HETATM    4  C2  UNK     1      19.931  -2.407  33.924  1.00  0.00     0.096 A 
HETATM    5  C3  UNK     1      19.811  -3.366  36.087  1.00  0.00     0.123 A 
HETATM    6  C5  UNK     1      18.992  -2.412  36.567  1.00  0.00     0.152 A 
HETATM    7  C6  UNK     1      18.562  -1.318  35.664  1.00  0.00     0.223 A 
HETATM    8  C7  UNK     1      18.732  -0.380  33.360  1.00  0.00     0.085 A 
HETATM    9  C8  UNK     1      20.438  -2.472  32.626  1.00  0.00     0.075 A 
HETATM   10  C9  UNK     1      20.092  -1.492  31.696  1.00  0.00     0.071 A 
HETATM   11  C10 UNK     1      19.241  -0.448  32.062  1.00  0.00     0.074 A 
ENDROOT
BRANCH   5  12
HETATM   12  C4  UNK     1      20.293  -4.486  36.915  1.00  0.00     0.001 A 
HETATM   13  C11 UNK     1      19.539  -5.656  37.014  1.00  0.00     0.017 A 
HETATM   14  C13 UNK     1      19.996  -6.715  37.798  1.00  0.00     0.037 A 
HETATM   15  C15 UNK     1      21.206  -6.604  38.484  1.00  0.00     0.068 A 
HETATM   16  C14 UNK     1      21.959  -5.435  38.385  1.00  0.00     0.037 A 
HETATM   17  C12 UNK     1      21.503  -4.375  37.601  1.00  0.00     0.017 A 
BRANCH  15  18
HETATM   18  O6  UNK     1      21.651  -7.639  39.249  1.00  0.00    -0.356 OA
HETATM   19  C16 UNK     1      20.943  -8.873  39.148  1.00  0.00     0.210 C 
ENDBRANCH  15  18
ENDBRANCH   5  12
BRANCH   6  20
HETATM   20  O2  UNK     1      18.543  -2.392  37.870  1.00  0.00    -0.355 OA
HETATM   21  H7  UNK     1      17.681  -1.941  37.875  1.00  0.00     0.218 HD
ENDBRANCH   6  20
BRANCH   8  22
HETATM   22  O3  UNK     1      17.907   0.660  33.666  1.00  0.00    -0.360 OA
HETATM   23  H8  UNK     1      17.498   0.525  34.534  1.00  0.00     0.217 HD
ENDBRANCH   8  22
BRANCH  10  24
HETATM   24  O5  UNK     1      20.585  -1.553  30.428  1.00  0.00    -0.361 OA
HETATM   25  H9  UNK     1      20.258  -0.788  29.924  1.00  0.00     0.217 HD
ENDBRANCH  10  24
TORSDOF 5
ENDMDL
MODEL 10
REMARK VINA RESULT:      -7.2     14.382     18.176
REMARK  5 active torsions:
REMARK  status: ('A' for Active; 'I' for Inactive)
REMARK    1  A    between atoms: C5_11  and  O2_2 
REMARK    2  A    between atoms: C7_13  and  O3_3 
REMARK    3  A    between atoms: C9_15  and  O5_5 
REMARK    4  A    between atoms: C15_21  and  O6_6 
REMARK    5  A    between atoms: C3_9  and  C4_10 
ROOT
HETATM    1  O1  UNK     1      17.808   4.283  33.151  1.00  0.00    -0.306 OA
HETATM    2  O4  UNK     1      18.998   4.183  29.256  1.00  0.00    -0.284 OA
HETATM    3  C1  UNK     1      18.642   3.002  31.265  1.00  0.00     0.084 A 
HETATM    4  C2  UNK     1      18.225   3.104  32.591  1.00  0.00     0.096 A 
HETATM    5  C3  UNK     1      17.791   5.421  32.361  1.00  0.00     0.123 A 
HETATM    6  C5  UNK     1      18.175   5.460  31.072  1.00  0.00     0.152 A 
HETATM    7  C6  UNK     1      18.638   4.209  30.425  1.00  0.00     0.223 A 
HETATM    8  C7  UNK     1      19.057   1.773  30.747  1.00  0.00     0.085 A 
HETATM    9  C8  UNK     1      18.221   1.974  33.409  1.00  0.00     0.075 A 
HETATM   10  C9  UNK     1      18.635   0.744  32.897  1.00  0.00     0.071 A 
HETATM   11  C10 UNK     1      19.052   0.643  31.569  1.00  0.00     0.074 A 
ENDROOT
BRANCH   5  12
HETATM   12  C4  UNK     1      17.325   6.617  33.084  1.00  0.00     0.001 A 
HETATM   13  C11 UNK     1      18.237   7.412  33.780  1.00  0.00     0.017 A 
HETATM   14  C13 UNK     1      17.794   8.544  34.465  1.00  0.00     0.037 A 
HETATM   15  C15 UNK     1      16.440   8.881  34.454  1.00  0.00     0.068 A 
HETATM   16  C14 UNK     1      15.530   8.087  33.758  1.00  0.00     0.037 A 
HETATM   17  C12 UNK     1      15.971   6.955  33.074  1.00  0.00     0.017 A 
BRANCH  15  18
HETATM   18  O6  UNK     1      16.009   9.985  35.122  1.00  0.00    -0.356 OA
HETATM   19  C16 UNK     1      14.600  10.191  35.197  1.00  0.00     0.210 C 
ENDBRANCH  15  18
ENDBRANCH   5  12
BRANCH   6  20
HETATM   20  O2  UNK     1      18.177   6.617  30.323  1.00  0.00    -0.355 OA
HETATM   21  H7  UNK     1      18.982   7.113  30.553  1.00  0.00     0.218 HD
ENDBRANCH   6  20
BRANCH   8  22
HETATM   22  O3  UNK     1      19.474   1.620  29.460  1.00  0.00    -0.360 OA
HETATM   23  H8  UNK     1      20.362   1.992  29.344  1.00  0.00     0.217 HD
ENDBRANCH   8  22
BRANCH  10  24
HETATM   24  O5  UNK     1      18.632  -0.361  33.693  1.00  0.00    -0.361 OA
HETATM   25  H9  UNK     1      19.207  -1.038  33.296  1.00  0.00     0.217 HD
ENDBRANCH  10  24
TORSDOF 5
ENDMDL
