MODEL 1
REMARK VINA RESULT:      -7.8      0.000      0.000
REMARK  6 active torsions:
REMARK  status: ('A' for Active; 'I' for Inactive)
REMARK    1  A    between atoms: C2_8  and  O2_2 
REMARK    2  A    between atoms: C7_13  and  O2_2 
REMARK    3  A    between atoms: C17_23  and  O4_4 
REMARK    4  A    between atoms: C18_24  and  O5_5 
REMARK    5  A    between atoms: C1_7  and  C5_11 
REMARK    6  A    between atoms: C18_24  and  C7_13 
ROOT
HETATM    1  O1  UNK     1      18.199   3.546  33.775  1.00  0.00    -0.306 OA
HETATM    2  O3  UNK     1      18.597   3.020  29.753  1.00  0.00    -0.284 OA
HETATM    3  C1  UNK     1      18.197   2.282  33.207  1.00  0.00     0.123 A 
HETATM    4  C2  UNK     1      18.318   2.037  31.889  1.00  0.00     0.155 A 
HETATM    5  C3  UNK     1      18.499   4.520  31.571  1.00  0.00     0.051 A 
HETATM    6  C4  UNK     1      18.354   4.632  32.953  1.00  0.00     0.090 A 
HETATM    7  C6  UNK     1      18.482   3.181  30.961  1.00  0.00     0.221 A 
HETATM    8  C8  UNK     1      18.654   5.662  30.783  1.00  0.00     0.018 A 
HETATM    9  C9  UNK     1      18.365   5.890  33.555  1.00  0.00     0.038 A 
HETATM   10  C12 UNK     1      18.664   6.920  31.388  1.00  0.00     0.001 A 
HETATM   11  C13 UNK     1      18.519   7.034  32.771  1.00  0.00     0.003 A 
ENDROOT
BRANCH   3  12
HETATM   12  C5  UNK     1      18.024   1.206  34.198  1.00  0.00     0.001 A 
HETATM   13  C10 UNK     1      19.026   0.949  35.134  1.00  0.00     0.017 A 
HETATM   14  C15 UNK     1      18.861  -0.069  36.073  1.00  0.00     0.037 A 
HETATM   15  C17 UNK     1      17.692  -0.832  36.076  1.00  0.00     0.068 A 
HETATM   16  C16 UNK     1      16.690  -0.575  35.141  1.00  0.00     0.037 A 
HETATM   17  C11 UNK     1      16.856   0.443  34.202  1.00  0.00     0.017 A 
BRANCH  15  18
HETATM   18  O4  UNK     1      17.531  -1.825  36.992  1.00  0.00    -0.356 OA
HETATM   19  C19 UNK     1      18.625  -2.080  37.871  1.00  0.00     0.210 C 
ENDBRANCH  15  18
ENDBRANCH   3  12
BRANCH   4  20
HETATM   20  O2  UNK     1      18.279   0.768  31.354  1.00  0.00    -0.329 OA
BRANCH  20  21
HETATM   21  C7  UNK     1      19.586   0.247  31.198  1.00  0.00     0.222 C 
HETATM   22  C14 UNK     1      19.667  -1.056  31.976  1.00  0.00     0.051 C 
BRANCH  21  23
HETATM   23  C18 UNK     1      19.840   0.023  29.723  1.00  0.00     0.170 C 
HETATM   24  O6  UNK     1      20.910  -0.322  29.242  1.00  0.00    -0.648 OA
BRANCH  23  25
HETATM   25  O5  UNK     1      18.726   0.231  28.972  1.00  0.00    -0.774 OA
HETATM   26  H13 UNK     1      17.905   0.093  29.491  1.00  0.00     0.167 HD
ENDBRANCH  23  25
ENDBRANCH  21  23
ENDBRANCH  20  21
ENDBRANCH   4  20
TORSDOF 6
ENDMDL
MODEL 2
REMARK VINA RESULT:      -7.6      2.284      6.585
REMARK  6 active torsions:
REMARK  status: ('A' for Active; 'I' for Inactive)
REMARK    1  A    between atoms: C2_8  and  O2_2 
REMARK    2  A    between atoms: C7_13  and  O2_2 
REMARK    3  A    between atoms: C17_23  and  O4_4 
REMARK    4  A    between atoms: C18_24  and  O5_5 
REMARK    5  A    between atoms: C1_7  and  C5_11 
REMARK    6  A    between atoms: C18_24  and  C7_13 
ROOT
HETATM    1  O1  UNK     1      18.436   3.860  34.796  1.00  0.00    -0.306 OA
HETATM    2  O3  UNK     1      18.029   1.546  31.466  1.00  0.00    -0.284 OA
HETATM    3  C1  UNK     1      18.256   4.423  33.542  1.00  0.00     0.123 A 
HETATM    4  C2  UNK     1      18.121   3.719  32.403  1.00  0.00     0.155 A 
HETATM    5  C3  UNK     1      18.325   1.647  33.804  1.00  0.00     0.051 A 
HETATM    6  C4  UNK     1      18.462   2.494  34.903  1.00  0.00     0.090 A 
HETATM    7  C6  UNK     1      18.148   2.239  32.469  1.00  0.00     0.221 A 
HETATM    8  C8  UNK     1      18.358   0.262  33.973  1.00  0.00     0.018 A 
HETATM    9  C9  UNK     1      18.633   1.957  36.179  1.00  0.00     0.038 A 
HETATM   10  C12 UNK     1      18.530  -0.272  35.251  1.00  0.00     0.001 A 
HETATM   11  C13 UNK     1      18.667   0.574  36.352  1.00  0.00     0.003 A 
ENDROOT
BRANCH   3  12
HETATM   12  C5  UNK     1      18.247   5.895  33.568  1.00  0.00     0.001 A 
HETATM   13  C10 UNK     1      17.074   6.593  33.276  1.00  0.00     0.017 A 
HETATM   14  C15 UNK     1      17.067   7.988  33.302  1.00  0.00     0.037 A 
HETATM   15  C17 UNK     1      18.233   8.686  33.619  1.00  0.00     0.068 A 
HETATM   16  C16 UNK     1      19.404   7.989  33.912  1.00  0.00     0.037 A 
HETATM   17  C11 UNK     1      19.412   6.594  33.886  1.00  0.00     0.017 A 
BRANCH  15  18
HETATM   18  O4  UNK     1      18.224  10.046  33.644  1.00  0.00    -0.356 OA
HETATM   19  C19 UNK     1      17.048  10.679  34.145  1.00  0.00     0.210 C 
ENDBRANCH  15  18
ENDBRANCH   3  12
BRANCH   4  20
HETATM   20  O2  UNK     1      17.975   4.312  31.167  1.00  0.00    -0.329 OA
BRANCH  20  21
HETATM   21  C7  UNK     1      19.158   4.177  30.401  1.00  0.00     0.222 C 
HETATM   22  C14 UNK     1      18.783   3.558  29.066  1.00  0.00     0.051 C 
BRANCH  21  23
HETATM   23  C18 UNK     1      19.769   5.549  30.219  1.00  0.00     0.170 C 
HETATM   24  O6  UNK     1      20.835   5.909  30.700  1.00  0.00    -0.648 OA
BRANCH  23  25
HETATM   25  O5  UNK     1      19.006   6.352  29.432  1.00  0.00    -0.774 OA
HETATM   26  H13 UNK     1      18.996   7.279  29.755  1.00  0.00     0.167 HD
ENDBRANCH  23  25
ENDBRANCH  21  23
ENDBRANCH  20  21
ENDBRANCH   4  20
TORSDOF 6
ENDMDL
MODEL 3
REMARK VINA RESULT:      -7.2     23.436     25.575
REMARK  6 active torsions:
REMARK  status: ('A' for Active; 'I' for Inactive)
REMARK    1  A    between atoms: C2_8  and  O2_2 
REMARK    2  A    between atoms: C7_13  and  O2_2 
REMARK    3  A    between atoms: C17_23  and  O4_4 
REMARK    4  A    between atoms: C18_24  and  O5_5 
REMARK    5  A    between atoms: C1_7  and  C5_11 
REMARK    6  A    between atoms: C18_24  and  C7_13 
ROOT
HETATM    1  O1  UNK     1      14.139   9.535   8.184  1.00  0.00    -0.306 OA
HETATM    2  O3  UNK     1      16.466   7.677  10.966  1.00  0.00    -0.284 OA
HETATM    3  C1  UNK     1      13.723   8.374   8.816  1.00  0.00     0.123 A 
HETATM    4  C2  UNK     1      14.442   7.706   9.737  1.00  0.00     0.155 A 
HETATM    5  C3  UNK     1      16.196   9.481   9.471  1.00  0.00     0.051 A 
HETATM    6  C4  UNK     1      15.355  10.066   8.525  1.00  0.00     0.090 A 
HETATM    7  C6  UNK     1      15.767   8.240  10.133  1.00  0.00     0.221 A 
HETATM    8  C8  UNK     1      17.426  10.067   9.779  1.00  0.00     0.018 A 
HETATM    9  C9  UNK     1      15.741  11.241   7.882  1.00  0.00     0.038 A 
HETATM   10  C12 UNK     1      17.809  11.243   9.134  1.00  0.00     0.001 A 
HETATM   11  C13 UNK     1      16.968  11.830   8.187  1.00  0.00     0.003 A 
ENDROOT
BRANCH   3  12
HETATM   12  C5  UNK     1      12.400   7.912   8.359  1.00  0.00     0.001 A 
HETATM   13  C10 UNK     1      11.294   8.014   9.204  1.00  0.00     0.017 A 
HETATM   14  C15 UNK     1      10.042   7.578   8.770  1.00  0.00     0.037 A 
HETATM   15  C17 UNK     1       9.896   7.039   7.491  1.00  0.00     0.068 A 
HETATM   16  C16 UNK     1      11.001   6.937   6.647  1.00  0.00     0.037 A 
HETATM   17  C11 UNK     1      12.253   7.374   7.081  1.00  0.00     0.017 A 
BRANCH  15  18
HETATM   18  O4  UNK     1       8.674   6.613   7.069  1.00  0.00    -0.356 OA
HETATM   19  C19 UNK     1       7.931   5.785   7.961  1.00  0.00     0.210 C 
ENDBRANCH  15  18
ENDBRANCH   3  12
BRANCH   4  20
HETATM   20  O2  UNK     1      14.012   6.535  10.322  1.00  0.00    -0.329 OA
BRANCH  20  21
HETATM   21  C7  UNK     1      14.129   5.450   9.421  1.00  0.00     0.222 C 
HETATM   22  C14 UNK     1      15.202   4.515   9.951  1.00  0.00     0.051 C 
BRANCH  21  23
HETATM   23  C18 UNK     1      12.788   4.754   9.333  1.00  0.00     0.170 C 
HETATM   24  O6  UNK     1      12.384   4.136   8.357  1.00  0.00    -0.648 OA
BRANCH  23  25
HETATM   25  O5  UNK     1      12.071   4.872  10.481  1.00  0.00    -0.774 OA
HETATM   26  H13 UNK     1      12.029   5.801  10.793  1.00  0.00     0.167 HD
ENDBRANCH  23  25
ENDBRANCH  21  23
ENDBRANCH  20  21
ENDBRANCH   4  20
TORSDOF 6
ENDMDL
MODEL 4
REMARK VINA RESULT:      -7.1      3.538      5.907
REMARK  6 active torsions:
REMARK  status: ('A' for Active; 'I' for Inactive)
REMARK    1  A    between atoms: C2_8  and  O2_2 
REMARK    2  A    between atoms: C7_13  and  O2_2 
REMARK    3  A    between atoms: C17_23  and  O4_4 
REMARK    4  A    between atoms: C18_24  and  O5_5 
REMARK    5  A    between atoms: C1_7  and  C5_11 
REMARK    6  A    between atoms: C18_24  and  C7_13 
ROOT
HETATM    1  O1  UNK     1      20.318  -2.496  32.894  1.00  0.00    -0.306 OA
HETATM    2  O3  UNK     1      18.244   1.005  33.101  1.00  0.00    -0.284 OA
HETATM    3  C1  UNK     1      19.774  -2.048  34.087  1.00  0.00     0.123 A 
HETATM    4  C2  UNK     1      19.085  -0.900  34.228  1.00  0.00     0.155 A 
HETATM    5  C3  UNK     1      19.430  -0.538  31.769  1.00  0.00     0.051 A 
HETATM    6  C4  UNK     1      20.132  -1.741  31.766  1.00  0.00     0.090 A 
HETATM    7  C6  UNK     1      18.864  -0.048  33.035  1.00  0.00     0.221 A 
HETATM    8  C8  UNK     1      19.272   0.190  30.587  1.00  0.00     0.018 A 
HETATM    9  C9  UNK     1      20.681  -2.225  30.578  1.00  0.00     0.038 A 
HETATM   10  C12 UNK     1      19.822  -0.296  29.401  1.00  0.00     0.001 A 
HETATM   11  C13 UNK     1      20.525  -1.502  29.396  1.00  0.00     0.003 A 
ENDROOT
BRANCH   3  12
HETATM   12  C5  UNK     1      20.045  -2.950  35.219  1.00  0.00     0.001 A 
HETATM   13  C10 UNK     1      20.666  -2.463  36.370  1.00  0.00     0.017 A 
HETATM   14  C15 UNK     1      20.921  -3.319  37.442  1.00  0.00     0.037 A 
HETATM   15  C17 UNK     1      20.555  -4.663  37.363  1.00  0.00     0.068 A 
HETATM   16  C16 UNK     1      19.935  -5.150  36.213  1.00  0.00     0.037 A 
HETATM   17  C11 UNK     1      19.679  -4.295  35.141  1.00  0.00     0.017 A 
BRANCH  15  18
HETATM   18  O4  UNK     1      20.805  -5.498  38.409  1.00  0.00    -0.356 OA
HETATM   19  C19 UNK     1      19.928  -6.611  38.574  1.00  0.00     0.210 C 
ENDBRANCH  15  18
ENDBRANCH   3  12
BRANCH   4  20
HETATM   20  O2  UNK     1      18.585  -0.467  35.437  1.00  0.00    -0.329 OA
BRANCH  20  21
HETATM   21  C7  UNK     1      17.269  -0.948  35.639  1.00  0.00     0.222 C 
HETATM   22  C14 UNK     1      17.253  -1.737  36.937  1.00  0.00     0.051 C 
BRANCH  21  23
HETATM   23  C18 UNK     1      16.331   0.238  35.704  1.00  0.00     0.170 C 
HETATM   24  O6  UNK     1      16.105   0.896  36.711  1.00  0.00    -0.648 OA
BRANCH  23  25
HETATM   25  O5  UNK     1      15.769   0.516  34.499  1.00  0.00    -0.774 OA
HETATM   26  H13 UNK     1      16.276   0.119  33.758  1.00  0.00     0.167 HD
ENDBRANCH  23  25
ENDBRANCH  21  23
ENDBRANCH  20  21
ENDBRANCH   4  20
TORSDOF 6
ENDMDL
MODEL 5
REMARK VINA RESULT:      -7.0     13.055     14.521
REMARK  6 active torsions:
REMARK  status: ('A' for Active; 'I' for Inactive)
REMARK    1  A    between atoms: C2_8  and  O2_2 
REMARK    2  A    between atoms: C7_13  and  O2_2 
REMARK    3  A    between atoms: C17_23  and  O4_4 
REMARK    4  A    between atoms: C18_24  and  O5_5 
REMARK    5  A    between atoms: C1_7  and  C5_11 
REMARK    6  A    between atoms: C18_24  and  C7_13 
ROOT
HETATM    1  O1  UNK     1      28.250  -6.967  34.256  1.00  0.00    -0.306 OA
HETATM    2  O3  UNK     1      31.750  -4.998  33.562  1.00  0.00    -0.284 OA
HETATM    3  C1  UNK     1      29.171  -6.752  35.268  1.00  0.00     0.123 A 
HETATM    4  C2  UNK     1      30.347  -6.116  35.108  1.00  0.00     0.155 A 
HETATM    5  C3  UNK     1      29.707  -5.804  32.701  1.00  0.00     0.051 A 
HETATM    6  C4  UNK     1      28.530  -6.488  33.003  1.00  0.00     0.090 A 
HETATM    7  C6  UNK     1      30.695  -5.585  33.768  1.00  0.00     0.221 A 
HETATM    8  C8  UNK     1      29.939  -5.338  31.406  1.00  0.00     0.018 A 
HETATM    9  C9  UNK     1      27.579  -6.710  32.008  1.00  0.00     0.038 A 
HETATM   10  C12 UNK     1      28.985  -5.561  30.412  1.00  0.00     0.001 A 
HETATM   11  C13 UNK     1      27.807  -6.246  30.712  1.00  0.00     0.003 A 
ENDROOT
BRANCH   3  12
HETATM   12  C5  UNK     1      28.748  -7.315  36.562  1.00  0.00     0.001 A 
HETATM   13  C10 UNK     1      27.818  -6.636  37.349  1.00  0.00     0.017 A 
HETATM   14  C15 UNK     1      27.416  -7.172  38.573  1.00  0.00     0.037 A 
HETATM   15  C17 UNK     1      27.946  -8.386  39.011  1.00  0.00     0.068 A 
HETATM   16  C16 UNK     1      28.875  -9.065  38.224  1.00  0.00     0.037 A 
HETATM   17  C11 UNK     1      29.277  -8.530  36.999  1.00  0.00     0.017 A 
BRANCH  15  18
HETATM   18  O4  UNK     1      27.554  -8.908  40.205  1.00  0.00    -0.356 OA
HETATM   19  C19 UNK     1      27.172 -10.282  40.219  1.00  0.00     0.210 C 
ENDBRANCH  15  18
ENDBRANCH   3  12
BRANCH   4  20
HETATM   20  O2  UNK     1      31.256  -5.948  36.130  1.00  0.00    -0.329 OA
BRANCH  20  21
HETATM   21  C7  UNK     1      30.929  -4.814  36.912  1.00  0.00     0.222 C 
HETATM   22  C14 UNK     1      31.062  -5.201  38.375  1.00  0.00     0.051 C 
BRANCH  21  23
HETATM   23  C18 UNK     1      31.879  -3.693  36.551  1.00  0.00     0.170 C 
HETATM   24  O6  UNK     1      33.067  -3.838  36.297  1.00  0.00    -0.648 OA
BRANCH  23  25
HETATM   25  O5  UNK     1      31.259  -2.484  36.517  1.00  0.00    -0.774 OA
HETATM   26  H13 UNK     1      31.330  -2.061  35.635  1.00  0.00     0.167 HD
ENDBRANCH  23  25
ENDBRANCH  21  23
ENDBRANCH  20  21
ENDBRANCH   4  20
TORSDOF 6
ENDMDL
MODEL 6
REMARK VINA RESULT:      -7.0     24.037     26.125
REMARK  6 active torsions:
REMARK  status: ('A' for Active; 'I' for Inactive)
REMARK    1  A    between atoms: C2_8  and  O2_2 
REMARK    2  A    between atoms: C7_13  and  O2_2 
REMARK    3  A    between atoms: C17_23  and  O4_4 
REMARK    4  A    between atoms: C18_24  and  O5_5 
REMARK    5  A    between atoms: C1_7  and  C5_11 
REMARK    6  A    between atoms: C18_24  and  C7_13 
ROOT
HETATM    1  O1  UNK     1      12.760   7.610   7.609  1.00  0.00    -0.306 OA
HETATM    2  O3  UNK     1       9.569   8.280  10.054  1.00  0.00    -0.284 OA
HETATM    3  C1  UNK     1      12.898   8.291   8.808  1.00  0.00     0.123 A 
HETATM    4  C2  UNK     1      11.888   8.552   9.659  1.00  0.00     0.155 A 
HETATM    5  C3  UNK     1      10.389   7.338   8.053  1.00  0.00     0.051 A 
HETATM    6  C4  UNK     1      11.519   7.145   7.260  1.00  0.00     0.090 A 
HETATM    7  C6  UNK     1      10.527   8.074   9.320  1.00  0.00     0.221 A 
HETATM    8  C8  UNK     1       9.149   6.841   7.646  1.00  0.00     0.018 A 
HETATM    9  C9  UNK     1      11.414   6.453   6.054  1.00  0.00     0.038 A 
HETATM   10  C12 UNK     1       9.047   6.150   6.439  1.00  0.00     0.001 A 
HETATM   11  C13 UNK     1      10.178   5.955   5.644  1.00  0.00     0.003 A 
ENDROOT
BRANCH   3  12
HETATM   12  C5  UNK     1      14.280   8.734   9.063  1.00  0.00     0.001 A 
HETATM   13  C10 UNK     1      15.084   8.034   9.963  1.00  0.00     0.017 A 
HETATM   14  C15 UNK     1      16.393   8.454  10.202  1.00  0.00     0.037 A 
HETATM   15  C17 UNK     1      16.898   9.575   9.542  1.00  0.00     0.068 A 
HETATM   16  C16 UNK     1      16.094  10.274   8.642  1.00  0.00     0.037 A 
HETATM   17  C11 UNK     1      14.786   9.855   8.403  1.00  0.00     0.017 A 
BRANCH  15  18
HETATM   18  O4  UNK     1      18.175   9.984   9.776  1.00  0.00    -0.356 OA
HETATM   19  C19 UNK     1      18.424  11.388   9.736  1.00  0.00     0.210 C 
ENDBRANCH  15  18
ENDBRANCH   3  12
BRANCH   4  20
HETATM   20  O2  UNK     1      12.054   9.261  10.828  1.00  0.00    -0.329 OA
BRANCH  20  21
HETATM   21  C7  UNK     1      11.625  10.601  10.671  1.00  0.00     0.222 C 
HETATM   22  C14 UNK     1      10.646  10.913  11.789  1.00  0.00     0.051 C 
BRANCH  21  23
HETATM   23  C18 UNK     1      12.838  11.504  10.733  1.00  0.00     0.170 C 
HETATM   24  O6  UNK     1      13.793  11.340  11.480  1.00  0.00    -0.648 OA
BRANCH  23  25
HETATM   25  O5  UNK     1      12.765  12.525   9.841  1.00  0.00    -0.774 OA
HETATM   26  H13 UNK     1      13.399  12.411   9.101  1.00  0.00     0.167 HD
ENDBRANCH  23  25
ENDBRANCH  21  23
ENDBRANCH  20  21
ENDBRANCH   4  20
TORSDOF 6
ENDMDL
MODEL 7
REMARK VINA RESULT:      -6.9     22.447     25.785
REMARK  6 active torsions:
REMARK  status: ('A' for Active; 'I' for Inactive)
REMARK    1  A    between atoms: C2_8  and  O2_2 
REMARK    2  A    between atoms: C7_13  and  O2_2 
REMARK    3  A    between atoms: C17_23  and  O4_4 
REMARK    4  A    between atoms: C18_24  and  O5_5 
REMARK    5  A    between atoms: C1_7  and  C5_11 
REMARK    6  A    between atoms: C18_24  and  C7_13 
ROOT
HETATM    1  O1  UNK     1      13.302   7.939   7.816  1.00  0.00    -0.306 OA
HETATM    2  O3  UNK     1      10.196   8.998  10.232  1.00  0.00    -0.284 OA
HETATM    3  C1  UNK     1      13.473   8.828   8.866  1.00  0.00     0.123 A 
HETATM    4  C2  UNK     1      12.491   9.225   9.697  1.00  0.00     0.155 A 
HETATM    5  C3  UNK     1      10.956   7.721   8.401  1.00  0.00     0.051 A 
HETATM    6  C4  UNK     1      12.058   7.403   7.609  1.00  0.00     0.090 A 
HETATM    7  C6  UNK     1      11.128   8.675   9.507  1.00  0.00     0.221 A 
HETATM    8  C8  UNK     1       9.712   7.142   8.143  1.00  0.00     0.018 A 
HETATM    9  C9  UNK     1      11.920   6.503   6.552  1.00  0.00     0.038 A 
HETATM   10  C12 UNK     1       9.576   6.242   7.085  1.00  0.00     0.001 A 
HETATM   11  C13 UNK     1      10.679   5.923   6.291  1.00  0.00     0.003 A 
ENDROOT
BRANCH   3  12
HETATM   12  C5  UNK     1      14.854   9.327   8.978  1.00  0.00     0.001 A 
HETATM   13  C10 UNK     1      15.819   8.572   9.645  1.00  0.00     0.017 A 
HETATM   14  C15 UNK     1      17.127   9.046   9.750  1.00  0.00     0.037 A 
HETATM   15  C17 UNK     1      17.470  10.276   9.188  1.00  0.00     0.068 A 
HETATM   16  C16 UNK     1      16.506  11.031   8.520  1.00  0.00     0.037 A 
HETATM   17  C11 UNK     1      15.198  10.557   8.416  1.00  0.00     0.017 A 
BRANCH  15  18
HETATM   18  O4  UNK     1      18.746  10.738   9.290  1.00  0.00    -0.356 OA
HETATM   19  C19 UNK     1      19.123  11.803   8.419  1.00  0.00     0.210 C 
ENDBRANCH  15  18
ENDBRANCH   3  12
BRANCH   4  20
HETATM   20  O2  UNK     1      12.689  10.136  10.712  1.00  0.00    -0.329 OA
BRANCH  20  21
HETATM   21  C7  UNK     1      12.810   9.480  11.961  1.00  0.00     0.222 C 
HETATM   22  C14 UNK     1      14.266   9.552  12.388  1.00  0.00     0.051 C 
BRANCH  21  23
HETATM   23  C18 UNK     1      11.909  10.177  12.957  1.00  0.00     0.170 C 
HETATM   24  O6  UNK     1      12.182  10.364  14.135  1.00  0.00    -0.648 OA
BRANCH  23  25
HETATM   25  O5  UNK     1      10.749  10.602  12.391  1.00  0.00    -0.774 OA
HETATM   26  H13 UNK     1      10.039   9.928  12.462  1.00  0.00     0.167 HD
ENDBRANCH  23  25
ENDBRANCH  21  23
ENDBRANCH  20  21
ENDBRANCH   4  20
TORSDOF 6
ENDMDL
MODEL 8
REMARK VINA RESULT:      -6.9     15.510     17.537
REMARK  6 active torsions:
REMARK  status: ('A' for Active; 'I' for Inactive)
REMARK    1  A    between atoms: C2_8  and  O2_2 
REMARK    2  A    between atoms: C7_13  and  O2_2 
REMARK    3  A    between atoms: C17_23  and  O4_4 
REMARK    4  A    between atoms: C18_24  and  O5_5 
REMARK    5  A    between atoms: C1_7  and  C5_11 
REMARK    6  A    between atoms: C18_24  and  C7_13 
ROOT
HETATM    1  O1  UNK     1      30.334  -8.357  31.819  1.00  0.00    -0.306 OA
HETATM    2  O3  UNK     1      32.984  -9.544  28.958  1.00  0.00    -0.284 OA
HETATM    3  C1  UNK     1      31.703  -8.271  32.020  1.00  0.00     0.123 A 
HETATM    4  C2  UNK     1      32.632  -8.650  31.123  1.00  0.00     0.155 A 
HETATM    5  C3  UNK     1      30.732  -9.259  29.601  1.00  0.00     0.051 A 
HETATM    6  C4  UNK     1      29.879  -8.841  30.620  1.00  0.00     0.090 A 
HETATM    7  C6  UNK     1      32.185  -9.184  29.814  1.00  0.00     0.221 A 
HETATM    8  C8  UNK     1      30.210  -9.743  28.399  1.00  0.00     0.018 A 
HETATM    9  C9  UNK     1      28.497  -8.905  30.443  1.00  0.00     0.038 A 
HETATM   10  C12 UNK     1      28.828  -9.806  28.224  1.00  0.00     0.001 A 
HETATM   11  C13 UNK     1      27.972  -9.387  29.244  1.00  0.00     0.003 A 
ENDROOT
BRANCH   3  12
HETATM   12  C5  UNK     1      32.057  -7.735  33.346  1.00  0.00     0.001 A 
HETATM   13  C10 UNK     1      31.895  -6.376  33.617  1.00  0.00     0.017 A 
HETATM   14  C15 UNK     1      32.230  -5.870  34.873  1.00  0.00     0.037 A 
HETATM   15  C17 UNK     1      32.727  -6.723  35.859  1.00  0.00     0.068 A 
HETATM   16  C16 UNK     1      32.889  -8.081  35.588  1.00  0.00     0.037 A 
HETATM   17  C11 UNK     1      32.554  -8.587  34.332  1.00  0.00     0.017 A 
BRANCH  15  18
HETATM   18  O4  UNK     1      33.054  -6.229  37.084  1.00  0.00    -0.356 OA
HETATM   19  C19 UNK     1      34.441  -6.179  37.416  1.00  0.00     0.210 C 
ENDBRANCH  15  18
ENDBRANCH   3  12
BRANCH   4  20
HETATM   20  O2  UNK     1      33.986  -8.580  31.368  1.00  0.00    -0.329 OA
BRANCH  20  21
HETATM   21  C7  UNK     1      34.462  -7.258  31.196  1.00  0.00     0.222 C 
HETATM   22  C14 UNK     1      35.345  -6.920  32.384  1.00  0.00     0.051 C 
BRANCH  21  23
HETATM   23  C18 UNK     1      35.237  -7.194  29.898  1.00  0.00     0.170 C 
HETATM   24  O6  UNK     1      35.442  -6.173  29.256  1.00  0.00    -0.648 OA
BRANCH  23  25
HETATM   25  O5  UNK     1      35.711  -8.411  29.521  1.00  0.00    -0.774 OA
HETATM   26  H13 UNK     1      36.233  -8.359  28.692  1.00  0.00     0.167 HD
ENDBRANCH  23  25
ENDBRANCH  21  23
ENDBRANCH  20  21
ENDBRANCH   4  20
TORSDOF 6
ENDMDL
MODEL 9
REMARK VINA RESULT:      -6.9      1.880      6.181
REMARK  6 active torsions:
REMARK  status: ('A' for Active; 'I' for Inactive)
REMARK    1  A    between atoms: C2_8  and  O2_2 
REMARK    2  A    between atoms: C7_13  and  O2_2 
REMARK    3  A    between atoms: C17_23  and  O4_4 
REMARK    4  A    between atoms: C18_24  and  O5_5 
REMARK    5  A    between atoms: C1_7  and  C5_11 
REMARK    6  A    between atoms: C18_24  and  C7_13 
ROOT
HETATM    1  O1  UNK     1      17.762   2.997  34.865  1.00  0.00    -0.306 OA
HETATM    2  O3  UNK     1      19.018   0.318  32.063  1.00  0.00    -0.284 OA
HETATM    3  C1  UNK     1      18.287   3.413  33.651  1.00  0.00     0.123 A 
HETATM    4  C2  UNK     1      18.726   2.584  32.686  1.00  0.00     0.155 A 
HETATM    5  C3  UNK     1      18.063   0.686  34.188  1.00  0.00     0.051 A 
HETATM    6  C4  UNK     1      17.655   1.653  35.105  1.00  0.00     0.090 A 
HETATM    7  C6  UNK     1      18.636   1.121  32.904  1.00  0.00     0.221 A 
HETATM    8  C8  UNK     1      17.930  -0.671  34.487  1.00  0.00     0.018 A 
HETATM    9  C9  UNK     1      17.111   1.265  36.330  1.00  0.00     0.038 A 
HETATM   10  C12 UNK     1      17.386  -1.056  35.713  1.00  0.00     0.001 A 
HETATM   11  C13 UNK     1      16.976  -0.089  36.633  1.00  0.00     0.003 A 
ENDROOT
BRANCH   3  12
HETATM   12  C5  UNK     1      18.345   4.879  33.521  1.00  0.00     0.001 A 
HETATM   13  C10 UNK     1      17.236   5.583  33.050  1.00  0.00     0.017 A 
HETATM   14  C15 UNK     1      17.291   6.972  32.928  1.00  0.00     0.037 A 
HETATM   15  C17 UNK     1      18.456   7.657  33.276  1.00  0.00     0.068 A 
HETATM   16  C16 UNK     1      19.564   6.954  33.746  1.00  0.00     0.037 A 
HETATM   17  C11 UNK     1      19.509   5.565  33.869  1.00  0.00     0.017 A 
BRANCH  15  18
HETATM   18  O4  UNK     1      18.509   9.012  33.156  1.00  0.00    -0.356 OA
HETATM   19  C19 UNK     1      17.569   9.768  33.918  1.00  0.00     0.210 C 
ENDBRANCH  15  18
ENDBRANCH   3  12
BRANCH   4  20
HETATM   20  O2  UNK     1      19.274   3.032  31.503  1.00  0.00    -0.329 OA
BRANCH  20  21
HETATM   21  C7  UNK     1      18.268   3.242  30.530  1.00  0.00     0.222 C 
HETATM   22  C14 UNK     1      18.504   4.602  29.898  1.00  0.00     0.051 C 
BRANCH  21  23
HETATM   23  C18 UNK     1      18.358   2.135  29.502  1.00  0.00     0.170 C 
HETATM   24  O6  UNK     1      17.453   1.807  28.747  1.00  0.00    -0.648 OA
BRANCH  23  25
HETATM   25  O5  UNK     1      19.581   1.543  29.489  1.00  0.00    -0.774 OA
HETATM   26  H13 UNK     1      20.196   1.986  28.866  1.00  0.00     0.167 HD
ENDBRANCH  23  25
ENDBRANCH  21  23
ENDBRANCH  20  21
ENDBRANCH   4  20
TORSDOF 6
ENDMDL
MODEL 10
REMARK VINA RESULT:      -6.8     23.420     25.301
REMARK  6 active torsions:
REMARK  status: ('A' for Active; 'I' for Inactive)
REMARK    1  A    between atoms: C2_8  and  O2_2 
REMARK    2  A    between atoms: C7_13  and  O2_2 
REMARK    3  A    between atoms: C17_23  and  O4_4 
REMARK    4  A    between atoms: C18_24  and  O5_5 
REMARK    5  A    between atoms: C1_7  and  C5_11 
REMARK    6  A    between atoms: C18_24  and  C7_13 
ROOT
HETATM    1  O1  UNK     1      11.762   8.614   9.359  1.00  0.00    -0.306 OA
HETATM    2  O3  UNK     1      12.318   4.870   7.849  1.00  0.00    -0.284 OA
HETATM    3  C1  UNK     1      13.032   8.096   9.158  1.00  0.00     0.123 A 
HETATM    4  C2  UNK     1      13.288   6.868   8.669  1.00  0.00     0.155 A 
HETATM    5  C3  UNK     1      10.803   6.556   8.500  1.00  0.00     0.051 A 
HETATM    6  C4  UNK     1      10.681   7.842   9.024  1.00  0.00     0.090 A 
HETATM    7  C6  UNK     1      12.148   5.996   8.298  1.00  0.00     0.221 A 
HETATM    8  C8  UNK     1       9.665   5.815   8.176  1.00  0.00     0.018 A 
HETATM    9  C9  UNK     1       9.416   8.394   9.226  1.00  0.00     0.038 A 
HETATM   10  C12 UNK     1       8.401   6.370   8.380  1.00  0.00     0.001 A 
HETATM   11  C13 UNK     1       8.277   7.658   8.904  1.00  0.00     0.003 A 
ENDROOT
BRANCH   3  12
HETATM   12  C5  UNK     1      14.103   9.026   9.557  1.00  0.00     0.001 A 
HETATM   13  C10 UNK     1      14.899   9.634   8.586  1.00  0.00     0.017 A 
HETATM   14  C15 UNK     1      15.912  10.516   8.966  1.00  0.00     0.037 A 
HETATM   15  C17 UNK     1      16.129  10.789  10.317  1.00  0.00     0.068 A 
HETATM   16  C16 UNK     1      15.332  10.182  11.287  1.00  0.00     0.037 A 
HETATM   17  C11 UNK     1      14.319   9.301  10.908  1.00  0.00     0.017 A 
BRANCH  15  18
HETATM   18  O4  UNK     1      17.117  11.649  10.686  1.00  0.00    -0.356 OA
HETATM   19  C19 UNK     1      18.356  11.553   9.987  1.00  0.00     0.210 C 
ENDBRANCH  15  18
ENDBRANCH   3  12
BRANCH   4  20
HETATM   20  O2  UNK     1      14.564   6.373   8.512  1.00  0.00    -0.329 OA
BRANCH  20  21
HETATM   21  C7  UNK     1      15.119   6.006   9.762  1.00  0.00     0.222 C 
HETATM   22  C14 UNK     1      14.851   4.527   9.977  1.00  0.00     0.051 C 
BRANCH  21  23
HETATM   23  C18 UNK     1      16.604   6.297   9.729  1.00  0.00     0.170 C 
HETATM   24  O6  UNK     1      17.119   7.340  10.107  1.00  0.00    -0.648 OA
BRANCH  23  25
HETATM   25  O5  UNK     1      17.323   5.250   9.247  1.00  0.00    -0.774 OA
HETATM   26  H13 UNK     1      17.432   5.299   8.273  1.00  0.00     0.167 HD
ENDBRANCH  23  25
ENDBRANCH  21  23
ENDBRANCH  20  21
ENDBRANCH   4  20
TORSDOF 6
ENDMDL
