MODEL 1
REMARK VINA RESULT:     -10.0      0.000      0.000
REMARK  4 active torsions:
REMARK  status: ('A' for Active; 'I' for Inactive)
REMARK    1  A    between atoms: C5_12  and  N1_4 
REMARK    2  A    between atoms: C6_13  and  N2_5 
REMARK    3  A    between atoms: C6_13  and  N3_6 
REMARK    4  A    between atoms: C8_15  and  N3_6 
ROOT
HETATM    1  N3  UNK     1      18.622  -3.924  36.559  1.00  0.00    -0.333 N 
HETATM    2  H9  UNK     1      17.691  -4.260  36.321  1.00  0.00     0.168 HD
ENDROOT
BRANCH   1   3
HETATM    3  C6  UNK     1      18.736  -2.544  36.594  1.00  0.00     0.174 C 
HETATM    4  S1  UNK     1      18.340  -1.687  37.980  1.00  0.00    -0.041 SA
BRANCH   3   5
HETATM    5  N2  UNK     1      19.225  -1.892  35.511  1.00  0.00    -0.355 N 
HETATM    6  C3  UNK     1      18.566  -0.723  34.953  1.00  0.00     0.145 C 
HETATM    7  C1  UNK     1      18.356  -0.881  33.448  1.00  0.00     0.144 C 
HETATM    8  N1  UNK     1      19.610  -1.287  32.797  1.00  0.00    -0.363 N 
HETATM    9  C2  UNK     1      20.283  -2.463  33.373  1.00  0.00     0.144 C 
HETATM   10  C4  UNK     1      20.474  -2.282  34.877  1.00  0.00     0.145 C 
BRANCH   8  11
HETATM   11  C5  UNK     1      19.792  -1.039  31.432  1.00  0.00     0.125 A 
HETATM   12  N4  UNK     1      19.537   0.208  30.911  1.00  0.00    -0.244 NA
HETATM   13  C16 UNK     1      19.729   0.396  29.586  1.00  0.00     0.119 A 
HETATM   14  C17 UNK     1      20.169  -0.592  28.719  1.00  0.00     0.019 A 
HETATM   15  C13 UNK     1      20.427  -1.853  29.246  1.00  0.00     0.005 A 
HETATM   16  C7  UNK     1      20.241  -2.084  30.604  1.00  0.00     0.050 A 
ENDBRANCH   8  11
ENDBRANCH   3   5
ENDBRANCH   1   3
BRANCH   1  17
HETATM   17  C8  UNK     1      19.553  -4.940  36.773  1.00  0.00     0.036 A 
HETATM   18  C10 UNK     1      19.645  -6.003  35.880  1.00  0.00     0.067 A 
HETATM   19  C11 UNK     1      20.584  -7.009  36.114  1.00  0.00     0.092 A 
HETATM   20  O1  UNK     1      20.630  -8.059  35.175  1.00  0.00    -0.275 OA
HETATM   21  C9  UNK     1      21.440  -6.989  37.215  1.00  0.00     0.004 A 
HETATM   22  C20 UNK     1      21.523  -9.110  35.306  1.00  0.00     0.288 A 
HETATM   23  C18 UNK     1      22.419  -9.075  36.474  1.00  0.00     0.090 A 
HETATM   24  O2  UNK     1      21.571 -10.029  34.495  1.00  0.00    -0.260 OA
HETATM   25  C15 UNK     1      22.398  -8.089  37.383  1.00  0.00    -0.043 A 
HETATM   26  C19 UNK     1      23.333  -8.097  38.557  1.00  0.00     0.049 C 
HETATM   27  C14 UNK     1      21.333  -5.909  38.103  1.00  0.00     0.017 A 
HETATM   28  C12 UNK     1      20.396  -4.894  37.882  1.00  0.00     0.030 A 
ENDBRANCH   1  17
TORSDOF 4
ENDMDL
MODEL 2
REMARK VINA RESULT:      -9.7      1.980      2.340
REMARK  4 active torsions:
REMARK  status: ('A' for Active; 'I' for Inactive)
REMARK    1  A    between atoms: C5_12  and  N1_4 
REMARK    2  A    between atoms: C6_13  and  N2_5 
REMARK    3  A    between atoms: C6_13  and  N3_6 
REMARK    4  A    between atoms: C8_15  and  N3_6 
ROOT
HETATM    1  N3  UNK     1      18.621  -3.817  36.518  1.00  0.00    -0.333 N 
HETATM    2  H9  UNK     1      17.901  -4.214  35.918  1.00  0.00     0.168 HD
ENDROOT
BRANCH   1   3
HETATM    3  C6  UNK     1      18.639  -2.432  36.541  1.00  0.00     0.174 C 
HETATM    4  S1  UNK     1      18.145  -1.592  37.905  1.00  0.00    -0.041 SA
BRANCH   3   5
HETATM    5  N2  UNK     1      19.115  -1.758  35.465  1.00  0.00    -0.355 N 
HETATM    6  C3  UNK     1      18.467  -0.559  34.959  1.00  0.00     0.145 C 
HETATM    7  C1  UNK     1      18.215  -0.668  33.456  1.00  0.00     0.144 C 
HETATM    8  N1  UNK     1      19.443  -1.080  32.761  1.00  0.00    -0.363 N 
HETATM    9  C2  UNK     1      20.106  -2.286  33.284  1.00  0.00     0.144 C 
HETATM   10  C4  UNK     1      20.338  -2.154  34.787  1.00  0.00     0.145 C 
BRANCH   8  11
HETATM   11  C5  UNK     1      19.596  -0.794  31.400  1.00  0.00     0.125 A 
HETATM   12  N4  UNK     1      19.159   0.405  30.886  1.00  0.00    -0.244 NA
HETATM   13  C16 UNK     1      19.330   0.631  29.565  1.00  0.00     0.119 A 
HETATM   14  C17 UNK     1      19.921  -0.270  28.694  1.00  0.00     0.019 A 
HETATM   15  C13 UNK     1      20.362  -1.483  29.212  1.00  0.00     0.005 A 
HETATM   16  C7  UNK     1      20.203  -1.753  30.567  1.00  0.00     0.050 A 
ENDBRANCH   8  11
ENDBRANCH   3   5
ENDBRANCH   1   3
BRANCH   1  17
HETATM   17  C8  UNK     1      19.420  -4.768  37.151  1.00  0.00     0.036 A 
HETATM   18  C10 UNK     1      20.754  -4.487  37.430  1.00  0.00     0.067 A 
HETATM   19  C11 UNK     1      21.535  -5.455  38.065  1.00  0.00     0.092 A 
HETATM   20  O1  UNK     1      22.878  -5.112  38.322  1.00  0.00    -0.275 OA
HETATM   21  C9  UNK     1      21.026  -6.700  38.433  1.00  0.00     0.004 A 
HETATM   22  C20 UNK     1      23.744  -5.994  38.947  1.00  0.00     0.288 A 
HETATM   23  C18 UNK     1      23.192  -7.305  39.328  1.00  0.00     0.090 A 
HETATM   24  O2  UNK     1      24.915  -5.706  39.175  1.00  0.00    -0.260 OA
HETATM   25  C15 UNK     1      21.920  -7.658  39.098  1.00  0.00    -0.043 A 
HETATM   26  C19 UNK     1      21.402  -9.007  39.506  1.00  0.00     0.049 C 
HETATM   27  C14 UNK     1      19.680  -6.964  38.144  1.00  0.00     0.017 A 
HETATM   28  C12 UNK     1      18.885  -6.005  37.508  1.00  0.00     0.030 A 
ENDBRANCH   1  17
TORSDOF 4
ENDMDL
MODEL 3
REMARK VINA RESULT:      -9.1      7.753     10.806
REMARK  4 active torsions:
REMARK  status: ('A' for Active; 'I' for Inactive)
REMARK    1  A    between atoms: C5_12  and  N1_4 
REMARK    2  A    between atoms: C6_13  and  N2_5 
REMARK    3  A    between atoms: C6_13  and  N3_6 
REMARK    4  A    between atoms: C8_15  and  N3_6 
ROOT
HETATM    1  N3  UNK     1      17.536   4.161  31.692  1.00  0.00    -0.333 N 
HETATM    2  H9  UNK     1      16.519   4.119  31.666  1.00  0.00     0.168 HD
ENDROOT
BRANCH   1   3
HETATM    3  C6  UNK     1      18.043   5.386  32.090  1.00  0.00     0.174 C 
HETATM    4  S1  UNK     1      19.608   5.837  31.686  1.00  0.00    -0.041 SA
BRANCH   3   5
HETATM    5  N2  UNK     1      17.243   6.247  32.763  1.00  0.00    -0.355 N 
HETATM    6  C3  UNK     1      16.075   6.857  32.148  1.00  0.00     0.145 C 
HETATM    7  C1  UNK     1      16.088   8.373  32.336  1.00  0.00     0.144 C 
HETATM    8  N1  UNK     1      16.322   8.710  33.748  1.00  0.00    -0.363 N 
HETATM    9  C2  UNK     1      17.496   8.081  34.374  1.00  0.00     0.144 C 
HETATM   10  C4  UNK     1      17.463   6.569  34.164  1.00  0.00     0.145 C 
BRANCH   8  11
HETATM   11  C5  UNK     1      15.915   9.956  34.238  1.00  0.00     0.125 A 
HETATM   12  N4  UNK     1      16.614  11.095  33.912  1.00  0.00    -0.244 NA
HETATM   13  C16 UNK     1      16.179  12.273  34.411  1.00  0.00     0.119 A 
HETATM   14  C17 UNK     1      15.069  12.406  35.231  1.00  0.00     0.019 A 
HETATM   15  C13 UNK     1      14.362  11.254  35.561  1.00  0.00     0.005 A 
HETATM   16  C7  UNK     1      14.780  10.023  35.067  1.00  0.00     0.050 A 
ENDBRANCH   8  11
ENDBRANCH   3   5
ENDBRANCH   1   3
BRANCH   1  17
HETATM   17  C8  UNK     1      18.162   2.977  31.302  1.00  0.00     0.036 A 
HETATM   18  C10 UNK     1      18.409   1.976  32.237  1.00  0.00     0.067 A 
HETATM   19  C11 UNK     1      19.036   0.799  31.824  1.00  0.00     0.092 A 
HETATM   20  O1  UNK     1      19.258  -0.178  32.815  1.00  0.00    -0.275 OA
HETATM   21  C9  UNK     1      19.427   0.586  30.502  1.00  0.00     0.004 A 
HETATM   22  C20 UNK     1      19.872  -1.384  32.519  1.00  0.00     0.288 A 
HETATM   23  C18 UNK     1      20.280  -1.593  31.119  1.00  0.00     0.090 A 
HETATM   24  O2  UNK     1      20.071  -2.241  33.374  1.00  0.00    -0.260 OA
HETATM   25  C15 UNK     1      20.081  -0.683  30.156  1.00  0.00    -0.043 A 
HETATM   26  C19 UNK     1      20.513  -0.942  28.742  1.00  0.00     0.049 C 
HETATM   27  C14 UNK     1      19.169   1.607  29.575  1.00  0.00     0.017 A 
HETATM   28  C12 UNK     1      18.542   2.792  29.974  1.00  0.00     0.030 A 
ENDBRANCH   1  17
TORSDOF 4
ENDMDL
MODEL 4
REMARK VINA RESULT:      -9.0      1.848      2.106
REMARK  4 active torsions:
REMARK  status: ('A' for Active; 'I' for Inactive)
REMARK    1  A    between atoms: C5_12  and  N1_4 
REMARK    2  A    between atoms: C6_13  and  N2_5 
REMARK    3  A    between atoms: C6_13  and  N3_6 
REMARK    4  A    between atoms: C8_15  and  N3_6 
ROOT
HETATM    1  N3  UNK     1      19.380  -3.889  35.820  1.00  0.00    -0.333 N 
HETATM    2  H9  UNK     1      19.201  -4.219  34.873  1.00  0.00     0.168 HD
ENDROOT
BRANCH   1   3
HETATM    3  C6  UNK     1      19.076  -2.553  36.021  1.00  0.00     0.174 C 
HETATM    4  S1  UNK     1      18.374  -2.042  37.456  1.00  0.00    -0.041 SA
BRANCH   3   5
HETATM    5  N2  UNK     1      19.404  -1.647  35.068  1.00  0.00    -0.355 N 
HETATM    6  C3  UNK     1      19.075  -0.237  35.198  1.00  0.00     0.145 C 
HETATM    7  C1  UNK     1      18.362   0.275  33.948  1.00  0.00     0.144 C 
HETATM    8  N1  UNK     1      19.113  -0.103  32.741  1.00  0.00    -0.363 N 
HETATM    9  C2  UNK     1      19.458  -1.529  32.618  1.00  0.00     0.144 C 
HETATM   10  C4  UNK     1      20.161  -2.017  33.882  1.00  0.00     0.145 C 
BRANCH   8  11
HETATM   11  C5  UNK     1      18.937   0.626  31.561  1.00  0.00     0.125 A 
HETATM   12  N4  UNK     1      18.289   1.839  31.581  1.00  0.00    -0.244 NA
HETATM   13  C16 UNK     1      18.145   2.504  30.413  1.00  0.00     0.119 A 
HETATM   14  C17 UNK     1      18.611   2.039  29.194  1.00  0.00     0.019 A 
HETATM   15  C13 UNK     1      19.266   0.812  29.172  1.00  0.00     0.005 A 
HETATM   16  C7  UNK     1      19.433   0.098  30.354  1.00  0.00     0.050 A 
ENDBRANCH   8  11
ENDBRANCH   3   5
ENDBRANCH   1   3
BRANCH   1  17
HETATM   17  C8  UNK     1      19.905  -4.862  36.669  1.00  0.00     0.036 A 
HETATM   18  C10 UNK     1      19.279  -6.099  36.786  1.00  0.00     0.067 A 
HETATM   19  C11 UNK     1      19.822  -7.059  37.642  1.00  0.00     0.092 A 
HETATM   20  O1  UNK     1      19.143  -8.292  37.717  1.00  0.00    -0.275 OA
HETATM   21  C9  UNK     1      20.975  -6.824  38.390  1.00  0.00     0.004 A 
HETATM   22  C20 UNK     1      19.593  -9.318  38.533  1.00  0.00     0.288 A 
HETATM   23  C18 UNK     1      20.811  -9.054  39.317  1.00  0.00     0.090 A 
HETATM   24  O2  UNK     1      19.010 -10.395  38.606  1.00  0.00    -0.260 OA
HETATM   25  C15 UNK     1      21.477  -7.892  39.266  1.00  0.00    -0.043 A 
HETATM   26  C19 UNK     1      22.716  -7.670  40.083  1.00  0.00     0.049 C 
HETATM   27  C14 UNK     1      21.591  -5.572  38.259  1.00  0.00     0.017 A 
HETATM   28  C12 UNK     1      21.059  -4.599  37.405  1.00  0.00     0.030 A 
ENDBRANCH   1  17
TORSDOF 4
ENDMDL
MODEL 5
REMARK VINA RESULT:      -9.0      8.309     11.167
REMARK  4 active torsions:
REMARK  status: ('A' for Active; 'I' for Inactive)
REMARK    1  A    between atoms: C5_12  and  N1_4 
REMARK    2  A    between atoms: C6_13  and  N2_5 
REMARK    3  A    between atoms: C6_13  and  N3_6 
REMARK    4  A    between atoms: C8_15  and  N3_6 
ROOT
HETATM    1  N3  UNK     1      17.880   4.954  31.692  1.00  0.00    -0.333 N 
HETATM    2  H9  UNK     1      17.402   5.253  30.843  1.00  0.00     0.168 HD
ENDROOT
BRANCH   1   3
HETATM    3  C6  UNK     1      18.072   5.964  32.619  1.00  0.00     0.174 C 
HETATM    4  S1  UNK     1      19.619   6.436  33.064  1.00  0.00    -0.041 SA
BRANCH   3   5
HETATM    5  N2  UNK     1      16.995   6.611  33.127  1.00  0.00    -0.355 N 
HETATM    6  C3  UNK     1      15.915   7.092  32.280  1.00  0.00     0.145 C 
HETATM    7  C1  UNK     1      15.612   8.562  32.566  1.00  0.00     0.144 C 
HETATM    8  N1  UNK     1      15.443   8.778  34.010  1.00  0.00    -0.363 N 
HETATM    9  C2  UNK     1      16.530   8.277  34.867  1.00  0.00     0.144 C 
HETATM   10  C4  UNK     1      16.818   6.810  34.557  1.00  0.00     0.145 C 
BRANCH   8  11
HETATM   11  C5  UNK     1      14.716   9.884  34.464  1.00  0.00     0.125 A 
HETATM   12  N4  UNK     1      14.927  10.385  35.727  1.00  0.00    -0.244 NA
HETATM   13  C16 UNK     1      14.200  11.456  36.116  1.00  0.00     0.119 A 
HETATM   14  C17 UNK     1      13.253  12.081  35.320  1.00  0.00     0.019 A 
HETATM   15  C13 UNK     1      13.039  11.574  34.043  1.00  0.00     0.005 A 
HETATM   16  C7  UNK     1      13.769  10.473  33.606  1.00  0.00     0.050 A 
ENDBRANCH   8  11
ENDBRANCH   3   5
ENDBRANCH   1   3
BRANCH   1  17
HETATM   17  C8  UNK     1      18.237   3.606  31.696  1.00  0.00     0.036 A 
HETATM   18  C10 UNK     1      18.744   3.013  30.544  1.00  0.00     0.067 A 
HETATM   19  C11 UNK     1      19.094   1.662  30.571  1.00  0.00     0.092 A 
HETATM   20  O1  UNK     1      19.602   1.119  29.374  1.00  0.00    -0.275 OA
HETATM   21  C9  UNK     1      18.956   0.879  31.717  1.00  0.00     0.004 A 
HETATM   22  C20 UNK     1      19.983  -0.211  29.286  1.00  0.00     0.288 A 
HETATM   23  C18 UNK     1      19.830  -1.025  30.504  1.00  0.00     0.090 A 
HETATM   24  O2  UNK     1      20.426  -0.694  28.249  1.00  0.00    -0.260 OA
HETATM   25  C15 UNK     1      19.351  -0.535  31.656  1.00  0.00    -0.043 A 
HETATM   26  C19 UNK     1      19.215  -1.404  32.872  1.00  0.00     0.049 C 
HETATM   27  C14 UNK     1      18.445   1.494  32.868  1.00  0.00     0.017 A 
HETATM   28  C12 UNK     1      18.088   2.847  32.856  1.00  0.00     0.030 A 
ENDBRANCH   1  17
TORSDOF 4
ENDMDL
MODEL 6
REMARK VINA RESULT:      -8.8      4.341      9.520
REMARK  4 active torsions:
REMARK  status: ('A' for Active; 'I' for Inactive)
REMARK    1  A    between atoms: C5_12  and  N1_4 
REMARK    2  A    between atoms: C6_13  and  N2_5 
REMARK    3  A    between atoms: C6_13  and  N3_6 
REMARK    4  A    between atoms: C8_15  and  N3_6 
ROOT
HETATM    1  N3  UNK     1      18.023   1.808  35.335  1.00  0.00    -0.333 N 
HETATM    2  H9  UNK     1      18.339   2.312  36.162  1.00  0.00     0.168 HD
ENDROOT
BRANCH   1   3
HETATM    3  C6  UNK     1      17.530   0.541  35.598  1.00  0.00     0.174 C 
HETATM    4  S1  UNK     1      15.957   0.133  35.184  1.00  0.00    -0.041 SA
BRANCH   3   5
HETATM    5  N2  UNK     1      18.350  -0.389  36.144  1.00  0.00    -0.355 N 
HETATM    6  C3  UNK     1      19.696  -0.619  35.644  1.00  0.00     0.145 C 
HETATM    7  C1  UNK     1      19.929  -2.104  35.369  1.00  0.00     0.144 C 
HETATM    8  N1  UNK     1      19.527  -2.908  36.533  1.00  0.00    -0.363 N 
HETATM    9  C2  UNK     1      18.169  -2.664  37.046  1.00  0.00     0.144 C 
HETATM   10  C4  UNK     1      17.960  -1.174  37.305  1.00  0.00     0.145 C 
BRANCH   8  11
HETATM   11  C5  UNK     1      20.067  -4.187  36.709  1.00  0.00     0.125 A 
HETATM   12  N4  UNK     1      20.961  -4.432  37.724  1.00  0.00    -0.244 NA
HETATM   13  C16 UNK     1      21.453  -5.684  37.851  1.00  0.00     0.119 A 
HETATM   14  C17 UNK     1      21.111  -6.740  37.020  1.00  0.00     0.019 A 
HETATM   15  C13 UNK     1      20.207  -6.492  35.992  1.00  0.00     0.005 A 
HETATM   16  C7  UNK     1      19.679  -5.216  35.830  1.00  0.00     0.050 A 
ENDBRANCH   8  11
ENDBRANCH   3   5
ENDBRANCH   1   3
BRANCH   1  17
HETATM   17  C8  UNK     1      18.186   2.515  34.145  1.00  0.00     0.036 A 
HETATM   18  C10 UNK     1      18.117   1.853  32.923  1.00  0.00     0.067 A 
HETATM   19  C11 UNK     1      18.283   2.581  31.743  1.00  0.00     0.092 A 
HETATM   20  O1  UNK     1      18.202   1.855  30.538  1.00  0.00    -0.275 OA
HETATM   21  C9  UNK     1      18.515   3.957  31.742  1.00  0.00     0.004 A 
HETATM   22  C20 UNK     1      18.350   2.475  29.307  1.00  0.00     0.288 A 
HETATM   23  C18 UNK     1      18.596   3.927  29.323  1.00  0.00     0.090 A 
HETATM   24  O2  UNK     1      18.282   1.853  28.253  1.00  0.00    -0.260 OA
HETATM   25  C15 UNK     1      18.677   4.643  30.454  1.00  0.00    -0.043 A 
HETATM   26  C19 UNK     1      18.929   6.122  30.419  1.00  0.00     0.049 C 
HETATM   27  C14 UNK     1      18.581   4.606  32.983  1.00  0.00     0.017 A 
HETATM   28  C12 UNK     1      18.417   3.890  34.174  1.00  0.00     0.030 A 
ENDBRANCH   1  17
TORSDOF 4
ENDMDL
MODEL 7
REMARK VINA RESULT:      -8.7      1.740      2.092
REMARK  4 active torsions:
REMARK  status: ('A' for Active; 'I' for Inactive)
REMARK    1  A    between atoms: C5_12  and  N1_4 
REMARK    2  A    between atoms: C6_13  and  N2_5 
REMARK    3  A    between atoms: C6_13  and  N3_6 
REMARK    4  A    between atoms: C8_15  and  N3_6 
ROOT
HETATM    1  N3  UNK     1      18.472  -4.287  36.444  1.00  0.00    -0.333 N 
HETATM    2  H9  UNK     1      17.469  -4.262  36.271  1.00  0.00     0.168 HD
ENDROOT
BRANCH   1   3
HETATM    3  C6  UNK     1      19.034  -3.046  36.695  1.00  0.00     0.174 C 
HETATM    4  S1  UNK     1      19.269  -2.517  38.269  1.00  0.00    -0.041 SA
BRANCH   3   5
HETATM    5  N2  UNK     1      19.447  -2.282  35.655  1.00  0.00    -0.355 N 
HETATM    6  C3  UNK     1      18.686  -1.132  35.194  1.00  0.00     0.145 C 
HETATM    7  C1  UNK     1      18.455  -1.200  33.685  1.00  0.00     0.144 C 
HETATM    8  N1  UNK     1      19.723  -1.457  32.986  1.00  0.00    -0.363 N 
HETATM    9  C2  UNK     1      20.499  -2.613  33.464  1.00  0.00     0.144 C 
HETATM   10  C4  UNK     1      20.708  -2.525  34.973  1.00  0.00     0.145 C 
BRANCH   8  11
HETATM   11  C5  UNK     1      19.854  -1.098  31.640  1.00  0.00     0.125 A 
HETATM   12  N4  UNK     1      19.651   0.202  31.242  1.00  0.00    -0.244 NA
HETATM   13  C16 UNK     1      19.791   0.496  29.931  1.00  0.00     0.119 A 
HETATM   14  C17 UNK     1      20.128  -0.433  28.959  1.00  0.00     0.019 A 
HETATM   15  C13 UNK     1      20.333  -1.749  29.361  1.00  0.00     0.005 A 
HETATM   16  C7  UNK     1      20.198  -2.090  30.702  1.00  0.00     0.050 A 
ENDBRANCH   8  11
ENDBRANCH   3   5
ENDBRANCH   1   3
BRANCH   1  17
HETATM   17  C8  UNK     1      19.030  -5.562  36.364  1.00  0.00     0.036 A 
HETATM   18  C10 UNK     1      18.727  -6.519  37.328  1.00  0.00     0.067 A 
HETATM   19  C11 UNK     1      19.297  -7.790  37.228  1.00  0.00     0.092 A 
HETATM   20  O1  UNK     1      18.952  -8.716  38.233  1.00  0.00    -0.275 OA
HETATM   21  C9  UNK     1      20.164  -8.139  36.192  1.00  0.00     0.004 A 
HETATM   22  C20 UNK     1      19.457 -10.006  38.233  1.00  0.00     0.288 A 
HETATM   23  C18 UNK     1      20.372 -10.359  37.134  1.00  0.00     0.090 A 
HETATM   24  O2  UNK     1      19.164 -10.820  39.103  1.00  0.00    -0.260 OA
HETATM   25  C15 UNK     1      20.717  -9.500  36.165  1.00  0.00    -0.043 A 
HETATM   26  C19 UNK     1      21.652  -9.906  35.064  1.00  0.00     0.049 C 
HETATM   27  C14 UNK     1      20.456  -7.161  35.231  1.00  0.00     0.017 A 
HETATM   28  C12 UNK     1      19.893  -5.883  35.317  1.00  0.00     0.030 A 
ENDBRANCH   1  17
TORSDOF 4
ENDMDL
MODEL 8
REMARK VINA RESULT:      -8.7      2.875      3.839
REMARK  4 active torsions:
REMARK  status: ('A' for Active; 'I' for Inactive)
REMARK    1  A    between atoms: C5_12  and  N1_4 
REMARK    2  A    between atoms: C6_13  and  N2_5 
REMARK    3  A    between atoms: C6_13  and  N3_6 
REMARK    4  A    between atoms: C8_15  and  N3_6 
ROOT
HETATM    1  N3  UNK     1      19.012  -2.857  35.976  1.00  0.00    -0.333 N 
HETATM    2  H9  UNK     1      19.214  -2.815  34.978  1.00  0.00     0.168 HD
ENDROOT
BRANCH   1   3
HETATM    3  C6  UNK     1      18.387  -1.728  36.476  1.00  0.00     0.174 C 
HETATM    4  S1  UNK     1      18.246  -1.490  38.131  1.00  0.00    -0.041 SA
BRANCH   3   5
HETATM    5  N2  UNK     1      17.938  -0.782  35.616  1.00  0.00    -0.355 N 
HETATM    6  C3  UNK     1      17.996  -0.962  34.174  1.00  0.00     0.145 C 
HETATM    7  C1  UNK     1      18.653   0.241  33.500  1.00  0.00     0.144 C 
HETATM    8  N1  UNK     1      18.035   1.490  33.969  1.00  0.00    -0.363 N 
HETATM    9  C2  UNK     1      17.964   1.664  35.430  1.00  0.00     0.144 C 
HETATM   10  C4  UNK     1      17.312   0.446  36.078  1.00  0.00     0.145 C 
BRANCH   8  11
HETATM   11  C5  UNK     1      18.123   2.643  33.182  1.00  0.00     0.125 A 
HETATM   12  N4  UNK     1      18.059   2.557  31.811  1.00  0.00    -0.244 NA
HETATM   13  C16 UNK     1      18.148   3.701  31.097  1.00  0.00     0.119 A 
HETATM   14  C17 UNK     1      18.300   4.958  31.661  1.00  0.00     0.019 A 
HETATM   15  C13 UNK     1      18.365   5.045  33.047  1.00  0.00     0.005 A 
HETATM   16  C7  UNK     1      18.277   3.890  33.816  1.00  0.00     0.050 A 
ENDBRANCH   8  11
ENDBRANCH   3   5
ENDBRANCH   1   3
BRANCH   1  17
HETATM   17  C8  UNK     1      19.433  -4.037  36.589  1.00  0.00     0.036 A 
HETATM   18  C10 UNK     1      20.735  -4.151  37.066  1.00  0.00     0.067 A 
HETATM   19  C11 UNK     1      21.135  -5.341  37.676  1.00  0.00     0.092 A 
HETATM   20  O1  UNK     1      22.465  -5.396  38.140  1.00  0.00    -0.275 OA
HETATM   21  C9  UNK     1      20.274  -6.428  37.827  1.00  0.00     0.004 A 
HETATM   22  C20 UNK     1      22.969  -6.527  38.762  1.00  0.00     0.288 A 
HETATM   23  C18 UNK     1      22.048  -7.665  38.913  1.00  0.00     0.090 A 
HETATM   24  O2  UNK     1      24.125  -6.585  39.169  1.00  0.00    -0.260 OA
HETATM   25  C15 UNK     1      20.779  -7.641  38.482  1.00  0.00    -0.043 A 
HETATM   26  C19 UNK     1      19.877  -8.828  38.660  1.00  0.00     0.049 C 
HETATM   27  C14 UNK     1      18.966  -6.294  37.340  1.00  0.00     0.017 A 
HETATM   28  C12 UNK     1      18.550  -5.107  36.726  1.00  0.00     0.030 A 
ENDBRANCH   1  17
TORSDOF 4
ENDMDL
MODEL 9
REMARK VINA RESULT:      -8.6      2.482      3.302
REMARK  4 active torsions:
REMARK  status: ('A' for Active; 'I' for Inactive)
REMARK    1  A    between atoms: C5_12  and  N1_4 
REMARK    2  A    between atoms: C6_13  and  N2_5 
REMARK    3  A    between atoms: C6_13  and  N3_6 
REMARK    4  A    between atoms: C8_15  and  N3_6 
ROOT
HETATM    1  N3  UNK     1      19.233  -2.591  35.811  1.00  0.00    -0.333 N 
HETATM    2  H9  UNK     1      19.555  -2.522  34.847  1.00  0.00     0.168 HD
ENDROOT
BRANCH   1   3
HETATM    3  C6  UNK     1      18.406  -1.553  36.208  1.00  0.00     0.174 C 
HETATM    4  S1  UNK     1      17.975  -1.371  37.818  1.00  0.00    -0.041 SA
BRANCH   3   5
HETATM    5  N2  UNK     1      17.991  -0.648  35.288  1.00  0.00    -0.355 N 
HETATM    6  C3  UNK     1      17.940  -0.959  33.869  1.00  0.00     0.145 C 
HETATM    7  C1  UNK     1      18.659   0.110  33.050  1.00  0.00     0.144 C 
HETATM    8  N1  UNK     1      18.189   1.450  33.433  1.00  0.00    -0.363 N 
HETATM    9  C2  UNK     1      18.228   1.758  34.873  1.00  0.00     0.144 C 
HETATM   10  C4  UNK     1      17.510   0.670  35.668  1.00  0.00     0.145 C 
BRANCH   8  11
HETATM   11  C5  UNK     1      18.331   2.515  32.538  1.00  0.00     0.125 A 
HETATM   12  N4  UNK     1      18.517   2.277  31.196  1.00  0.00    -0.244 NA
HETATM   13  C16 UNK     1      18.648   3.341  30.373  1.00  0.00     0.119 A 
HETATM   14  C17 UNK     1      18.606   4.660  30.798  1.00  0.00     0.019 A 
HETATM   15  C13 UNK     1      18.419   4.901  32.155  1.00  0.00     0.005 A 
HETATM   16  C7  UNK     1      18.280   3.831  33.033  1.00  0.00     0.050 A 
ENDBRANCH   8  11
ENDBRANCH   3   5
ENDBRANCH   1   3
BRANCH   1  17
HETATM   17  C8  UNK     1      19.723  -3.704  36.494  1.00  0.00     0.036 A 
HETATM   18  C10 UNK     1      19.057  -4.923  36.411  1.00  0.00     0.067 A 
HETATM   19  C11 UNK     1      19.565  -6.024  37.103  1.00  0.00     0.092 A 
HETATM   20  O1  UNK     1      18.848  -7.231  36.979  1.00  0.00    -0.275 OA
HETATM   21  C9  UNK     1      20.722  -5.949  37.878  1.00  0.00     0.004 A 
HETATM   22  C20 UNK     1      19.261  -8.388  37.621  1.00  0.00     0.288 A 
HETATM   23  C18 UNK     1      20.483  -8.292  38.437  1.00  0.00     0.090 A 
HETATM   24  O2  UNK     1      18.644  -9.444  37.521  1.00  0.00    -0.260 OA
HETATM   25  C15 UNK     1      21.185  -7.158  38.571  1.00  0.00    -0.043 A 
HETATM   26  C19 UNK     1      22.427  -7.110  39.414  1.00  0.00     0.049 C 
HETATM   27  C14 UNK     1      21.378  -4.712  37.949  1.00  0.00     0.017 A 
HETATM   28  C12 UNK     1      20.881  -3.599  37.262  1.00  0.00     0.030 A 
ENDBRANCH   1  17
TORSDOF 4
ENDMDL
MODEL 10
REMARK VINA RESULT:      -8.5      5.258     10.320
REMARK  4 active torsions:
REMARK  status: ('A' for Active; 'I' for Inactive)
REMARK    1  A    between atoms: C5_12  and  N1_4 
REMARK    2  A    between atoms: C6_13  and  N2_5 
REMARK    3  A    between atoms: C6_13  and  N3_6 
REMARK    4  A    between atoms: C8_15  and  N3_6 
ROOT
HETATM    1  N3  UNK     1      18.216   0.526  33.514  1.00  0.00    -0.333 N 
HETATM    2  H9  UNK     1      18.624  -0.185  32.910  1.00  0.00     0.168 HD
ENDROOT
BRANCH   1   3
HETATM    3  C6  UNK     1      17.670   0.028  34.686  1.00  0.00     0.174 C 
HETATM    4  S1  UNK     1      16.073   0.344  35.088  1.00  0.00    -0.041 SA
BRANCH   3   5
HETATM    5  N2  UNK     1      18.424  -0.769  35.482  1.00  0.00    -0.355 N 
HETATM    6  C3  UNK     1      19.810  -1.080  35.171  1.00  0.00     0.145 C 
HETATM    7  C1  UNK     1      20.055  -2.587  35.217  1.00  0.00     0.144 C 
HETATM    8  N1  UNK     1      19.534  -3.151  36.471  1.00  0.00    -0.363 N 
HETATM    9  C2  UNK     1      18.134  -2.823  36.792  1.00  0.00     0.144 C 
HETATM   10  C4  UNK     1      17.915  -1.314  36.730  1.00  0.00     0.145 C 
BRANCH   8  11
HETATM   11  C5  UNK     1      20.041  -4.364  36.947  1.00  0.00     0.125 A 
HETATM   12  N4  UNK     1      21.284  -4.418  37.533  1.00  0.00    -0.244 NA
HETATM   13  C16 UNK     1      21.728  -5.615  37.977  1.00  0.00     0.119 A 
HETATM   14  C17 UNK     1      21.007  -6.794  37.878  1.00  0.00     0.019 A 
HETATM   15  C13 UNK     1      19.750  -6.741  37.285  1.00  0.00     0.005 A 
HETATM   16  C7  UNK     1      19.259  -5.527  36.816  1.00  0.00     0.050 A 
ENDBRANCH   8  11
ENDBRANCH   3   5
ENDBRANCH   1   3
BRANCH   1  17
HETATM   17  C8  UNK     1      18.293   1.819  33.000  1.00  0.00     0.036 A 
HETATM   18  C10 UNK     1      18.156   2.917  33.844  1.00  0.00     0.067 A 
HETATM   19  C11 UNK     1      18.237   4.203  33.308  1.00  0.00     0.092 A 
HETATM   20  O1  UNK     1      18.092   5.274  34.213  1.00  0.00    -0.275 OA
HETATM   21  C9  UNK     1      18.451   4.432  31.948  1.00  0.00     0.004 A 
HETATM   22  C20 UNK     1      18.156   6.592  33.791  1.00  0.00     0.288 A 
HETATM   23  C18 UNK     1      18.381   6.817  32.353  1.00  0.00     0.090 A 
HETATM   24  O2  UNK     1      18.031   7.532  34.570  1.00  0.00    -0.260 OA
HETATM   25  C15 UNK     1      18.522   5.819  31.470  1.00  0.00    -0.043 A 
HETATM   26  C19 UNK     1      18.751   6.098  30.013  1.00  0.00     0.049 C 
HETATM   27  C14 UNK     1      18.586   3.313  31.114  1.00  0.00     0.017 A 
HETATM   28  C12 UNK     1      18.507   2.018  31.637  1.00  0.00     0.030 A 
ENDBRANCH   1  17
TORSDOF 4
ENDMDL
