MODEL 1
REMARK VINA RESULT:      -9.0      0.000      0.000
REMARK  5 active torsions:
REMARK  status: ('A' for Active; 'I' for Inactive)
REMARK    1  A    between atoms: C12_18  and  O3_3 
REMARK    2  A    between atoms: C20_26  and  O3_3 
REMARK    3  A    between atoms: C7_13  and  N1_5 
REMARK    4  A    between atoms: C1_7  and  C3_9 
REMARK    5  A    between atoms: C20_26  and  C21_27 
ROOT
HETATM    1  O1  UNK     1      30.988  -5.474  33.591  1.00  0.00    -0.291 OA
HETATM    2  O2  UNK     1      33.068  -8.407  35.730  1.00  0.00    -0.274 OA
HETATM    3  O4  UNK     1      31.472  -9.940  35.186  1.00  0.00    -0.259 OA
HETATM    4  N2  UNK     1      27.251  -7.500  31.323  1.00  0.00    -0.191 NA
HETATM    5  C1  UNK     1      29.794  -8.079  33.767  1.00  0.00     0.109 C 
HETATM    6  C2  UNK     1      31.124  -7.722  34.403  1.00  0.00     0.066 A 
HETATM    7  C4  UNK     1      31.624  -6.482  34.294  1.00  0.00     0.104 A 
HETATM    8  C5  UNK     1      29.281  -6.975  32.847  1.00  0.00     0.086 C 
HETATM    9  C6  UNK     1      32.887  -6.117  34.927  1.00  0.00     0.033 A 
HETATM   10  C7  UNK     1      29.872  -5.760  32.805  1.00  0.00     0.159 C 
HETATM   11  C8  UNK     1      31.875  -8.784  35.122  1.00  0.00     0.298 A 
HETATM   12  C9  UNK     1      33.575  -7.097  35.637  1.00  0.00     0.092 A 
HETATM   13  C13 UNK     1      33.445  -4.834  34.864  1.00  0.00     0.017 A 
HETATM   14  C15 UNK     1      34.786  -6.836  36.278  1.00  0.00     0.038 A 
HETATM   15  C17 UNK     1      28.160  -7.266  32.005  1.00  0.00     0.100 C 
HETATM   16  C18 UNK     1      34.660  -4.557  35.501  1.00  0.00     0.001 A 
HETATM   17  C19 UNK     1      35.328  -5.557  36.207  1.00  0.00     0.003 A 
ENDROOT
BRANCH   5  18
HETATM   18  C3  UNK     1      28.773  -8.389  34.822  1.00  0.00    -0.041 A 
HETATM   19  C10 UNK     1      28.376  -7.394  35.708  1.00  0.00     0.044 A 
HETATM   20  C12 UNK     1      27.427  -7.683  36.689  1.00  0.00     0.069 A 
HETATM   21  C16 UNK     1      26.883  -8.964  36.778  1.00  0.00     0.037 A 
HETATM   22  C14 UNK     1      27.286  -9.956  35.885  1.00  0.00     0.003 A 
HETATM   23  C11 UNK     1      28.235  -9.668  34.903  1.00  0.00     0.008 A 
BRANCH  20  24
HETATM   24  O3  UNK     1      27.033  -6.714  37.561  1.00  0.00    -0.347 OA
BRANCH  24  25
HETATM   25  C20 UNK     1      27.733  -6.631  38.801  1.00  0.00     0.214 C 
BRANCH  25  26
HETATM   26  C21 UNK     1      29.084  -6.024  38.561  1.00  0.00    -0.034 A 
HETATM   27  C22 UNK     1      29.188  -4.668  38.273  1.00  0.00     0.009 A 
HETATM   28  C24 UNK     1      30.444  -4.103  38.049  1.00  0.00     0.001 A 
HETATM   29  C26 UNK     1      31.588  -4.899  38.117  1.00  0.00     0.000 A 
HETATM   30  C25 UNK     1      31.476  -6.258  38.407  1.00  0.00     0.001 A 
HETATM   31  C23 UNK     1      30.219  -6.823  38.630  1.00  0.00     0.009 A 
ENDBRANCH  25  26
ENDBRANCH  24  25
ENDBRANCH  20  24
ENDBRANCH   5  18
BRANCH  10  32
HETATM   32  N1  UNK     1      29.467  -4.713  32.024  1.00  0.00    -0.379 N 
HETATM   33  H10 UNK     1      28.626  -4.774  31.466  1.00  0.00     0.158 HD
HETATM   34  H9  UNK     1      30.024  -3.868  32.013  1.00  0.00     0.158 HD
ENDBRANCH  10  32
TORSDOF 5
ENDMDL
MODEL 2
REMARK VINA RESULT:      -8.7      3.770      5.721
REMARK  5 active torsions:
REMARK  status: ('A' for Active; 'I' for Inactive)
REMARK    1  A    between atoms: C12_18  and  O3_3 
REMARK    2  A    between atoms: C20_26  and  O3_3 
REMARK    3  A    between atoms: C7_13  and  N1_5 
REMARK    4  A    between atoms: C1_7  and  C3_9 
REMARK    5  A    between atoms: C20_26  and  C21_27 
ROOT
HETATM    1  O1  UNK     1      32.297  -6.454  37.040  1.00  0.00    -0.291 OA
HETATM    2  O2  UNK     1      30.023  -7.768  33.783  1.00  0.00    -0.274 OA
HETATM    3  O4  UNK     1      28.161  -6.826  34.699  1.00  0.00    -0.259 OA
HETATM    4  N2  UNK     1      29.560  -3.699  39.891  1.00  0.00    -0.191 NA
HETATM    5  C1  UNK     1      29.475  -5.929  37.099  1.00  0.00     0.109 C 
HETATM    6  C2  UNK     1      30.170  -6.650  35.959  1.00  0.00     0.066 A 
HETATM    7  C4  UNK     1      31.492  -6.874  35.996  1.00  0.00     0.104 A 
HETATM    8  C5  UNK     1      30.467  -5.327  38.089  1.00  0.00     0.086 C 
HETATM    9  C6  UNK     1      32.168  -7.592  34.920  1.00  0.00     0.033 A 
HETATM   10  C7  UNK     1      31.788  -5.610  38.027  1.00  0.00     0.159 C 
HETATM   11  C8  UNK     1      29.359  -7.072  34.787  1.00  0.00     0.298 A 
HETATM   12  C9  UNK     1      31.406  -8.027  33.839  1.00  0.00     0.092 A 
HETATM   13  C13 UNK     1      33.540  -7.874  34.916  1.00  0.00     0.017 A 
HETATM   14  C15 UNK     1      31.967  -8.725  32.769  1.00  0.00     0.038 A 
HETATM   15  C17 UNK     1      29.966  -4.428  39.084  1.00  0.00     0.100 C 
HETATM   16  C18 UNK     1      34.117  -8.572  33.850  1.00  0.00     0.001 A 
HETATM   17  C19 UNK     1      33.331  -8.997  32.779  1.00  0.00     0.003 A 
ENDROOT
BRANCH   5  18
HETATM   18  C3  UNK     1      28.534  -6.856  37.811  1.00  0.00    -0.041 A 
HETATM   19  C10 UNK     1      27.188  -6.526  37.912  1.00  0.00     0.044 A 
HETATM   20  C12 UNK     1      26.313  -7.389  38.575  1.00  0.00     0.069 A 
HETATM   21  C16 UNK     1      26.792  -8.574  39.131  1.00  0.00     0.037 A 
HETATM   22  C14 UNK     1      28.145  -8.899  39.025  1.00  0.00     0.003 A 
HETATM   23  C11 UNK     1      29.019  -8.037  38.362  1.00  0.00     0.008 A 
BRANCH  20  24
HETATM   24  O3  UNK     1      24.993  -7.072  38.678  1.00  0.00    -0.347 OA
BRANCH  24  25
HETATM   25  C20 UNK     1      24.125  -8.070  39.213  1.00  0.00     0.214 C 
BRANCH  25  26
HETATM   26  C21 UNK     1      22.707  -7.589  39.115  1.00  0.00    -0.034 A 
HETATM   27  C22 UNK     1      22.446  -6.309  38.639  1.00  0.00     0.009 A 
HETATM   28  C24 UNK     1      21.127  -5.862  38.549  1.00  0.00     0.001 A 
HETATM   29  C26 UNK     1      20.079  -6.698  38.935  1.00  0.00     0.000 A 
HETATM   30  C25 UNK     1      20.349  -7.980  39.411  1.00  0.00     0.001 A 
HETATM   31  C23 UNK     1      21.668  -8.427  39.502  1.00  0.00     0.009 A 
ENDBRANCH  25  26
ENDBRANCH  24  25
ENDBRANCH  20  24
ENDBRANCH   5  18
BRANCH  10  32
HETATM   32  N1  UNK     1      32.739  -5.128  38.882  1.00  0.00    -0.379 N 
HETATM   33  H10 UNK     1      32.659  -5.264  39.881  1.00  0.00     0.158 HD
HETATM   34  H9  UNK     1      33.533  -4.631  38.498  1.00  0.00     0.158 HD
ENDBRANCH  10  32
TORSDOF 5
ENDMDL
MODEL 3
REMARK VINA RESULT:      -8.6      2.764      6.891
REMARK  5 active torsions:
REMARK  status: ('A' for Active; 'I' for Inactive)
REMARK    1  A    between atoms: C12_18  and  O3_3 
REMARK    2  A    between atoms: C20_26  and  O3_3 
REMARK    3  A    between atoms: C7_13  and  N1_5 
REMARK    4  A    between atoms: C1_7  and  C3_9 
REMARK    5  A    between atoms: C20_26  and  C21_27 
ROOT
HETATM    1  O1  UNK     1      30.469  -5.122  37.111  1.00  0.00    -0.291 OA
HETATM    2  O2  UNK     1      30.826  -9.282  37.366  1.00  0.00    -0.274 OA
HETATM    3  O4  UNK     1      32.737  -9.198  36.127  1.00  0.00    -0.259 OA
HETATM    4  N2  UNK     1      34.366  -3.315  34.931  1.00  0.00    -0.191 NA
HETATM    5  C1  UNK     1      32.645  -6.352  35.699  1.00  0.00     0.109 C 
HETATM    6  C2  UNK     1      31.634  -7.128  36.521  1.00  0.00     0.066 A 
HETATM    7  C4  UNK     1      30.632  -6.495  37.149  1.00  0.00     0.104 A 
HETATM    8  C5  UNK     1      32.506  -4.844  35.890  1.00  0.00     0.086 C 
HETATM    9  C6  UNK     1      29.635  -7.233  37.919  1.00  0.00     0.033 A 
HETATM   10  C7  UNK     1      31.458  -4.310  36.556  1.00  0.00     0.159 C 
HETATM   11  C8  UNK     1      31.797  -8.601  36.641  1.00  0.00     0.298 A 
HETATM   12  C9  UNK     1      29.759  -8.618  38.000  1.00  0.00     0.092 A 
HETATM   13  C13 UNK     1      28.557  -6.628  38.576  1.00  0.00     0.017 A 
HETATM   14  C15 UNK     1      28.850  -9.403  38.709  1.00  0.00     0.038 A 
HETATM   15  C17 UNK     1      33.534  -4.000  35.360  1.00  0.00     0.100 C 
HETATM   16  C18 UNK     1      27.638  -7.402  39.292  1.00  0.00     0.001 A 
HETATM   17  C19 UNK     1      27.784  -8.788  39.357  1.00  0.00     0.003 A 
ENDROOT
BRANCH   5  18
HETATM   18  C3  UNK     1      32.520  -6.701  34.245  1.00  0.00    -0.041 A 
HETATM   19  C10 UNK     1      31.312  -6.495  33.589  1.00  0.00     0.044 A 
HETATM   20  C12 UNK     1      31.195  -6.822  32.237  1.00  0.00     0.069 A 
HETATM   21  C16 UNK     1      32.287  -7.352  31.552  1.00  0.00     0.037 A 
HETATM   22  C14 UNK     1      33.497  -7.556  32.217  1.00  0.00     0.003 A 
HETATM   23  C11 UNK     1      33.613  -7.230  33.568  1.00  0.00     0.008 A 
BRANCH  20  24
HETATM   24  O3  UNK     1      30.015  -6.622  31.588  1.00  0.00    -0.347 OA
BRANCH  24  25
HETATM   25  C20 UNK     1      30.069  -6.483  30.170  1.00  0.00     0.214 C 
BRANCH  25  26
HETATM   26  C21 UNK     1      29.527  -7.730  29.535  1.00  0.00    -0.034 A 
HETATM   27  C22 UNK     1      28.254  -8.177  29.871  1.00  0.00     0.009 A 
HETATM   28  C24 UNK     1      27.750  -9.336  29.281  1.00  0.00     0.001 A 
HETATM   29  C26 UNK     1      28.524 -10.042  28.358  1.00  0.00     0.000 A 
HETATM   30  C25 UNK     1      29.800  -9.587  28.026  1.00  0.00     0.001 A 
HETATM   31  C23 UNK     1      30.303  -8.428  28.617  1.00  0.00     0.009 A 
ENDBRANCH  25  26
ENDBRANCH  24  25
ENDBRANCH  20  24
ENDBRANCH   5  18
BRANCH  10  32
HETATM   32  N1  UNK     1      31.250  -2.974  36.758  1.00  0.00    -0.379 N 
HETATM   33  H10 UNK     1      30.437  -2.644  37.263  1.00  0.00     0.158 HD
HETATM   34  H9  UNK     1      31.926  -2.314  36.396  1.00  0.00     0.158 HD
ENDBRANCH  10  32
TORSDOF 5
ENDMDL
MODEL 4
REMARK VINA RESULT:      -8.5     32.048     34.498
REMARK  5 active torsions:
REMARK  status: ('A' for Active; 'I' for Inactive)
REMARK    1  A    between atoms: C12_18  and  O3_3 
REMARK    2  A    between atoms: C20_26  and  O3_3 
REMARK    3  A    between atoms: C7_13  and  N1_5 
REMARK    4  A    between atoms: C1_7  and  C3_9 
REMARK    5  A    between atoms: C20_26  and  C21_27 
ROOT
HETATM    1  O1  UNK     1      16.890   8.298   9.931  1.00  0.00    -0.291 OA
HETATM    2  O2  UNK     1      13.723  10.483  11.576  1.00  0.00    -0.274 OA
HETATM    3  O4  UNK     1      12.451   8.593  11.644  1.00  0.00    -0.259 OA
HETATM    4  N2  UNK     1      15.731   3.623   9.847  1.00  0.00    -0.191 NA
HETATM    5  C1  UNK     1      14.426   6.903  10.405  1.00  0.00     0.109 C 
HETATM    6  C2  UNK     1      14.630   8.373  10.719  1.00  0.00     0.066 A 
HETATM    7  C4  UNK     1      15.804   8.970  10.464  1.00  0.00     0.104 A 
HETATM    8  C5  UNK     1      15.730   6.209  10.024  1.00  0.00     0.086 C 
HETATM    9  C6  UNK     1      16.004  10.391  10.733  1.00  0.00     0.033 A 
HETATM   10  C7  UNK     1      16.865   6.910   9.803  1.00  0.00     0.159 C 
HETATM   11  C8  UNK     1      13.513   9.128  11.344  1.00  0.00     0.298 A 
HETATM   12  C9  UNK     1      14.947  11.113  11.280  1.00  0.00     0.092 A 
HETATM   13  C13 UNK     1      17.199  11.071  10.467  1.00  0.00     0.017 A 
HETATM   14  C15 UNK     1      15.048  12.475  11.565  1.00  0.00     0.038 A 
HETATM   15  C17 UNK     1      15.730   4.781   9.927  1.00  0.00     0.100 C 
HETATM   16  C18 UNK     1      17.316  12.437  10.747  1.00  0.00     0.001 A 
HETATM   17  C19 UNK     1      16.241  13.137  11.295  1.00  0.00     0.003 A 
ENDROOT
BRANCH   5  18
HETATM   18  C3  UNK     1      13.413   6.736   9.310  1.00  0.00    -0.041 A 
HETATM   19  C10 UNK     1      12.229   6.055   9.566  1.00  0.00     0.044 A 
HETATM   20  C12 UNK     1      11.288   5.898   8.547  1.00  0.00     0.069 A 
HETATM   21  C16 UNK     1      11.539   6.424   7.281  1.00  0.00     0.037 A 
HETATM   22  C14 UNK     1      12.730   7.107   7.032  1.00  0.00     0.003 A 
HETATM   23  C11 UNK     1      13.670   7.263   8.050  1.00  0.00     0.008 A 
BRANCH  20  24
HETATM   24  O3  UNK     1      10.126   5.232   8.791  1.00  0.00    -0.347 OA
BRANCH  24  25
HETATM   25  C20 UNK     1       8.917   5.858   8.366  1.00  0.00     0.214 C 
BRANCH  25  26
HETATM   26  C21 UNK     1       8.026   6.061   9.556  1.00  0.00    -0.034 A 
HETATM   27  C22 UNK     1       7.793   5.005  10.430  1.00  0.00     0.009 A 
HETATM   28  C24 UNK     1       6.964   5.194  11.537  1.00  0.00     0.001 A 
HETATM   29  C26 UNK     1       6.374   6.438  11.762  1.00  0.00     0.000 A 
HETATM   30  C25 UNK     1       6.613   7.493  10.881  1.00  0.00     0.001 A 
HETATM   31  C23 UNK     1       7.441   7.303   9.774  1.00  0.00     0.009 A 
ENDBRANCH  25  26
ENDBRANCH  24  25
ENDBRANCH  20  24
ENDBRANCH   5  18
BRANCH  10  32
HETATM   32  N1  UNK     1      18.068   6.369   9.444  1.00  0.00    -0.379 N 
HETATM   33  H10 UNK     1      18.115   5.537   8.870  1.00  0.00     0.158 HD
HETATM   34  H9  UNK     1      18.919   6.818   9.760  1.00  0.00     0.158 HD
ENDBRANCH  10  32
TORSDOF 5
ENDMDL
MODEL 5
REMARK VINA RESULT:      -8.3      2.415      5.891
REMARK  5 active torsions:
REMARK  status: ('A' for Active; 'I' for Inactive)
REMARK    1  A    between atoms: C12_18  and  O3_3 
REMARK    2  A    between atoms: C20_26  and  O3_3 
REMARK    3  A    between atoms: C7_13  and  N1_5 
REMARK    4  A    between atoms: C1_7  and  C3_9 
REMARK    5  A    between atoms: C20_26  and  C21_27 
ROOT
HETATM    1  O1  UNK     1      30.810  -4.982  36.893  1.00  0.00    -0.291 OA
HETATM    2  O2  UNK     1      30.901  -9.160  37.089  1.00  0.00    -0.274 OA
HETATM    3  O4  UNK     1      32.722  -9.188  35.719  1.00  0.00    -0.259 OA
HETATM    4  N2  UNK     1      34.659  -3.414  34.456  1.00  0.00    -0.191 NA
HETATM    5  C1  UNK     1      32.794  -6.338  35.320  1.00  0.00     0.109 C 
HETATM    6  C2  UNK     1      31.792  -7.055  36.206  1.00  0.00     0.066 A 
HETATM    7  C4  UNK     1      30.883  -6.364  36.909  1.00  0.00     0.104 A 
HETATM    8  C5  UNK     1      32.771  -4.827  35.533  1.00  0.00     0.086 C 
HETATM    9  C6  UNK     1      29.894  -7.043  37.741  1.00  0.00     0.033 A 
HETATM   10  C7  UNK     1      31.811  -4.232  36.276  1.00  0.00     0.159 C 
HETATM   11  C8  UNK     1      31.863  -8.537  36.302  1.00  0.00     0.298 A 
HETATM   12  C9  UNK     1      29.929  -8.434  37.803  1.00  0.00     0.092 A 
HETATM   13  C13 UNK     1      28.909  -6.375  38.479  1.00  0.00     0.017 A 
HETATM   14  C15 UNK     1      29.021  -9.166  38.568  1.00  0.00     0.038 A 
HETATM   15  C17 UNK     1      33.814  -4.047  34.938  1.00  0.00     0.100 C 
HETATM   16  C18 UNK     1      27.991  -7.095  39.251  1.00  0.00     0.001 A 
HETATM   17  C19 UNK     1      28.048  -8.488  39.295  1.00  0.00     0.003 A 
ENDROOT
BRANCH   5  18
HETATM   18  C3  UNK     1      32.543  -6.660  33.876  1.00  0.00    -0.041 A 
HETATM   19  C10 UNK     1      31.311  -6.357  33.308  1.00  0.00     0.044 A 
HETATM   20  C12 UNK     1      31.078  -6.658  31.965  1.00  0.00     0.069 A 
HETATM   21  C16 UNK     1      32.079  -7.259  31.202  1.00  0.00     0.037 A 
HETATM   22  C14 UNK     1      33.312  -7.559  31.780  1.00  0.00     0.003 A 
HETATM   23  C11 UNK     1      33.545  -7.259  33.122  1.00  0.00     0.008 A 
BRANCH  20  24
HETATM   24  O3  UNK     1      29.874  -6.365  31.401  1.00  0.00    -0.347 OA
BRANCH  24  25
HETATM   25  C20 UNK     1      29.004  -7.460  31.122  1.00  0.00     0.214 C 
BRANCH  25  26
HETATM   26  C21 UNK     1      28.847  -8.289  32.362  1.00  0.00    -0.034 A 
HETATM   27  C22 UNK     1      29.196  -9.635  32.339  1.00  0.00     0.009 A 
HETATM   28  C24 UNK     1      29.050 -10.406  33.492  1.00  0.00     0.001 A 
HETATM   29  C26 UNK     1      28.556  -9.827  34.662  1.00  0.00     0.000 A 
HETATM   30  C25 UNK     1      28.209  -8.476  34.677  1.00  0.00     0.001 A 
HETATM   31  C23 UNK     1      28.355  -7.705  33.523  1.00  0.00     0.009 A 
ENDBRANCH  25  26
ENDBRANCH  24  25
ENDBRANCH  20  24
ENDBRANCH   5  18
BRANCH  10  32
HETATM   32  N1  UNK     1      31.709  -2.888  36.503  1.00  0.00    -0.379 N 
HETATM   33  H10 UNK     1      31.890  -2.499  37.419  1.00  0.00     0.158 HD
HETATM   34  H9  UNK     1      31.449  -2.281  35.736  1.00  0.00     0.158 HD
ENDBRANCH  10  32
TORSDOF 5
ENDMDL
MODEL 6
REMARK VINA RESULT:      -8.2      3.519      5.555
REMARK  5 active torsions:
REMARK  status: ('A' for Active; 'I' for Inactive)
REMARK    1  A    between atoms: C12_18  and  O3_3 
REMARK    2  A    between atoms: C20_26  and  O3_3 
REMARK    3  A    between atoms: C7_13  and  N1_5 
REMARK    4  A    between atoms: C1_7  and  C3_9 
REMARK    5  A    between atoms: C20_26  and  C21_27 
ROOT
HETATM    1  O1  UNK     1      34.755  -6.864  32.945  1.00  0.00    -0.291 OA
HETATM    2  O2  UNK     1      32.165  -9.841  34.335  1.00  0.00    -0.274 OA
HETATM    3  O4  UNK     1      32.027 -10.708  32.232  1.00  0.00    -0.259 OA
HETATM    4  N2  UNK     1      35.826  -7.710  28.324  1.00  0.00    -0.191 NA
HETATM    5  C1  UNK     1      33.682  -8.694  31.009  1.00  0.00     0.109 C 
HETATM    6  C2  UNK     1      33.359  -8.755  32.491  1.00  0.00     0.066 A 
HETATM    7  C4  UNK     1      33.885  -7.864  33.343  1.00  0.00     0.104 A 
HETATM    8  C5  UNK     1      34.802  -7.703  30.706  1.00  0.00     0.086 C 
HETATM    9  C6  UNK     1      33.558  -7.893  34.766  1.00  0.00     0.033 A 
HETATM   10  C7  UNK     1      35.270  -6.855  31.649  1.00  0.00     0.159 C 
HETATM   11  C8  UNK     1      32.473  -9.844  32.979  1.00  0.00     0.298 A 
HETATM   12  C9  UNK     1      32.696  -8.886  35.223  1.00  0.00     0.092 A 
HETATM   13  C13 UNK     1      34.061  -6.975  35.697  1.00  0.00     0.017 A 
HETATM   14  C15 UNK     1      32.325  -8.986  36.564  1.00  0.00     0.038 A 
HETATM   15  C17 UNK     1      35.367  -7.708  29.390  1.00  0.00     0.100 C 
HETATM   16  C18 UNK     1      33.699  -7.064  37.046  1.00  0.00     0.001 A 
HETATM   17  C19 UNK     1      32.832  -8.068  37.477  1.00  0.00     0.003 A 
ENDROOT
BRANCH   5  18
HETATM   18  C3  UNK     1      32.456  -8.345  30.218  1.00  0.00    -0.041 A 
HETATM   19  C10 UNK     1      31.651  -7.288  30.627  1.00  0.00     0.044 A 
HETATM   20  C12 UNK     1      30.509  -6.965  29.891  1.00  0.00     0.069 A 
HETATM   21  C16 UNK     1      30.182  -7.702  28.753  1.00  0.00     0.037 A 
HETATM   22  C14 UNK     1      30.996  -8.760  28.349  1.00  0.00     0.003 A 
HETATM   23  C11 UNK     1      32.136  -9.084  29.085  1.00  0.00     0.008 A 
BRANCH  20  24
HETATM   24  O3  UNK     1      29.716  -5.931  30.285  1.00  0.00    -0.347 OA
BRANCH  24  25
HETATM   25  C20 UNK     1      30.213  -5.091  31.325  1.00  0.00     0.214 C 
BRANCH  25  26
HETATM   26  C21 UNK     1      29.771  -5.638  32.651  1.00  0.00    -0.034 A 
HETATM   27  C22 UNK     1      28.460  -6.069  32.815  1.00  0.00     0.009 A 
HETATM   28  C24 UNK     1      28.049  -6.577  34.047  1.00  0.00     0.001 A 
HETATM   29  C26 UNK     1      28.952  -6.651  35.108  1.00  0.00     0.000 A 
HETATM   30  C25 UNK     1      30.266  -6.216  34.935  1.00  0.00     0.001 A 
HETATM   31  C23 UNK     1      30.677  -5.708  33.702  1.00  0.00     0.009 A 
ENDBRANCH  25  26
ENDBRANCH  24  25
ENDBRANCH  20  24
ENDBRANCH   5  18
BRANCH  10  32
HETATM   32  N1  UNK     1      36.257  -5.928  31.456  1.00  0.00    -0.379 N 
HETATM   33  H10 UNK     1      36.260  -5.056  31.970  1.00  0.00     0.158 HD
HETATM   34  H9  UNK     1      36.991  -6.128  30.790  1.00  0.00     0.158 HD
ENDBRANCH  10  32
TORSDOF 5
ENDMDL
MODEL 7
REMARK VINA RESULT:      -8.1      2.527      5.822
REMARK  5 active torsions:
REMARK  status: ('A' for Active; 'I' for Inactive)
REMARK    1  A    between atoms: C12_18  and  O3_3 
REMARK    2  A    between atoms: C20_26  and  O3_3 
REMARK    3  A    between atoms: C7_13  and  N1_5 
REMARK    4  A    between atoms: C1_7  and  C3_9 
REMARK    5  A    between atoms: C20_26  and  C21_27 
ROOT
HETATM    1  O1  UNK     1      31.079  -8.511  32.910  1.00  0.00    -0.291 OA
HETATM    2  O2  UNK     1      29.122  -5.119  31.436  1.00  0.00    -0.274 OA
HETATM    3  O4  UNK     1      30.666  -3.784  32.450  1.00  0.00    -0.259 OA
HETATM    4  N2  UNK     1      35.147  -7.174  35.118  1.00  0.00    -0.191 NA
HETATM    5  C1  UNK     1      32.111  -5.946  33.685  1.00  0.00     0.109 C 
HETATM    6  C2  UNK     1      30.908  -6.127  32.779  1.00  0.00     0.066 A 
HETATM    7  C4  UNK     1      30.468  -7.353  32.462  1.00  0.00     0.104 A 
HETATM    8  C5  UNK     1      32.835  -7.264  33.950  1.00  0.00     0.086 C 
HETATM    9  C6  UNK     1      29.293  -7.540  31.616  1.00  0.00     0.033 A 
HETATM   10  C7  UNK     1      32.305  -8.448  33.573  1.00  0.00     0.159 C 
HETATM   11  C8  UNK     1      30.248  -4.915  32.226  1.00  0.00     0.298 A 
HETATM   12  C9  UNK     1      28.646  -6.408  31.129  1.00  0.00     0.092 A 
HETATM   13  C13 UNK     1      28.777  -8.796  31.271  1.00  0.00     0.017 A 
HETATM   14  C15 UNK     1      27.514  -6.492  30.318  1.00  0.00     0.038 A 
HETATM   15  C17 UNK     1      34.112  -7.213  34.595  1.00  0.00     0.100 C 
HETATM   16  C18 UNK     1      27.642  -8.896  30.458  1.00  0.00     0.001 A 
HETATM   17  C19 UNK     1      27.012  -7.746  29.983  1.00  0.00     0.003 A 
ENDROOT
BRANCH   5  18
HETATM   18  C3  UNK     1      31.702  -5.312  34.982  1.00  0.00    -0.041 A 
HETATM   19  C10 UNK     1      30.672  -5.873  35.728  1.00  0.00     0.044 A 
HETATM   20  C12 UNK     1      30.291  -5.282  36.933  1.00  0.00     0.069 A 
HETATM   21  C16 UNK     1      30.944  -4.135  37.384  1.00  0.00     0.037 A 
HETATM   22  C14 UNK     1      31.977  -3.579  36.630  1.00  0.00     0.003 A 
HETATM   23  C11 UNK     1      32.358  -4.169  35.425  1.00  0.00     0.008 A 
BRANCH  20  24
HETATM   24  O3  UNK     1      29.282  -5.826  37.669  1.00  0.00    -0.347 OA
BRANCH  24  25
HETATM   25  C20 UNK     1      28.404  -6.728  36.999  1.00  0.00     0.214 C 
BRANCH  25  26
HETATM   26  C21 UNK     1      28.003  -7.818  37.949  1.00  0.00    -0.034 A 
HETATM   27  C22 UNK     1      26.714  -7.839  38.469  1.00  0.00     0.009 A 
HETATM   28  C24 UNK     1      26.342  -8.852  39.353  1.00  0.00     0.001 A 
HETATM   29  C26 UNK     1      27.262  -9.838  39.712  1.00  0.00     0.000 A 
HETATM   30  C25 UNK     1      28.553  -9.811  39.186  1.00  0.00     0.001 A 
HETATM   31  C23 UNK     1      28.925  -8.797  38.302  1.00  0.00     0.009 A 
ENDBRANCH  25  26
ENDBRANCH  24  25
ENDBRANCH  20  24
ENDBRANCH   5  18
BRANCH  10  32
HETATM   32  N1  UNK     1      32.878  -9.672  33.785  1.00  0.00    -0.379 N 
HETATM   33  H10 UNK     1      33.865  -9.821  33.619  1.00  0.00     0.158 HD
HETATM   34  H9  UNK     1      32.297 -10.432  34.115  1.00  0.00     0.158 HD
ENDBRANCH  10  32
TORSDOF 5
ENDMDL
MODEL 8
REMARK VINA RESULT:      -8.0      3.030      6.568
REMARK  5 active torsions:
REMARK  status: ('A' for Active; 'I' for Inactive)
REMARK    1  A    between atoms: C12_18  and  O3_3 
REMARK    2  A    between atoms: C20_26  and  O3_3 
REMARK    3  A    between atoms: C7_13  and  N1_5 
REMARK    4  A    between atoms: C1_7  and  C3_9 
REMARK    5  A    between atoms: C20_26  and  C21_27 
ROOT
HETATM    1  O1  UNK     1      33.066  -5.623  36.636  1.00  0.00    -0.291 OA
HETATM    2  O2  UNK     1      30.331  -8.665  37.515  1.00  0.00    -0.274 OA
HETATM    3  O4  UNK     1      31.652 -10.171  36.429  1.00  0.00    -0.259 OA
HETATM    4  N2  UNK     1      36.953  -7.532  34.526  1.00  0.00    -0.191 NA
HETATM    5  C1  UNK     1      33.615  -8.239  35.588  1.00  0.00     0.109 C 
HETATM    6  C2  UNK     1      32.398  -7.913  36.433  1.00  0.00     0.066 A 
HETATM    7  C4  UNK     1      32.192  -6.667  36.885  1.00  0.00     0.104 A 
HETATM    8  C5  UNK     1      34.614  -7.087  35.549  1.00  0.00     0.086 C 
HETATM    9  C6  UNK     1      31.010  -6.333  37.673  1.00  0.00     0.033 A 
HETATM   10  C7  UNK     1      34.306  -5.869  36.048  1.00  0.00     0.159 C 
HETATM   11  C8  UNK     1      31.457  -9.012  36.776  1.00  0.00     0.298 A 
HETATM   12  C9  UNK     1      30.103  -7.350  37.963  1.00  0.00     0.092 A 
HETATM   13  C13 UNK     1      30.733  -5.047  38.151  1.00  0.00     0.017 A 
HETATM   14  C15 UNK     1      28.944  -7.121  38.705  1.00  0.00     0.038 A 
HETATM   15  C17 UNK     1      35.906  -7.333  34.984  1.00  0.00     0.100 C 
HETATM   16  C18 UNK     1      29.575  -4.801  38.898  1.00  0.00     0.001 A 
HETATM   17  C19 UNK     1      28.683  -5.838  39.173  1.00  0.00     0.003 A 
ENDROOT
BRANCH   5  18
HETATM   18  C3  UNK     1      33.202  -8.613  34.195  1.00  0.00    -0.041 A 
HETATM   19  C10 UNK     1      32.629  -7.655  33.367  1.00  0.00     0.044 A 
HETATM   20  C12 UNK     1      32.244  -8.003  32.071  1.00  0.00     0.069 A 
HETATM   21  C16 UNK     1      32.435  -9.306  31.614  1.00  0.00     0.037 A 
HETATM   22  C14 UNK     1      33.012 -10.262  32.451  1.00  0.00     0.003 A 
HETATM   23  C11 UNK     1      33.396  -9.914  33.746  1.00  0.00     0.008 A 
BRANCH  20  24
HETATM   24  O3  UNK     1      31.681  -7.070  31.255  1.00  0.00    -0.347 OA
BRANCH  24  25
HETATM   25  C20 UNK     1      31.111  -7.535  30.033  1.00  0.00     0.214 C 
BRANCH  25  26
HETATM   26  C21 UNK     1      29.615  -7.509  30.150  1.00  0.00    -0.034 A 
HETATM   27  C22 UNK     1      28.896  -8.694  30.044  1.00  0.00     0.009 A 
HETATM   28  C24 UNK     1      27.505  -8.670  30.152  1.00  0.00     0.001 A 
HETATM   29  C26 UNK     1      26.843  -7.460  30.367  1.00  0.00     0.000 A 
HETATM   30  C25 UNK     1      27.572  -6.276  30.473  1.00  0.00     0.001 A 
HETATM   31  C23 UNK     1      28.963  -6.301  30.364  1.00  0.00     0.009 A 
ENDBRANCH  25  26
ENDBRANCH  24  25
ENDBRANCH  20  24
ENDBRANCH   5  18
BRANCH  10  32
HETATM   32  N1  UNK     1      35.134  -4.780  36.039  1.00  0.00    -0.379 N 
HETATM   33  H10 UNK     1      35.871  -4.693  35.351  1.00  0.00     0.158 HD
HETATM   34  H9  UNK     1      34.997  -4.057  36.732  1.00  0.00     0.158 HD
ENDBRANCH  10  32
TORSDOF 5
ENDMDL
MODEL 9
REMARK VINA RESULT:      -8.0      2.459      5.431
REMARK  5 active torsions:
REMARK  status: ('A' for Active; 'I' for Inactive)
REMARK    1  A    between atoms: C12_18  and  O3_3 
REMARK    2  A    between atoms: C20_26  and  O3_3 
REMARK    3  A    between atoms: C7_13  and  N1_5 
REMARK    4  A    between atoms: C1_7  and  C3_9 
REMARK    5  A    between atoms: C20_26  and  C21_27 
ROOT
HETATM    1  O1  UNK     1      32.903  -5.055  35.688  1.00  0.00    -0.291 OA
HETATM    2  O2  UNK     1      30.835  -7.979  37.851  1.00  0.00    -0.274 OA
HETATM    3  O4  UNK     1      32.172  -9.593  36.955  1.00  0.00    -0.259 OA
HETATM    4  N2  UNK     1      36.636  -7.089  33.421  1.00  0.00    -0.191 NA
HETATM    5  C1  UNK     1      33.660  -7.794  35.269  1.00  0.00     0.109 C 
HETATM    6  C2  UNK     1      32.562  -7.363  36.224  1.00  0.00     0.066 A 
HETATM    7  C4  UNK     1      32.249  -6.067  36.367  1.00  0.00     0.104 A 
HETATM    8  C5  UNK     1      34.455  -6.606  34.735  1.00  0.00     0.086 C 
HETATM    9  C6  UNK     1      31.174  -5.643  37.260  1.00  0.00     0.033 A 
HETATM   10  C7  UNK     1      34.054  -5.333  34.951  1.00  0.00     0.159 C 
HETATM   11  C8  UNK     1      31.865  -8.408  37.020  1.00  0.00     0.298 A 
HETATM   12  C9  UNK     1      30.489  -6.620  37.977  1.00  0.00     0.092 A 
HETATM   13  C13 UNK     1      30.790  -4.307  37.432  1.00  0.00     0.017 A 
HETATM   14  C15 UNK     1      29.446  -6.306  38.848  1.00  0.00     0.038 A 
HETATM   15  C17 UNK     1      35.660  -6.873  34.009  1.00  0.00     0.100 C 
HETATM   16  C18 UNK     1      29.746  -3.976  38.302  1.00  0.00     0.001 A 
HETATM   17  C19 UNK     1      29.075  -4.975  39.009  1.00  0.00     0.003 A 
ENDROOT
BRANCH   5  18
HETATM   18  C3  UNK     1      33.086  -8.585  34.131  1.00  0.00    -0.041 A 
HETATM   19  C10 UNK     1      32.020  -8.070  33.403  1.00  0.00     0.044 A 
HETATM   20  C12 UNK     1      31.486  -8.808  32.346  1.00  0.00     0.069 A 
HETATM   21  C16 UNK     1      32.022 -10.054  32.024  1.00  0.00     0.037 A 
HETATM   22  C14 UNK     1      33.092 -10.564  32.759  1.00  0.00     0.003 A 
HETATM   23  C11 UNK     1      33.626  -9.827  33.817  1.00  0.00     0.008 A 
BRANCH  20  24
HETATM   24  O3  UNK     1      30.441  -8.309  31.628  1.00  0.00    -0.347 OA
BRANCH  24  25
HETATM   25  C20 UNK     1      29.157  -8.883  31.866  1.00  0.00     0.214 C 
BRANCH  25  26
HETATM   26  C21 UNK     1      28.743  -8.588  33.278  1.00  0.00    -0.034 A 
HETATM   27  C22 UNK     1      28.648  -9.625  34.199  1.00  0.00     0.009 A 
HETATM   28  C24 UNK     1      28.263  -9.351  35.511  1.00  0.00     0.001 A 
HETATM   29  C26 UNK     1      27.976  -8.040  35.894  1.00  0.00     0.000 A 
HETATM   30  C25 UNK     1      28.074  -7.005  34.965  1.00  0.00     0.001 A 
HETATM   31  C23 UNK     1      28.459  -7.280  33.652  1.00  0.00     0.009 A 
ENDBRANCH  25  26
ENDBRANCH  24  25
ENDBRANCH  20  24
ENDBRANCH   5  18
BRANCH  10  32
HETATM   32  N1  UNK     1      34.698  -4.216  34.495  1.00  0.00    -0.379 N 
HETATM   33  H10 UNK     1      35.254  -4.243  33.650  1.00  0.00     0.158 HD
HETATM   34  H9  UNK     1      34.607  -3.353  35.016  1.00  0.00     0.158 HD
ENDBRANCH  10  32
TORSDOF 5
ENDMDL
MODEL 10
REMARK VINA RESULT:      -8.0      3.546      6.062
REMARK  5 active torsions:
REMARK  status: ('A' for Active; 'I' for Inactive)
REMARK    1  A    between atoms: C12_18  and  O3_3 
REMARK    2  A    between atoms: C20_26  and  O3_3 
REMARK    3  A    between atoms: C7_13  and  N1_5 
REMARK    4  A    between atoms: C1_7  and  C3_9 
REMARK    5  A    between atoms: C20_26  and  C21_27 
ROOT
HETATM    1  O1  UNK     1      34.532  -6.163  33.107  1.00  0.00    -0.291 OA
HETATM    2  O2  UNK     1      31.260  -7.815  35.125  1.00  0.00    -0.274 OA
HETATM    3  O4  UNK     1      31.523  -9.759  33.965  1.00  0.00    -0.259 OA
HETATM    4  N2  UNK     1      36.581  -9.543  30.352  1.00  0.00    -0.191 NA
HETATM    5  C1  UNK     1      33.713  -8.810  32.355  1.00  0.00     0.109 C 
HETATM    6  C2  UNK     1      33.026  -7.995  33.434  1.00  0.00     0.066 A 
HETATM    7  C4  UNK     1      33.450  -6.758  33.732  1.00  0.00     0.104 A 
HETATM    8  C5  UNK     1      35.009  -8.160  31.880  1.00  0.00     0.086 C 
HETATM    9  C6  UNK     1      32.779  -5.951  34.746  1.00  0.00     0.033 A 
HETATM   10  C7  UNK     1      35.349  -6.906  32.255  1.00  0.00     0.159 C 
HETATM   11  C8  UNK     1      31.893  -8.609  34.175  1.00  0.00     0.298 A 
HETATM   12  C9  UNK     1      31.691  -6.506  35.414  1.00  0.00     0.092 A 
HETATM   13  C13 UNK     1      33.165  -4.647  35.082  1.00  0.00     0.017 A 
HETATM   14  C15 UNK     1      30.986  -5.806  36.394  1.00  0.00     0.038 A 
HETATM   15  C17 UNK     1      35.877  -8.924  31.037  1.00  0.00     0.100 C 
HETATM   16  C18 UNK     1      32.469  -3.933  36.064  1.00  0.00     0.001 A 
HETATM   17  C19 UNK     1      31.381  -4.512  36.718  1.00  0.00     0.003 A 
ENDROOT
BRANCH   5  18
HETATM   18  C3  UNK     1      32.790  -9.029  31.193  1.00  0.00    -0.041 A 
HETATM   19  C10 UNK     1      32.181  -7.939  30.583  1.00  0.00     0.044 A 
HETATM   20  C12 UNK     1      31.321  -8.144  29.503  1.00  0.00     0.069 A 
HETATM   21  C16 UNK     1      31.076  -9.436  29.042  1.00  0.00     0.037 A 
HETATM   22  C14 UNK     1      31.692 -10.526  29.659  1.00  0.00     0.003 A 
HETATM   23  C11 UNK     1      32.551 -10.321  30.739  1.00  0.00     0.008 A 
BRANCH  20  24
HETATM   24  O3  UNK     1      30.721  -7.080  28.901  1.00  0.00    -0.347 OA
BRANCH  24  25
HETATM   25  C20 UNK     1      30.641  -5.869  29.650  1.00  0.00     0.214 C 
BRANCH  25  26
HETATM   26  C21 UNK     1      29.577  -6.011  30.698  1.00  0.00    -0.034 A 
HETATM   27  C22 UNK     1      29.879  -5.739  32.027  1.00  0.00     0.009 A 
HETATM   28  C24 UNK     1      28.889  -5.871  33.002  1.00  0.00     0.001 A 
HETATM   29  C26 UNK     1      27.603  -6.275  32.640  1.00  0.00     0.000 A 
HETATM   30  C25 UNK     1      27.308  -6.546  31.305  1.00  0.00     0.001 A 
HETATM   31  C23 UNK     1      28.298  -6.414  30.330  1.00  0.00     0.009 A 
ENDBRANCH  25  26
ENDBRANCH  24  25
ENDBRANCH  20  24
ENDBRANCH   5  18
BRANCH  10  32
HETATM   32  N1  UNK     1      36.480  -6.245  31.864  1.00  0.00    -0.379 N 
HETATM   33  H10 UNK     1      36.781  -5.403  32.337  1.00  0.00     0.158 HD
HETATM   34  H9  UNK     1      37.018  -6.614  31.090  1.00  0.00     0.158 HD
ENDBRANCH  10  32
TORSDOF 5
ENDMDL
