MODEL 1
REMARK VINA RESULT:      -8.4      0.000      0.000
REMARK  1 active torsions:
REMARK  status: ('A' for Active; 'I' for Inactive)
REMARK    1  A    between atoms: C9_16  and  N2_6 
ROOT
HETATM    1  O1  UNK     1      30.366  -5.654  34.218  1.00  0.00    -0.291 OA
HETATM    2  O2  UNK     1      28.123  -8.990  33.088  1.00  0.00    -0.274 OA
HETATM    3  O3  UNK     1      32.086  -9.211  35.537  1.00  0.00    -0.271 OA
HETATM    4  O4  UNK     1      28.557 -10.001  35.072  1.00  0.00    -0.259 OA
HETATM    5  N1  UNK     1      30.719  -9.729  37.375  1.00  0.00    -0.325 N 
HETATM    6  N3  UNK     1      32.246  -6.203  38.606  1.00  0.00    -0.191 NA
HETATM    7  C1  UNK     1      30.148  -7.776  36.138  1.00  0.00     0.147 A 
HETATM    8  C2  UNK     1      29.184  -8.040  37.276  1.00  0.00    -0.003 A 
HETATM    9  C3  UNK     1      29.497  -7.823  34.764  1.00  0.00     0.080 A 
HETATM   10  C4  UNK     1      31.133  -8.978  36.265  1.00  0.00     0.246 A 
HETATM   11  C5  UNK     1      30.967  -6.505  36.368  1.00  0.00     0.100 A 
HETATM   12  C6  UNK     1      29.580  -9.186  37.966  1.00  0.00     0.043 A 
HETATM   13  C7  UNK     1      29.639  -6.790  33.916  1.00  0.00     0.105 A 
HETATM   14  C8  UNK     1      28.062  -7.333  37.676  1.00  0.00     0.011 A 
HETATM   15  C9  UNK     1      31.034  -5.534  35.430  1.00  0.00     0.160 A 
HETATM   16  C10 UNK     1      28.705  -9.020  34.351  1.00  0.00     0.299 A 
HETATM   17  C11 UNK     1      29.022  -6.793  32.591  1.00  0.00     0.033 A 
HETATM   18  C12 UNK     1      28.894  -9.669  39.061  1.00  0.00     0.030 A 
HETATM   19  C13 UNK     1      28.275  -7.901  32.214  1.00  0.00     0.092 A 
HETATM   20  C14 UNK     1      27.350  -7.803  38.784  1.00  0.00     0.001 A 
HETATM   21  C15 UNK     1      27.763  -8.961  39.470  1.00  0.00     0.002 A 
HETATM   22  C16 UNK     1      31.674  -6.338  37.606  1.00  0.00     0.101 C 
HETATM   23  C17 UNK     1      29.141  -5.737  31.677  1.00  0.00     0.017 A 
HETATM   24  C18 UNK     1      27.649  -7.989  30.970  1.00  0.00     0.038 A 
HETATM   25  C19 UNK     1      28.520  -5.809  30.426  1.00  0.00     0.001 A 
HETATM   26  C20 UNK     1      27.774  -6.933  30.073  1.00  0.00     0.003 A 
HETATM   27  H1  UNK     1      31.174 -10.570  37.708  1.00  0.00     0.169 HD
ENDROOT
BRANCH  15  28
HETATM   28  N2  UNK     1      31.736  -4.366  35.551  1.00  0.00    -0.379 N 
HETATM   29  H7  UNK     1      31.541  -3.611  34.908  1.00  0.00     0.158 HD
HETATM   30  H8  UNK     1      32.439  -4.252  36.272  1.00  0.00     0.158 HD
ENDBRANCH  15  28
TORSDOF 1
ENDMDL
MODEL 2
REMARK VINA RESULT:      -8.4      2.047      2.568
REMARK  1 active torsions:
REMARK  status: ('A' for Active; 'I' for Inactive)
REMARK    1  A    between atoms: C9_16  and  N2_6 
ROOT
HETATM    1  O1  UNK     1      31.847  -7.270  33.499  1.00  0.00    -0.291 OA
HETATM    2  O2  UNK     1      27.706  -6.737  33.457  1.00  0.00    -0.274 OA
HETATM    3  O3  UNK     1      29.953  -9.526  36.444  1.00  0.00    -0.271 OA
HETATM    4  O4  UNK     1      27.636  -6.804  35.723  1.00  0.00    -0.259 OA
HETATM    5  N1  UNK     1      29.492  -7.882  38.056  1.00  0.00    -0.325 N 
HETATM    6  N3  UNK     1      33.521  -7.685  37.984  1.00  0.00    -0.191 NA
HETATM    7  C1  UNK     1      30.534  -7.142  36.047  1.00  0.00     0.147 A 
HETATM    8  C2  UNK     1      30.247  -6.002  37.002  1.00  0.00    -0.003 A 
HETATM    9  C3  UNK     1      29.797  -7.028  34.722  1.00  0.00     0.080 A 
HETATM   10  C4  UNK     1      29.968  -8.367  36.830  1.00  0.00     0.246 A 
HETATM   11  C5  UNK     1      32.035  -7.380  35.878  1.00  0.00     0.100 A 
HETATM   12  C6  UNK     1      29.650  -6.502  38.160  1.00  0.00     0.043 A 
HETATM   13  C7  UNK     1      30.478  -7.094  33.566  1.00  0.00     0.105 A 
HETATM   14  C8  UNK     1      30.494  -4.646  36.871  1.00  0.00     0.011 A 
HETATM   15  C9  UNK     1      32.604  -7.429  34.653  1.00  0.00     0.160 A 
HETATM   16  C10 UNK     1      28.314  -6.851  34.702  1.00  0.00     0.299 A 
HETATM   17  C11 UNK     1      29.808  -6.980  32.271  1.00  0.00     0.033 A 
HETATM   18  C12 UNK     1      29.282  -5.694  39.215  1.00  0.00     0.030 A 
HETATM   19  C13 UNK     1      28.430  -6.801  32.255  1.00  0.00     0.092 A 
HETATM   20  C14 UNK     1      30.129  -3.806  37.927  1.00  0.00     0.001 A 
HETATM   21  C15 UNK     1      29.528  -4.326  39.089  1.00  0.00     0.002 A 
HETATM   22  C16 UNK     1      32.857  -7.549  37.043  1.00  0.00     0.101 C 
HETATM   23  C17 UNK     1      30.478  -7.039  31.042  1.00  0.00     0.017 A 
HETATM   24  C18 UNK     1      27.709  -6.681  31.068  1.00  0.00     0.038 A 
HETATM   25  C19 UNK     1      29.770  -6.920  29.841  1.00  0.00     0.001 A 
HETATM   26  C20 UNK     1      28.388  -6.740  29.854  1.00  0.00     0.003 A 
HETATM   27  H1  UNK     1      29.070  -8.452  38.781  1.00  0.00     0.169 HD
ENDROOT
BRANCH  15  28
HETATM   28  N2  UNK     1      33.935  -7.631  34.408  1.00  0.00    -0.379 N 
HETATM   29  H7  UNK     1      34.228  -8.510  34.003  1.00  0.00     0.158 HD
HETATM   30  H8  UNK     1      34.620  -6.917  34.624  1.00  0.00     0.158 HD
ENDBRANCH  15  28
TORSDOF 1
ENDMDL
MODEL 3
REMARK VINA RESULT:      -8.3      2.733      4.855
REMARK  1 active torsions:
REMARK  status: ('A' for Active; 'I' for Inactive)
REMARK    1  A    between atoms: C9_16  and  N2_6 
ROOT
HETATM    1  O1  UNK     1      31.507  -9.728  33.183  1.00  0.00    -0.291 OA
HETATM    2  O2  UNK     1      30.325  -6.517  30.790  1.00  0.00    -0.274 OA
HETATM    3  O3  UNK     1      29.105  -7.035  35.262  1.00  0.00    -0.271 OA
HETATM    4  O4  UNK     1      30.544  -5.086  32.537  1.00  0.00    -0.259 OA
HETATM    5  N1  UNK     1      30.628  -5.302  35.699  1.00  0.00    -0.325 N 
HETATM    6  N3  UNK     1      32.412  -8.325  37.689  1.00  0.00    -0.191 NA
HETATM    7  C1  UNK     1      31.443  -7.144  34.428  1.00  0.00     0.147 A 
HETATM    8  C2  UNK     1      32.491  -6.067  34.620  1.00  0.00    -0.003 A 
HETATM    9  C3  UNK     1      31.071  -7.378  32.972  1.00  0.00     0.080 A 
HETATM   10  C4  UNK     1      30.213  -6.531  35.165  1.00  0.00     0.246 A 
HETATM   11  C5  UNK     1      31.807  -8.432  35.167  1.00  0.00     0.100 A 
HETATM   12  C6  UNK     1      31.956  -5.026  35.381  1.00  0.00     0.043 A 
HETATM   13  C7  UNK     1      31.127  -8.617  32.455  1.00  0.00     0.105 A 
HETATM   14  C8  UNK     1      33.801  -6.008  34.175  1.00  0.00     0.011 A 
HETATM   15  C9  UNK     1      31.824  -9.625  34.532  1.00  0.00     0.160 A 
HETATM   16  C10 UNK     1      30.635  -6.234  32.116  1.00  0.00     0.299 A 
HETATM   17  C11 UNK     1      30.786  -8.883  31.058  1.00  0.00     0.033 A 
HETATM   18  C12 UNK     1      32.684  -3.907  35.725  1.00  0.00     0.030 A 
HETATM   19  C13 UNK     1      30.394  -7.816  30.260  1.00  0.00     0.092 A 
HETATM   20  C14 UNK     1      34.560  -4.882  34.511  1.00  0.00     0.001 A 
HETATM   21  C15 UNK     1      34.005  -3.841  35.279  1.00  0.00     0.002 A 
HETATM   22  C16 UNK     1      32.142  -8.373  36.562  1.00  0.00     0.101 C 
HETATM   23  C17 UNK     1      30.834 -10.157  30.476  1.00  0.00     0.017 A 
HETATM   24  C18 UNK     1      30.052  -7.976  28.918  1.00  0.00     0.038 A 
HETATM   25  C19 UNK     1      30.495 -10.335  29.131  1.00  0.00     0.001 A 
HETATM   26  C20 UNK     1      30.106  -9.247  28.352  1.00  0.00     0.003 A 
HETATM   27  H1  UNK     1      30.042  -4.677  36.239  1.00  0.00     0.169 HD
ENDROOT
BRANCH  15  28
HETATM   28  N2  UNK     1      32.141 -10.823  35.110  1.00  0.00    -0.379 N 
HETATM   29  H7  UNK     1      32.767 -10.831  35.904  1.00  0.00     0.158 HD
HETATM   30  H8  UNK     1      31.758 -11.691  34.756  1.00  0.00     0.158 HD
ENDBRANCH  15  28
TORSDOF 1
ENDMDL
MODEL 4
REMARK VINA RESULT:      -8.2      3.600      4.986
REMARK  1 active torsions:
REMARK  status: ('A' for Active; 'I' for Inactive)
REMARK    1  A    between atoms: C9_16  and  N2_6 
ROOT
HETATM    1  O1  UNK     1      32.058  -7.227  30.622  1.00  0.00    -0.291 OA
HETATM    2  O2  UNK     1      29.430  -7.073  33.863  1.00  0.00    -0.274 OA
HETATM    3  O3  UNK     1      33.001 -10.053  33.532  1.00  0.00    -0.271 OA
HETATM    4  O4  UNK     1      31.131  -7.478  35.309  1.00  0.00    -0.259 OA
HETATM    5  N1  UNK     1      34.046  -8.713  35.153  1.00  0.00    -0.325 N 
HETATM    6  N3  UNK     1      36.555  -8.142  32.046  1.00  0.00    -0.191 NA
HETATM    7  C1  UNK     1      33.198  -7.595  33.229  1.00  0.00     0.147 A 
HETATM    8  C2  UNK     1      33.817  -6.637  34.227  1.00  0.00    -0.003 A 
HETATM    9  C3  UNK     1      31.715  -7.355  32.993  1.00  0.00     0.080 A 
HETATM   10  C4  UNK     1      33.374  -8.967  33.949  1.00  0.00     0.246 A 
HETATM   11  C5  UNK     1      34.006  -7.667  31.932  1.00  0.00     0.100 A 
HETATM   12  C6  UNK     1      34.303  -7.355  35.320  1.00  0.00     0.043 A 
HETATM   13  C7  UNK     1      31.251  -7.189  31.743  1.00  0.00     0.105 A 
HETATM   14  C8  UNK     1      33.949  -5.260  34.177  1.00  0.00     0.011 A 
HETATM   15  C9  UNK     1      33.419  -7.484  30.729  1.00  0.00     0.160 A 
HETATM   16  C10 UNK     1      30.770  -7.312  34.149  1.00  0.00     0.299 A 
HETATM   17  C11 UNK     1      29.834  -6.947  31.475  1.00  0.00     0.033 A 
HETATM   18  C12 UNK     1      34.930  -6.746  36.389  1.00  0.00     0.030 A 
HETATM   19  C13 UNK     1      28.959  -6.894  32.552  1.00  0.00     0.092 A 
HETATM   20  C14 UNK     1      34.580  -4.621  35.248  1.00  0.00     0.001 A 
HETATM   21  C15 UNK     1      35.066  -5.358  36.344  1.00  0.00     0.002 A 
HETATM   22  C16 UNK     1      35.416  -7.930  31.995  1.00  0.00     0.101 C 
HETATM   23  C17 UNK     1      29.308  -6.764  30.190  1.00  0.00     0.017 A 
HETATM   24  C18 UNK     1      27.593  -6.667  32.390  1.00  0.00     0.038 A 
HETATM   25  C19 UNK     1      27.939  -6.535  30.009  1.00  0.00     0.001 A 
HETATM   26  C20 UNK     1      27.083  -6.485  31.108  1.00  0.00     0.003 A 
HETATM   27  H1  UNK     1      34.305  -9.419  35.832  1.00  0.00     0.169 HD
ENDROOT
BRANCH  15  28
HETATM   28  N2  UNK     1      34.062  -7.526  29.522  1.00  0.00    -0.379 N 
HETATM   29  H7  UNK     1      34.852  -8.147  29.412  1.00  0.00     0.158 HD
HETATM   30  H8  UNK     1      33.756  -6.949  28.747  1.00  0.00     0.158 HD
ENDBRANCH  15  28
TORSDOF 1
ENDMDL
MODEL 5
REMARK VINA RESULT:      -8.2      2.147      3.773
REMARK  1 active torsions:
REMARK  status: ('A' for Active; 'I' for Inactive)
REMARK    1  A    between atoms: C9_16  and  N2_6 
ROOT
HETATM    1  O1  UNK     1      30.597 -10.376  33.589  1.00  0.00    -0.291 OA
HETATM    2  O2  UNK     1      28.026  -7.465  32.055  1.00  0.00    -0.274 OA
HETATM    3  O3  UNK     1      27.505  -9.476  36.230  1.00  0.00    -0.271 OA
HETATM    4  O4  UNK     1      27.803  -6.526  34.108  1.00  0.00    -0.259 OA
HETATM    5  N1  UNK     1      28.238  -7.428  37.115  1.00  0.00    -0.325 N 
HETATM    6  N3  UNK     1      31.247  -9.831  38.318  1.00  0.00    -0.191 NA
HETATM    7  C1  UNK     1      29.610  -8.418  35.440  1.00  0.00     0.147 A 
HETATM    8  C2  UNK     1      30.151  -7.085  35.915  1.00  0.00    -0.003 A 
HETATM    9  C3  UNK     1      29.239  -8.433  33.965  1.00  0.00     0.080 A 
HETATM   10  C4  UNK     1      28.306  -8.555  36.284  1.00  0.00     0.246 A 
HETATM   11  C5  UNK     1      30.522  -9.578  35.839  1.00  0.00     0.100 A 
HETATM   12  C6  UNK     1      29.311  -6.567  36.901  1.00  0.00     0.043 A 
HETATM   13  C7  UNK     1      29.742  -9.380  33.155  1.00  0.00     0.105 A 
HETATM   14  C8  UNK     1      31.284  -6.392  35.523  1.00  0.00     0.011 A 
HETATM   15  C9  UNK     1      30.961 -10.473  34.926  1.00  0.00     0.160 A 
HETATM   16  C10 UNK     1      28.310  -7.402  33.415  1.00  0.00     0.299 A 
HETATM   17  C11 UNK     1      29.417  -9.425  31.730  1.00  0.00     0.033 A 
HETATM   18  C12 UNK     1      29.557  -5.362  37.529  1.00  0.00     0.030 A 
HETATM   19  C13 UNK     1      28.564  -8.457  31.217  1.00  0.00     0.092 A 
HETATM   20  C14 UNK     1      31.554  -5.168  36.145  1.00  0.00     0.001 A 
HETATM   21  C15 UNK     1      30.697  -4.659  37.138  1.00  0.00     0.002 A 
HETATM   22  C16 UNK     1      30.924  -9.718  37.211  1.00  0.00     0.101 C 
HETATM   23  C17 UNK     1      29.922 -10.390  30.849  1.00  0.00     0.017 A 
HETATM   24  C18 UNK     1      28.201  -8.421  29.871  1.00  0.00     0.038 A 
HETATM   25  C19 UNK     1      29.569 -10.369  29.495  1.00  0.00     0.001 A 
HETATM   26  C20 UNK     1      28.710  -9.386  29.007  1.00  0.00     0.003 A 
HETATM   27  H1  UNK     1      27.499  -7.245  37.784  1.00  0.00     0.169 HD
ENDROOT
BRANCH  15  28
HETATM   28  N2  UNK     1      31.780 -11.536  35.192  1.00  0.00    -0.379 N 
HETATM   29  H7  UNK     1      31.830 -12.292  34.523  1.00  0.00     0.158 HD
HETATM   30  H8  UNK     1      32.331 -11.571  36.041  1.00  0.00     0.158 HD
ENDBRANCH  15  28
TORSDOF 1
ENDMDL
MODEL 6
REMARK VINA RESULT:      -8.2      4.036      6.746
REMARK  1 active torsions:
REMARK  status: ('A' for Active; 'I' for Inactive)
REMARK    1  A    between atoms: C9_16  and  N2_6 
ROOT
HETATM    1  O1  UNK     1      31.132  -5.309  32.846  1.00  0.00    -0.291 OA
HETATM    2  O2  UNK     1      33.137  -8.852  33.771  1.00  0.00    -0.274 OA
HETATM    3  O3  UNK     1      28.502  -8.490  33.406  1.00  0.00    -0.271 OA
HETATM    4  O4  UNK     1      31.675 -10.051  32.518  1.00  0.00    -0.259 OA
HETATM    5  N1  UNK     1      28.744  -9.649  31.378  1.00  0.00    -0.325 N 
HETATM    6  N3  UNK     1      27.339  -6.124  30.009  1.00  0.00    -0.191 NA
HETATM    7  C1  UNK     1      30.107  -7.718  31.672  1.00  0.00     0.147 A 
HETATM    8  C2  UNK     1      30.367  -8.412  30.351  1.00  0.00    -0.003 A 
HETATM    9  C3  UNK     1      31.316  -7.688  32.593  1.00  0.00     0.080 A 
HETATM   10  C4  UNK     1      29.019  -8.636  32.308  1.00  0.00     0.246 A 
HETATM   11  C5  UNK     1      29.468  -6.342  31.477  1.00  0.00     0.100 A 
HETATM   12  C6  UNK     1      29.531  -9.524  30.236  1.00  0.00     0.043 A 
HETATM   13  C7  UNK     1      31.743  -6.521  33.105  1.00  0.00     0.105 A 
HETATM   14  C8  UNK     1      31.252  -8.092  29.335  1.00  0.00     0.011 A 
HETATM   15  C9  UNK     1      29.993  -5.238  32.052  1.00  0.00     0.160 A 
HETATM   16  C10 UNK     1      32.029  -8.955  32.937  1.00  0.00     0.299 A 
HETATM   17  C11 UNK     1      32.907  -6.447  33.986  1.00  0.00     0.033 A 
HETATM   18  C12 UNK     1      29.538 -10.348  29.129  1.00  0.00     0.030 A 
HETATM   19  C13 UNK     1      33.577  -7.625  34.294  1.00  0.00     0.092 A 
HETATM   20  C14 UNK     1      31.279  -8.913  28.203  1.00  0.00     0.001 A 
HETATM   21  C15 UNK     1      30.429 -10.031  28.102  1.00  0.00     0.002 A 
HETATM   22  C16 UNK     1      28.291  -6.221  30.665  1.00  0.00     0.101 C 
HETATM   23  C17 UNK     1      33.389  -5.253  34.538  1.00  0.00     0.017 A 
HETATM   24  C18 UNK     1      34.697  -7.649  35.124  1.00  0.00     0.038 A 
HETATM   25  C19 UNK     1      34.511  -5.259  35.373  1.00  0.00     0.001 A 
HETATM   26  C20 UNK     1      35.165  -6.455  35.665  1.00  0.00     0.003 A 
HETATM   27  H1  UNK     1      28.070 -10.393  31.513  1.00  0.00     0.169 HD
ENDROOT
BRANCH  15  28
HETATM   28  N2  UNK     1      29.493  -3.970  31.929  1.00  0.00    -0.379 N 
HETATM   29  H7  UNK     1      29.215  -3.472  32.764  1.00  0.00     0.158 HD
HETATM   30  H8  UNK     1      29.402  -3.531  31.021  1.00  0.00     0.158 HD
ENDBRANCH  15  28
TORSDOF 1
ENDMDL
MODEL 7
REMARK VINA RESULT:      -8.2      3.415      6.884
REMARK  1 active torsions:
REMARK  status: ('A' for Active; 'I' for Inactive)
REMARK    1  A    between atoms: C9_16  and  N2_6 
ROOT
HETATM    1  O1  UNK     1      32.875  -9.695  34.454  1.00  0.00    -0.291 OA
HETATM    2  O2  UNK     1      31.133  -5.916  34.802  1.00  0.00    -0.274 OA
HETATM    3  O3  UNK     1      34.050  -7.145  31.377  1.00  0.00    -0.271 OA
HETATM    4  O4  UNK     1      30.877  -5.785  32.552  1.00  0.00    -0.259 OA
HETATM    5  N1  UNK     1      32.146  -7.177  30.002  1.00  0.00    -0.325 N 
HETATM    6  N3  UNK     1      33.180 -11.074  29.861  1.00  0.00    -0.191 NA
HETATM    7  C1  UNK     1      32.025  -8.434  32.021  1.00  0.00     0.147 A 
HETATM    8  C2  UNK     1      30.735  -8.490  31.228  1.00  0.00    -0.003 A 
HETATM    9  C3  UNK     1      31.870  -7.793  33.391  1.00  0.00     0.080 A 
HETATM   10  C4  UNK     1      32.908  -7.506  31.132  1.00  0.00     0.246 A 
HETATM   11  C5  UNK     1      32.722  -9.794  32.072  1.00  0.00     0.100 A 
HETATM   12  C6  UNK     1      30.876  -7.746  30.055  1.00  0.00     0.043 A 
HETATM   13  C7  UNK     1      32.289  -8.444  34.489  1.00  0.00     0.105 A 
HETATM   14  C8  UNK     1      29.546  -9.142  31.505  1.00  0.00     0.011 A 
HETATM   15  C9  UNK     1      33.100 -10.345  33.247  1.00  0.00     0.160 A 
HETATM   16  C10 UNK     1      31.259  -6.436  33.519  1.00  0.00     0.299 A 
HETATM   17  C11 UNK     1      32.150  -7.866  35.825  1.00  0.00     0.033 A 
HETATM   18  C12 UNK     1      29.863  -7.622  29.127  1.00  0.00     0.030 A 
HETATM   19  C13 UNK     1      31.570  -6.610  35.943  1.00  0.00     0.092 A 
HETATM   20  C14 UNK     1      28.503  -9.031  30.579  1.00  0.00     0.001 A 
HETATM   21  C15 UNK     1      28.661  -8.277  29.401  1.00  0.00     0.002 A 
HETATM   22  C16 UNK     1      32.975 -10.502  30.849  1.00  0.00     0.101 C 
HETATM   23  C17 UNK     1      32.569  -8.510  36.997  1.00  0.00     0.017 A 
HETATM   24  C18 UNK     1      31.396  -5.983  37.177  1.00  0.00     0.038 A 
HETATM   25  C19 UNK     1      32.401  -7.896  38.243  1.00  0.00     0.001 A 
HETATM   26  C20 UNK     1      31.815  -6.635  38.333  1.00  0.00     0.003 A 
HETATM   27  H1  UNK     1      32.463  -6.587  29.241  1.00  0.00     0.169 HD
ENDROOT
BRANCH  15  28
HETATM   28  N2  UNK     1      33.723 -11.555  33.388  1.00  0.00    -0.379 N 
HETATM   29  H7  UNK     1      33.271 -12.381  33.020  1.00  0.00     0.158 HD
HETATM   30  H8  UNK     1      34.622 -11.629  33.849  1.00  0.00     0.158 HD
ENDBRANCH  15  28
TORSDOF 1
ENDMDL
MODEL 8
REMARK VINA RESULT:      -8.1      2.413      5.699
REMARK  1 active torsions:
REMARK  status: ('A' for Active; 'I' for Inactive)
REMARK    1  A    between atoms: C9_16  and  N2_6 
ROOT
HETATM    1  O1  UNK     1      28.001  -7.125  35.227  1.00  0.00    -0.291 OA
HETATM    2  O2  UNK     1      30.608  -9.112  37.813  1.00  0.00    -0.274 OA
HETATM    3  O3  UNK     1      31.094  -9.015  33.176  1.00  0.00    -0.271 OA
HETATM    4  O4  UNK     1      32.388  -8.504  36.546  1.00  0.00    -0.259 OA
HETATM    5  N1  UNK     1      32.876  -7.536  33.567  1.00  0.00    -0.325 N 
HETATM    6  N3  UNK     1      30.362  -5.095  31.568  1.00  0.00    -0.191 NA
HETATM    7  C1  UNK     1      30.796  -6.996  34.595  1.00  0.00     0.147 A 
HETATM    8  C2  UNK     1      31.886  -6.002  34.940  1.00  0.00    -0.003 A 
HETATM    9  C3  UNK     1      30.248  -7.742  35.801  1.00  0.00     0.080 A 
HETATM   10  C4  UNK     1      31.561  -8.008  33.688  1.00  0.00     0.246 A 
HETATM   11  C5  UNK     1      29.702  -6.365  33.732  1.00  0.00     0.100 A 
HETATM   12  C6  UNK     1      33.070  -6.367  34.299  1.00  0.00     0.043 A 
HETATM   13  C7  UNK     1      28.925  -7.757  36.037  1.00  0.00     0.105 A 
HETATM   14  C8  UNK     1      31.841  -4.872  35.740  1.00  0.00     0.011 A 
HETATM   15  C9  UNK     1      28.399  -6.454  34.078  1.00  0.00     0.160 A 
HETATM   16  C10 UNK     1      31.175  -8.465  36.721  1.00  0.00     0.299 A 
HETATM   17  C11 UNK     1      28.358  -8.455  37.190  1.00  0.00     0.033 A 
HETATM   18  C12 UNK     1      34.236  -5.640  34.421  1.00  0.00     0.030 A 
HETATM   19  C13 UNK     1      29.224  -9.115  38.053  1.00  0.00     0.092 A 
HETATM   20  C14 UNK     1      33.011  -4.118  35.879  1.00  0.00     0.001 A 
HETATM   21  C15 UNK     1      34.198  -4.500  35.226  1.00  0.00     0.002 A 
HETATM   22  C16 UNK     1      30.067  -5.662  32.535  1.00  0.00     0.101 C 
HETATM   23  C17 UNK     1      26.987  -8.493  37.478  1.00  0.00     0.017 A 
HETATM   24  C18 UNK     1      28.772  -9.804  39.178  1.00  0.00     0.038 A 
HETATM   25  C19 UNK     1      26.516  -9.180  38.602  1.00  0.00     0.001 A 
HETATM   26  C20 UNK     1      27.408  -9.834  39.451  1.00  0.00     0.003 A 
HETATM   27  H1  UNK     1      33.607  -7.987  33.029  1.00  0.00     0.169 HD
ENDROOT
BRANCH  15  28
HETATM   28  N2  UNK     1      27.356  -5.918  33.371  1.00  0.00    -0.379 N 
HETATM   29  H7  UNK     1      26.521  -6.472  33.240  1.00  0.00     0.158 HD
HETATM   30  H8  UNK     1      27.413  -4.983  32.985  1.00  0.00     0.158 HD
ENDBRANCH  15  28
TORSDOF 1
ENDMDL
MODEL 9
REMARK VINA RESULT:      -8.1      2.114      4.571
REMARK  1 active torsions:
REMARK  status: ('A' for Active; 'I' for Inactive)
REMARK    1  A    between atoms: C9_16  and  N2_6 
ROOT
HETATM    1  O1  UNK     1      29.329  -8.266  34.545  1.00  0.00    -0.291 OA
HETATM    2  O2  UNK     1      30.410  -4.941  32.262  1.00  0.00    -0.274 OA
HETATM    3  O3  UNK     1      30.232  -4.968  36.922  1.00  0.00    -0.271 OA
HETATM    4  O4  UNK     1      31.989  -4.362  33.786  1.00  0.00    -0.259 OA
HETATM    5  N1  UNK     1      32.580  -4.970  36.840  1.00  0.00    -0.325 N 
HETATM    6  N3  UNK     1      31.933  -8.555  38.573  1.00  0.00    -0.191 NA
HETATM    7  C1  UNK     1      31.465  -6.641  35.560  1.00  0.00     0.147 A 
HETATM    8  C2  UNK     1      32.971  -6.706  35.407  1.00  0.00    -0.003 A 
HETATM    9  C3  UNK     1      30.734  -6.341  34.261  1.00  0.00     0.080 A 
HETATM   10  C4  UNK     1      31.292  -5.425  36.521  1.00  0.00     0.246 A 
HETATM   11  C5  UNK     1      30.912  -7.866  36.289  1.00  0.00     0.100 A 
HETATM   12  C6  UNK     1      33.562  -5.713  36.190  1.00  0.00     0.043 A 
HETATM   13  C7  UNK     1      29.744  -7.149  33.845  1.00  0.00     0.105 A 
HETATM   14  C8  UNK     1      33.754  -7.566  34.656  1.00  0.00     0.011 A 
HETATM   15  C9  UNK     1      29.905  -8.599  35.765  1.00  0.00     0.160 A 
HETATM   16  C10 UNK     1      31.109  -5.146  33.448  1.00  0.00     0.299 A 
HETATM   17  C11 UNK     1      29.022  -6.901  32.597  1.00  0.00     0.033 A 
HETATM   18  C12 UNK     1      34.928  -5.536  36.258  1.00  0.00     0.030 A 
HETATM   19  C13 UNK     1      29.381  -5.796  31.836  1.00  0.00     0.092 A 
HETATM   20  C14 UNK     1      35.142  -7.406  34.709  1.00  0.00     0.001 A 
HETATM   21  C15 UNK     1      35.724  -6.400  35.503  1.00  0.00     0.002 A 
HETATM   22  C16 UNK     1      31.477  -8.248  37.553  1.00  0.00     0.101 C 
HETATM   23  C17 UNK     1      27.987  -7.718  32.124  1.00  0.00     0.017 A 
HETATM   24  C18 UNK     1      28.749  -5.484  30.633  1.00  0.00     0.038 A 
HETATM   25  C19 UNK     1      27.342  -7.420  30.918  1.00  0.00     0.001 A 
HETATM   26  C20 UNK     1      27.723  -6.305  30.173  1.00  0.00     0.003 A 
HETATM   27  H1  UNK     1      32.783  -4.191  37.454  1.00  0.00     0.169 HD
ENDROOT
BRANCH  15  28
HETATM   28  N2  UNK     1      29.352  -9.709  36.343  1.00  0.00    -0.379 N 
HETATM   29  H7  UNK     1      28.346  -9.762  36.434  1.00  0.00     0.158 HD
HETATM   30  H8  UNK     1      29.934 -10.469  36.674  1.00  0.00     0.158 HD
ENDBRANCH  15  28
TORSDOF 1
ENDMDL
MODEL 10
REMARK VINA RESULT:      -8.1      5.611      8.241
REMARK  1 active torsions:
REMARK  status: ('A' for Active; 'I' for Inactive)
REMARK    1  A    between atoms: C9_16  and  N2_6 
ROOT
HETATM    1  O1  UNK     1      31.828 -11.802  30.250  1.00  0.00    -0.291 OA
HETATM    2  O2  UNK     1      34.982  -9.119  30.784  1.00  0.00    -0.274 OA
HETATM    3  O3  UNK     1      31.810  -8.781  27.383  1.00  0.00    -0.271 OA
HETATM    4  O4  UNK     1      33.650  -7.378  30.201  1.00  0.00    -0.259 OA
HETATM    5  N1  UNK     1      30.934  -6.984  28.615  1.00  0.00    -0.325 N 
HETATM    6  N3  UNK     1      27.830  -9.553  28.817  1.00  0.00    -0.191 NA
HETATM    7  C1  UNK     1      31.256  -9.028  29.793  1.00  0.00     0.147 A 
HETATM    8  C2  UNK     1      30.724  -7.925  30.685  1.00  0.00    -0.003 A 
HETATM    9  C3  UNK     1      32.626  -9.540  30.208  1.00  0.00     0.080 A 
HETATM   10  C4  UNK     1      31.391  -8.295  28.423  1.00  0.00     0.246 A 
HETATM   11  C5  UNK     1      30.233 -10.147  29.599  1.00  0.00     0.100 A 
HETATM   12  C6  UNK     1      30.546  -6.763  29.934  1.00  0.00     0.043 A 
HETATM   13  C7  UNK     1      32.821 -10.854  30.408  1.00  0.00     0.105 A 
HETATM   14  C8  UNK     1      30.416  -7.942  32.035  1.00  0.00     0.011 A 
HETATM   15  C9  UNK     1      30.554 -11.439  29.830  1.00  0.00     0.160 A 
HETATM   16  C10 UNK     1      33.761  -8.585  30.388  1.00  0.00     0.299 A 
HETATM   17  C11 UNK     1      34.120 -11.386  30.816  1.00  0.00     0.033 A 
HETATM   18  C12 UNK     1      30.063  -5.591  30.480  1.00  0.00     0.030 A 
HETATM   19  C13 UNK     1      35.171 -10.495  30.996  1.00  0.00     0.092 A 
HETATM   20  C14 UNK     1      29.925  -6.766  32.612  1.00  0.00     0.001 A 
HETATM   21  C15 UNK     1      29.750  -5.601  31.840  1.00  0.00     0.002 A 
HETATM   22  C16 UNK     1      28.903  -9.819  29.166  1.00  0.00     0.101 C 
HETATM   23  C17 UNK     1      34.367 -12.747  31.039  1.00  0.00     0.017 A 
HETATM   24  C18 UNK     1      36.443 -10.912  31.386  1.00  0.00     0.038 A 
HETATM   25  C19 UNK     1      35.637 -13.183  31.431  1.00  0.00     0.001 A 
HETATM   26  C20 UNK     1      36.673 -12.267  31.605  1.00  0.00     0.003 A 
HETATM   27  H1  UNK     1      30.897  -6.272  27.895  1.00  0.00     0.169 HD
ENDROOT
BRANCH  15  28
HETATM   28  N2  UNK     1      29.704 -12.502  29.688  1.00  0.00    -0.379 N 
HETATM   29  H7  UNK     1      30.031 -13.326  29.201  1.00  0.00     0.158 HD
HETATM   30  H8  UNK     1      28.764 -12.472  30.063  1.00  0.00     0.158 HD
ENDBRANCH  15  28
TORSDOF 1
ENDMDL
