MODEL 1
REMARK VINA RESULT:      -8.8      0.000      0.000
REMARK  5 active torsions:
REMARK  status: ('A' for Active; 'I' for Inactive)
REMARK    1  A    between atoms: C2_11  and  O1_1 
REMARK    2  A    between atoms: C3_12  and  O1_1 
REMARK    3  A    between atoms: C1_10  and  N1_6 
REMARK    4  A    between atoms: C12_21  and  N4_9 
REMARK    5  A    between atoms: C1_10  and  C2_11 
ROOT
HETATM    1  O2  UNK     1      19.867  -0.455  31.837  1.00  0.00    -0.275 OA
HETATM    2  O3  UNK     1      20.911  -2.492  31.933  1.00  0.00    -0.260 OA
HETATM    3  C3  UNK     1      18.243   2.724  30.968  1.00  0.00     0.071 A 
HETATM    4  C4  UNK     1      19.390   0.527  29.662  1.00  0.00    -0.002 A 
HETATM    5  C5  UNK     1      19.339   0.590  31.052  1.00  0.00     0.092 A 
HETATM    6  C6  UNK     1      18.772   1.675  31.717  1.00  0.00     0.075 A 
HETATM    7  C7  UNK     1      18.284   2.679  29.572  1.00  0.00     0.038 A 
HETATM    8  C8  UNK     1      18.857   1.583  28.919  1.00  0.00     0.017 A 
HETATM    9  C9  UNK     1      19.996  -0.634  29.034  1.00  0.00     0.020 A 
HETATM   10  C11 UNK     1      20.493  -1.620  29.784  1.00  0.00     0.083 A 
HETATM   11  C13 UNK     1      20.451  -1.578  31.258  1.00  0.00     0.288 A 
ENDROOT
BRANCH   3  12
HETATM   12  O1  UNK     1      17.684   3.795  31.596  1.00  0.00    -0.349 OA
BRANCH  12  13
HETATM   13  C2  UNK     1      18.281   4.213  32.823  1.00  0.00     0.197 C 
BRANCH  13  14
HETATM   14  C1  UNK     1      18.642   5.690  32.740  1.00  0.00     0.179 C 
BRANCH  14  15
HETATM   15  N1  UNK     1      17.549   6.505  32.213  1.00  0.00    -0.258 N 
HETATM   16  C10 UNK     1      17.570   7.281  31.113  1.00  0.00     0.232 A 
HETATM   17  N3  UNK     1      16.396   7.852  30.972  1.00  0.00    -0.201 NA
HETATM   18  C12 UNK     1      15.703   7.366  32.043  1.00  0.00     0.311 A 
HETATM   19  N2  UNK     1      16.374   6.530  32.838  1.00  0.00    -0.127 NA
BRANCH  18  20
HETATM   20  N4  UNK     1      14.376   7.695  32.326  1.00  0.00    -0.074 N 
HETATM   21  O4  UNK     1      13.442   6.965  31.886  1.00  0.00    -0.529 OA
HETATM   22  O5  UNK     1      14.120   8.723  33.019  1.00  0.00    -0.529 OA
ENDBRANCH  18  20
ENDBRANCH  14  15
ENDBRANCH  13  14
ENDBRANCH  12  13
ENDBRANCH   3  12
TORSDOF 5
ENDMDL
MODEL 2
REMARK VINA RESULT:      -8.7      6.960     10.221
REMARK  5 active torsions:
REMARK  status: ('A' for Active; 'I' for Inactive)
REMARK    1  A    between atoms: C2_11  and  O1_1 
REMARK    2  A    between atoms: C3_12  and  O1_1 
REMARK    3  A    between atoms: C1_10  and  N1_6 
REMARK    4  A    between atoms: C12_21  and  N4_9 
REMARK    5  A    between atoms: C1_10  and  C2_11 
ROOT
HETATM    1  O2  UNK     1      18.641   0.649  30.943  1.00  0.00    -0.275 OA
HETATM    2  O3  UNK     1      18.320   1.840  29.013  1.00  0.00    -0.260 OA
HETATM    3  C3  UNK     1      19.618  -1.647  33.640  1.00  0.00     0.071 A 
HETATM    4  C4  UNK     1      20.198  -1.221  30.934  1.00  0.00    -0.002 A 
HETATM    5  C5  UNK     1      19.291  -0.410  31.609  1.00  0.00     0.092 A 
HETATM    6  C6  UNK     1      18.991  -0.607  32.956  1.00  0.00     0.075 A 
HETATM    7  C7  UNK     1      20.531  -2.471  32.979  1.00  0.00     0.038 A 
HETATM    8  C8  UNK     1      20.822  -2.260  31.628  1.00  0.00     0.017 A 
HETATM    9  C9  UNK     1      20.464  -0.959  29.529  1.00  0.00     0.020 A 
HETATM   10  C11 UNK     1      19.844   0.047  28.906  1.00  0.00     0.083 A 
HETATM   11  C13 UNK     1      18.880   0.920  29.599  1.00  0.00     0.288 A 
ENDROOT
BRANCH   3  12
HETATM   12  O1  UNK     1      19.340  -1.859  34.956  1.00  0.00    -0.349 OA
BRANCH  12  13
HETATM   13  C2  UNK     1      20.216  -2.729  35.673  1.00  0.00     0.197 C 
BRANCH  13  14
HETATM   14  C1  UNK     1      19.399  -3.686  36.531  1.00  0.00     0.179 C 
BRANCH  14  15
HETATM   15  N1  UNK     1      19.696  -5.088  36.244  1.00  0.00    -0.258 N 
HETATM   16  C10 UNK     1      19.515  -6.142  37.062  1.00  0.00     0.232 A 
HETATM   17  N3  UNK     1      19.899  -7.234  36.443  1.00  0.00    -0.201 NA
HETATM   18  C12 UNK     1      20.307  -6.755  35.231  1.00  0.00     0.311 A 
HETATM   19  N2  UNK     1      20.200  -5.436  35.062  1.00  0.00    -0.127 NA
BRANCH  18  20
HETATM   20  N4  UNK     1      20.810  -7.559  34.206  1.00  0.00    -0.074 N 
HETATM   21  O4  UNK     1      21.305  -8.689  34.481  1.00  0.00    -0.529 OA
HETATM   22  O5  UNK     1      20.767  -7.147  33.010  1.00  0.00    -0.529 OA
ENDBRANCH  18  20
ENDBRANCH  14  15
ENDBRANCH  13  14
ENDBRANCH  12  13
ENDBRANCH   3  12
TORSDOF 5
ENDMDL
MODEL 3
REMARK VINA RESULT:      -8.6      4.846      6.799
REMARK  5 active torsions:
REMARK  status: ('A' for Active; 'I' for Inactive)
REMARK    1  A    between atoms: C2_11  and  O1_1 
REMARK    2  A    between atoms: C3_12  and  O1_1 
REMARK    3  A    between atoms: C1_10  and  N1_6 
REMARK    4  A    between atoms: C12_21  and  N4_9 
REMARK    5  A    between atoms: C1_10  and  C2_11 
ROOT
HETATM    1  O2  UNK     1      18.729   0.516  31.320  1.00  0.00    -0.275 OA
HETATM    2  O3  UNK     1      17.955   2.210  29.988  1.00  0.00    -0.260 OA
HETATM    3  C3  UNK     1      20.283  -2.440  32.854  1.00  0.00     0.071 A 
HETATM    4  C4  UNK     1      20.119  -1.222  30.337  1.00  0.00    -0.002 A 
HETATM    5  C5  UNK     1      19.479  -0.672  31.443  1.00  0.00     0.092 A 
HETATM    6  C6  UNK     1      19.549  -1.265  32.702  1.00  0.00     0.075 A 
HETATM    7  C7  UNK     1      20.933  -3.007  31.755  1.00  0.00     0.038 A 
HETATM    8  C8  UNK     1      20.852  -2.400  30.498  1.00  0.00     0.017 A 
HETATM    9  C9  UNK     1      20.002  -0.552  29.053  1.00  0.00     0.020 A 
HETATM   10  C11 UNK     1      19.291   0.573  28.945  1.00  0.00     0.083 A 
HETATM   11  C13 UNK     1      18.604   1.176  30.102  1.00  0.00     0.288 A 
ENDROOT
BRANCH   3  12
HETATM   12  O1  UNK     1      20.367  -3.037  34.074  1.00  0.00    -0.349 OA
BRANCH  12  13
HETATM   13  C2  UNK     1      20.385  -2.181  35.216  1.00  0.00     0.197 C 
BRANCH  13  14
HETATM   14  C1  UNK     1      19.353  -2.655  36.230  1.00  0.00     0.179 C 
BRANCH  14  15
HETATM   15  N1  UNK     1      18.347  -1.637  36.524  1.00  0.00    -0.258 N 
HETATM   16  C10 UNK     1      18.139  -1.014  37.700  1.00  0.00     0.232 A 
HETATM   17  N3  UNK     1      17.147  -0.165  37.563  1.00  0.00    -0.201 NA
HETATM   18  C12 UNK     1      16.798  -0.331  36.253  1.00  0.00     0.311 A 
HETATM   19  N2  UNK     1      17.512  -1.229  35.572  1.00  0.00    -0.127 NA
BRANCH  18  20
HETATM   20  N4  UNK     1      15.768   0.374  35.627  1.00  0.00    -0.074 N 
HETATM   21  O4  UNK     1      14.786   0.785  36.308  1.00  0.00    -0.529 OA
HETATM   22  O5  UNK     1      15.827   0.593  34.381  1.00  0.00    -0.529 OA
ENDBRANCH  18  20
ENDBRANCH  14  15
ENDBRANCH  13  14
ENDBRANCH  12  13
ENDBRANCH   3  12
TORSDOF 5
ENDMDL
MODEL 4
REMARK VINA RESULT:      -8.5      3.665      6.124
REMARK  5 active torsions:
REMARK  status: ('A' for Active; 'I' for Inactive)
REMARK    1  A    between atoms: C2_11  and  O1_1 
REMARK    2  A    between atoms: C3_12  and  O1_1 
REMARK    3  A    between atoms: C1_10  and  N1_6 
REMARK    4  A    between atoms: C12_21  and  N4_9 
REMARK    5  A    between atoms: C1_10  and  C2_11 
ROOT
HETATM    1  O2  UNK     1      17.036  -0.315  33.965  1.00  0.00    -0.275 OA
HETATM    2  O3  UNK     1      15.474   0.482  35.439  1.00  0.00    -0.260 OA
HETATM    3  C3  UNK     1      19.860  -1.856  32.191  1.00  0.00     0.071 A 
HETATM    4  C4  UNK     1      18.936  -1.573  34.819  1.00  0.00    -0.002 A 
HETATM    5  C5  UNK     1      18.234  -1.027  33.749  1.00  0.00     0.092 A 
HETATM    6  C6  UNK     1      18.679  -1.159  32.435  1.00  0.00     0.075 A 
HETATM    7  C7  UNK     1      20.579  -2.411  33.252  1.00  0.00     0.038 A 
HETATM    8  C8  UNK     1      20.119  -2.270  34.565  1.00  0.00     0.017 A 
HETATM    9  C9  UNK     1      18.415  -1.396  36.164  1.00  0.00     0.020 A 
HETATM   10  C11 UNK     1      17.279  -0.721  36.360  1.00  0.00     0.083 A 
HETATM   11  C13 UNK     1      16.516  -0.134  35.243  1.00  0.00     0.288 A 
ENDROOT
BRANCH   3  12
HETATM   12  O1  UNK     1      20.315  -1.999  30.915  1.00  0.00    -0.349 OA
BRANCH  12  13
HETATM   13  C2  UNK     1      20.999  -0.886  30.341  1.00  0.00     0.197 C 
BRANCH  13  14
HETATM   14  C1  UNK     1      20.253  -0.408  29.103  1.00  0.00     0.179 C 
BRANCH  14  15
HETATM   15  N1  UNK     1      19.313   0.671  29.398  1.00  0.00    -0.258 N 
HETATM   16  C10 UNK     1      18.278   1.080  28.638  1.00  0.00     0.232 A 
HETATM   17  N3  UNK     1      17.670   2.073  29.244  1.00  0.00    -0.201 NA
HETATM   18  C12 UNK     1      18.404   2.213  30.387  1.00  0.00     0.311 A 
HETATM   19  N2  UNK     1      19.429   1.369  30.526  1.00  0.00    -0.127 NA
BRANCH  18  20
HETATM   20  N4  UNK     1      18.136   3.164  31.373  1.00  0.00    -0.074 N 
HETATM   21  O4  UNK     1      17.664   2.796  32.487  1.00  0.00    -0.529 OA
HETATM   22  O5  UNK     1      18.365   4.387  31.142  1.00  0.00    -0.529 OA
ENDBRANCH  18  20
ENDBRANCH  14  15
ENDBRANCH  13  14
ENDBRANCH  12  13
ENDBRANCH   3  12
TORSDOF 5
ENDMDL
MODEL 5
REMARK VINA RESULT:      -8.5      1.649      2.342
REMARK  5 active torsions:
REMARK  status: ('A' for Active; 'I' for Inactive)
REMARK    1  A    between atoms: C2_11  and  O1_1 
REMARK    2  A    between atoms: C3_12  and  O1_1 
REMARK    3  A    between atoms: C1_10  and  N1_6 
REMARK    4  A    between atoms: C12_21  and  N4_9 
REMARK    5  A    between atoms: C1_10  and  C2_11 
ROOT
HETATM    1  O2  UNK     1      20.142  -1.019  32.343  1.00  0.00    -0.275 OA
HETATM    2  O3  UNK     1      20.917  -2.746  33.634  1.00  0.00    -0.260 OA
HETATM    3  C3  UNK     1      19.039   1.308  29.722  1.00  0.00     0.071 A 
HETATM    4  C4  UNK     1      20.088  -1.281  29.925  1.00  0.00    -0.002 A 
HETATM    5  C5  UNK     1      19.854  -0.511  31.060  1.00  0.00     0.092 A 
HETATM    6  C6  UNK     1      19.332   0.779  30.978  1.00  0.00     0.075 A 
HETATM    7  C7  UNK     1      19.266   0.550  28.571  1.00  0.00     0.038 A 
HETATM    8  C8  UNK     1      19.790  -0.743  28.671  1.00  0.00     0.017 A 
HETATM    9  C9  UNK     1      20.635  -2.618  30.084  1.00  0.00     0.020 A 
HETATM   10  C11 UNK     1      20.904  -3.092  31.303  1.00  0.00     0.083 A 
HETATM   11  C13 UNK     1      20.665  -2.296  32.521  1.00  0.00     0.288 A 
ENDROOT
BRANCH   3  12
HETATM   12  O1  UNK     1      18.528   2.565  29.617  1.00  0.00    -0.349 OA
BRANCH  12  13
HETATM   13  C2  UNK     1      18.531   3.369  30.796  1.00  0.00     0.197 C 
BRANCH  13  14
HETATM   14  C1  UNK     1      19.328   4.642  30.546  1.00  0.00     0.179 C 
BRANCH  14  15
HETATM   15  N1  UNK     1      18.901   5.747  31.403  1.00  0.00    -0.258 N 
HETATM   16  C10 UNK     1      19.425   6.105  32.591  1.00  0.00     0.232 A 
HETATM   17  N3  UNK     1      18.771   7.147  33.049  1.00  0.00    -0.201 NA
HETATM   18  C12 UNK     1      17.849   7.369  32.067  1.00  0.00     0.311 A 
HETATM   19  N2  UNK     1      17.892   6.530  31.030  1.00  0.00    -0.127 NA
BRANCH  18  20
HETATM   20  N4  UNK     1      16.905   8.397  32.103  1.00  0.00    -0.074 N 
HETATM   21  O4  UNK     1      16.936   9.243  33.043  1.00  0.00    -0.529 OA
HETATM   22  O5  UNK     1      16.024   8.471  31.197  1.00  0.00    -0.529 OA
ENDBRANCH  18  20
ENDBRANCH  14  15
ENDBRANCH  13  14
ENDBRANCH  12  13
ENDBRANCH   3  12
TORSDOF 5
ENDMDL
MODEL 6
REMARK VINA RESULT:      -8.5      3.676      7.748
REMARK  5 active torsions:
REMARK  status: ('A' for Active; 'I' for Inactive)
REMARK    1  A    between atoms: C2_11  and  O1_1 
REMARK    2  A    between atoms: C3_12  and  O1_1 
REMARK    3  A    between atoms: C1_10  and  N1_6 
REMARK    4  A    between atoms: C12_21  and  N4_9 
REMARK    5  A    between atoms: C1_10  and  C2_11 
ROOT
HETATM    1  O2  UNK     1      17.257   6.357  33.478  1.00  0.00    -0.275 OA
HETATM    2  O3  UNK     1      16.488   7.489  35.315  1.00  0.00    -0.260 OA
HETATM    3  C3  UNK     1      19.115   4.869  30.679  1.00  0.00     0.071 A 
HETATM    4  C4  UNK     1      19.574   6.646  32.794  1.00  0.00    -0.002 A 
HETATM    5  C5  UNK     1      18.325   6.064  32.605  1.00  0.00     0.092 A 
HETATM    6  C6  UNK     1      18.079   5.177  31.558  1.00  0.00     0.075 A 
HETATM    7  C7  UNK     1      20.376   5.443  30.853  1.00  0.00     0.038 A 
HETATM    8  C8  UNK     1      20.607   6.331  31.908  1.00  0.00     0.017 A 
HETATM    9  C9  UNK     1      19.761   7.563  33.906  1.00  0.00     0.020 A 
HETATM   10  C11 UNK     1      18.744   7.834  34.729  1.00  0.00     0.083 A 
HETATM   11  C13 UNK     1      17.411   7.230  34.551  1.00  0.00     0.288 A 
ENDROOT
BRANCH   3  12
HETATM   12  O1  UNK     1      18.899   4.005  29.649  1.00  0.00    -0.349 OA
BRANCH  12  13
HETATM   13  C2  UNK     1      18.256   2.770  29.961  1.00  0.00     0.197 C 
BRANCH  13  14
HETATM   14  C1  UNK     1      19.070   1.612  29.399  1.00  0.00     0.179 C 
BRANCH  14  15
HETATM   15  N1  UNK     1      19.426   0.630  30.421  1.00  0.00    -0.258 N 
HETATM   16  C10 UNK     1      20.529  -0.142  30.459  1.00  0.00     0.232 A 
HETATM   17  N3  UNK     1      20.487  -0.893  31.535  1.00  0.00    -0.201 NA
HETATM   18  C12 UNK     1      19.309  -0.514  32.112  1.00  0.00     0.311 A 
HETATM   19  N2  UNK     1      18.619   0.424  31.460  1.00  0.00    -0.127 NA
BRANCH  18  20
HETATM   20  N4  UNK     1      18.820  -1.046  33.306  1.00  0.00    -0.074 N 
HETATM   21  O4  UNK     1      19.604  -1.661  34.086  1.00  0.00    -0.529 OA
HETATM   22  O5  UNK     1      17.596  -0.911  33.597  1.00  0.00    -0.529 OA
ENDBRANCH  18  20
ENDBRANCH  14  15
ENDBRANCH  13  14
ENDBRANCH  12  13
ENDBRANCH   3  12
TORSDOF 5
ENDMDL
MODEL 7
REMARK VINA RESULT:      -8.4      4.617      7.225
REMARK  5 active torsions:
REMARK  status: ('A' for Active; 'I' for Inactive)
REMARK    1  A    between atoms: C2_11  and  O1_1 
REMARK    2  A    between atoms: C3_12  and  O1_1 
REMARK    3  A    between atoms: C1_10  and  N1_6 
REMARK    4  A    between atoms: C12_21  and  N4_9 
REMARK    5  A    between atoms: C1_10  and  C2_11 
ROOT
HETATM    1  O2  UNK     1      17.152  -0.424  34.591  1.00  0.00    -0.275 OA
HETATM    2  O3  UNK     1      15.329   0.669  35.444  1.00  0.00    -0.260 OA
HETATM    3  C3  UNK     1      20.261  -2.262  33.913  1.00  0.00     0.071 A 
HETATM    4  C4  UNK     1      18.810  -1.333  36.122  1.00  0.00    -0.002 A 
HETATM    5  C5  UNK     1      18.357  -1.118  34.824  1.00  0.00     0.092 A 
HETATM    6  C6  UNK     1      19.066  -1.574  33.714  1.00  0.00     0.075 A 
HETATM    7  C7  UNK     1      20.732  -2.488  35.208  1.00  0.00     0.038 A 
HETATM    8  C8  UNK     1      20.009  -2.025  36.312  1.00  0.00     0.017 A 
HETATM    9  C9  UNK     1      18.022  -0.830  37.234  1.00  0.00     0.020 A 
HETATM   10  C11 UNK     1      16.881  -0.175  37.004  1.00  0.00     0.083 A 
HETATM   11  C13 UNK     1      16.379   0.066  35.639  1.00  0.00     0.288 A 
ENDROOT
BRANCH   3  12
HETATM   12  O1  UNK     1      20.970  -2.717  32.844  1.00  0.00    -0.349 OA
BRANCH  12  13
HETATM   13  C2  UNK     1      20.466  -2.400  31.547  1.00  0.00     0.197 C 
BRANCH  13  14
HETATM   14  C1  UNK     1      21.071  -1.088  31.068  1.00  0.00     0.179 C 
BRANCH  14  15
HETATM   15  N1  UNK     1      20.243  -0.424  30.062  1.00  0.00    -0.258 N 
HETATM   16  C10 UNK     1      20.140  -0.739  28.757  1.00  0.00     0.232 A 
HETATM   17  N3  UNK     1      19.296   0.088  28.184  1.00  0.00    -0.201 NA
HETATM   18  C12 UNK     1      18.920   0.890  29.224  1.00  0.00     0.311 A 
HETATM   19  N2  UNK     1      19.479   0.611  30.403  1.00  0.00    -0.127 NA
BRANCH  18  20
HETATM   20  N4  UNK     1      18.013   1.944  29.105  1.00  0.00    -0.074 N 
HETATM   21  O4  UNK     1      17.785   2.450  27.969  1.00  0.00    -0.529 OA
HETATM   22  O5  UNK     1      17.428   2.385  30.137  1.00  0.00    -0.529 OA
ENDBRANCH  18  20
ENDBRANCH  14  15
ENDBRANCH  13  14
ENDBRANCH  12  13
ENDBRANCH   3  12
TORSDOF 5
ENDMDL
MODEL 8
REMARK VINA RESULT:      -8.3      4.632      6.861
REMARK  5 active torsions:
REMARK  status: ('A' for Active; 'I' for Inactive)
REMARK    1  A    between atoms: C2_11  and  O1_1 
REMARK    2  A    between atoms: C3_12  and  O1_1 
REMARK    3  A    between atoms: C1_10  and  N1_6 
REMARK    4  A    between atoms: C12_21  and  N4_9 
REMARK    5  A    between atoms: C1_10  and  C2_11 
ROOT
HETATM    1  O2  UNK     1      19.816  -1.154  31.336  1.00  0.00    -0.275 OA
HETATM    2  O3  UNK     1      20.799  -2.841  30.139  1.00  0.00    -0.260 OA
HETATM    3  C3  UNK     1      18.260   1.912  32.633  1.00  0.00     0.071 A 
HETATM    4  C4  UNK     1      19.288   0.940  30.215  1.00  0.00    -0.002 A 
HETATM    5  C5  UNK     1      19.292   0.154  31.364  1.00  0.00     0.092 A 
HETATM    6  C6  UNK     1      18.784   0.622  32.575  1.00  0.00     0.075 A 
HETATM    7  C7  UNK     1      18.247   2.715  31.490  1.00  0.00     0.038 A 
HETATM    8  C8  UNK     1      18.760   2.232  30.283  1.00  0.00     0.017 A 
HETATM    9  C9  UNK     1      19.834   0.389  28.986  1.00  0.00     0.020 A 
HETATM   10  C11 UNK     1      20.328  -0.851  28.968  1.00  0.00     0.083 A 
HETATM   11  C13 UNK     1      20.343  -1.704  30.171  1.00  0.00     0.288 A 
ENDROOT
BRANCH   3  12
HETATM   12  O1  UNK     1      17.758   2.390  33.805  1.00  0.00    -0.349 OA
BRANCH  12  13
HETATM   13  C2  UNK     1      18.570   2.239  34.969  1.00  0.00     0.197 C 
BRANCH  13  14
HETATM   14  C1  UNK     1      17.802   1.466  36.033  1.00  0.00     0.179 C 
BRANCH  14  15
HETATM   15  N1  UNK     1      18.282   0.094  36.183  1.00  0.00    -0.258 N 
HETATM   16  C10 UNK     1      17.675  -0.913  36.840  1.00  0.00     0.232 A 
HETATM   17  N3  UNK     1      18.418  -1.992  36.748  1.00  0.00    -0.201 NA
HETATM   18  C12 UNK     1      19.479  -1.555  36.007  1.00  0.00     0.311 A 
HETATM   19  N2  UNK     1      19.438  -0.274  35.635  1.00  0.00    -0.127 NA
BRANCH  18  20
HETATM   20  N4  UNK     1      20.556  -2.362  35.639  1.00  0.00    -0.074 N 
HETATM   21  O4  UNK     1      21.711  -1.857  35.535  1.00  0.00    -0.529 OA
HETATM   22  O5  UNK     1      20.367  -3.593  35.410  1.00  0.00    -0.529 OA
ENDBRANCH  18  20
ENDBRANCH  14  15
ENDBRANCH  13  14
ENDBRANCH  12  13
ENDBRANCH   3  12
TORSDOF 5
ENDMDL
MODEL 9
REMARK VINA RESULT:      -8.3      4.807      7.206
REMARK  5 active torsions:
REMARK  status: ('A' for Active; 'I' for Inactive)
REMARK    1  A    between atoms: C2_11  and  O1_1 
REMARK    2  A    between atoms: C3_12  and  O1_1 
REMARK    3  A    between atoms: C1_10  and  N1_6 
REMARK    4  A    between atoms: C12_21  and  N4_9 
REMARK    5  A    between atoms: C1_10  and  C2_11 
ROOT
HETATM    1  O2  UNK     1      18.629   0.445  37.327  1.00  0.00    -0.275 OA
HETATM    2  O3  UNK     1      17.870   1.565  39.175  1.00  0.00    -0.260 OA
HETATM    3  C3  UNK     1      19.171  -1.266  34.120  1.00  0.00     0.071 A 
HETATM    4  C4  UNK     1      17.090   0.013  35.491  1.00  0.00    -0.002 A 
HETATM    5  C5  UNK     1      18.360  -0.092  36.051  1.00  0.00     0.092 A 
HETATM    6  C6  UNK     1      19.407  -0.725  35.383  1.00  0.00     0.075 A 
HETATM    7  C7  UNK     1      17.903  -1.170  33.542  1.00  0.00     0.038 A 
HETATM    8  C8  UNK     1      16.863  -0.532  34.226  1.00  0.00     0.017 A 
HETATM    9  C9  UNK     1      16.045   0.686  36.244  1.00  0.00     0.020 A 
HETATM   10  C11 UNK     1      16.308   1.192  37.451  1.00  0.00     0.083 A 
HETATM   11  C13 UNK     1      17.645   1.094  38.066  1.00  0.00     0.288 A 
ENDROOT
BRANCH   3  12
HETATM   12  O1  UNK     1      20.178  -1.888  33.448  1.00  0.00    -0.349 OA
BRANCH  12  13
HETATM   13  C2  UNK     1      19.982  -2.120  32.054  1.00  0.00     0.197 C 
BRANCH  13  14
HETATM   14  C1  UNK     1      20.885  -1.195  31.248  1.00  0.00     0.179 C 
BRANCH  14  15
HETATM   15  N1  UNK     1      20.160  -0.480  30.200  1.00  0.00    -0.258 N 
HETATM   16  C10 UNK     1      20.208  -0.712  28.874  1.00  0.00     0.232 A 
HETATM   17  N3  UNK     1      19.416   0.138  28.263  1.00  0.00    -0.201 NA
HETATM   18  C12 UNK     1      18.911   0.867  29.301  1.00  0.00     0.311 A 
HETATM   19  N2  UNK     1      19.342   0.521  30.516  1.00  0.00    -0.127 NA
BRANCH  18  20
HETATM   20  N4  UNK     1      18.001   1.914  29.148  1.00  0.00    -0.074 N 
HETATM   21  O4  UNK     1      17.389   2.366  30.158  1.00  0.00    -0.529 OA
HETATM   22  O5  UNK     1      17.794   2.399  27.997  1.00  0.00    -0.529 OA
ENDBRANCH  18  20
ENDBRANCH  14  15
ENDBRANCH  13  14
ENDBRANCH  12  13
ENDBRANCH   3  12
TORSDOF 5
ENDMDL
MODEL 10
REMARK VINA RESULT:      -8.3      1.608      1.900
REMARK  5 active torsions:
REMARK  status: ('A' for Active; 'I' for Inactive)
REMARK    1  A    between atoms: C2_11  and  O1_1 
REMARK    2  A    between atoms: C3_12  and  O1_1 
REMARK    3  A    between atoms: C1_10  and  N1_6 
REMARK    4  A    between atoms: C12_21  and  N4_9 
REMARK    5  A    between atoms: C1_10  and  C2_11 
ROOT
HETATM    1  O2  UNK     1      19.886  -0.548  31.931  1.00  0.00    -0.275 OA
HETATM    2  O3  UNK     1      20.965  -2.564  32.048  1.00  0.00    -0.260 OA
HETATM    3  C3  UNK     1      18.223   2.604  31.032  1.00  0.00     0.071 A 
HETATM    4  C4  UNK     1      19.441   0.432  29.749  1.00  0.00    -0.002 A 
HETATM    5  C5  UNK     1      19.357   0.490  31.137  1.00  0.00     0.092 A 
HETATM    6  C6  UNK     1      18.754   1.563  31.792  1.00  0.00     0.075 A 
HETATM    7  C7  UNK     1      18.298   2.563  29.638  1.00  0.00     0.038 A 
HETATM    8  C8  UNK     1      18.907   1.480  28.996  1.00  0.00     0.017 A 
HETATM    9  C9  UNK     1      20.084  -0.715  29.132  1.00  0.00     0.020 A 
HETATM   10  C11 UNK     1      20.582  -1.694  29.892  1.00  0.00     0.083 A 
HETATM   11  C13 UNK     1      20.504  -1.657  31.364  1.00  0.00     0.288 A 
ENDROOT
BRANCH   3  12
HETATM   12  O1  UNK     1      17.629   3.662  31.649  1.00  0.00    -0.349 OA
BRANCH  12  13
HETATM   13  C2  UNK     1      18.479   4.556  32.367  1.00  0.00     0.197 C 
BRANCH  13  14
HETATM   14  C1  UNK     1      18.776   5.780  31.510  1.00  0.00     0.179 C 
BRANCH  14  15
HETATM   15  N1  UNK     1      17.999   6.949  31.915  1.00  0.00    -0.258 N 
HETATM   16  C10 UNK     1      16.845   7.386  31.375  1.00  0.00     0.232 A 
HETATM   17  N3  UNK     1      16.456   8.465  32.014  1.00  0.00    -0.201 NA
HETATM   18  C12 UNK     1      17.442   8.624  32.946  1.00  0.00     0.311 A 
HETATM   19  N2  UNK     1      18.415   7.712  32.923  1.00  0.00    -0.127 NA
BRANCH  18  20
HETATM   20  N4  UNK     1      17.468   9.660  33.882  1.00  0.00    -0.074 N 
HETATM   21  O4  UNK     1      16.629   9.671  34.828  1.00  0.00    -0.529 OA
HETATM   22  O5  UNK     1      18.331  10.579  33.774  1.00  0.00    -0.529 OA
ENDBRANCH  18  20
ENDBRANCH  14  15
ENDBRANCH  13  14
ENDBRANCH  12  13
ENDBRANCH   3  12
TORSDOF 5
ENDMDL
