MODEL 1
REMARK VINA RESULT:      -8.9      0.000      0.000
REMARK  3 active torsions:
REMARK  status: ('A' for Active; 'I' for Inactive)
REMARK    1  A    between atoms: C5_12  and  N2_7 
REMARK    2  A    between atoms: C10_17  and  C7_14 
REMARK    3  A    between atoms: C10_17  and  C11_18 
ROOT
HETATM    1  O1  UNK     1      12.748   5.552  10.518  1.00  0.00    -0.267 OA
HETATM    2  N1  UNK     1      10.679   5.689   9.388  1.00  0.00    -0.320 N 
HETATM    3  C1  UNK     1      11.412   6.049   7.239  1.00  0.00     0.009 A 
HETATM    4  C2  UNK     1      10.291   5.894   8.059  1.00  0.00     0.079 A 
HETATM    5  C3  UNK     1      12.569   5.933   8.120  1.00  0.00     0.048 A 
HETATM    6  C4  UNK     1      12.071   5.698   9.518  1.00  0.00     0.257 A 
HETATM    7  C5  UNK     1       9.002   5.945   7.567  1.00  0.00     0.130 A 
HETATM    8  C6  UNK     1      11.268   6.264   5.881  1.00  0.00     0.015 A 
HETATM    9  C7  UNK     1      13.863   6.011   7.808  1.00  0.00     0.073 C 
HETATM   10  C8  UNK     1       8.849   6.161   6.196  1.00  0.00     0.038 A 
HETATM   11  C9  UNK     1       9.971   6.320   5.361  1.00  0.00     0.003 A 
HETATM   12  H1  UNK     1      10.028   5.552  10.152  1.00  0.00     0.169 HD
ENDROOT
BRANCH   9  13
HETATM   13  C10 UNK     1      14.898   5.863   8.867  1.00  0.00     0.183 C 
HETATM   14  O2  UNK     1      15.276   4.767   9.268  1.00  0.00    -0.288 OA
BRANCH  13  15
HETATM   15  C11 UNK     1      15.505   7.099   9.420  1.00  0.00     0.014 A 
HETATM   16  C12 UNK     1      16.750   7.025  10.013  1.00  0.00     0.018 A 
HETATM   17  C14 UNK     1      17.320   8.187  10.532  1.00  0.00     0.043 A 
HETATM   18  C16 UNK     1      16.635   9.398  10.447  1.00  0.00     0.116 A 
HETATM   19  C15 UNK     1      15.379   9.448   9.844  1.00  0.00     0.043 A 
HETATM   20  F1  UNK     1      17.182  10.514  10.946  1.00  0.00    -0.206 F 
HETATM   21  C13 UNK     1      14.808   8.286   9.324  1.00  0.00     0.018 A 
ENDBRANCH  13  15
ENDBRANCH   9  13
BRANCH   7  22
HETATM   22  N2  UNK     1       7.866   5.786   8.402  1.00  0.00    -0.113 N 
HETATM   23  O3  UNK     1       7.128   6.778   8.621  1.00  0.00    -0.532 OA
HETATM   24  O4  UNK     1       7.629   4.659   8.901  1.00  0.00    -0.532 OA
ENDBRANCH   7  22
TORSDOF 3
ENDMDL
MODEL 2
REMARK VINA RESULT:      -8.8     28.346     30.281
REMARK  3 active torsions:
REMARK  status: ('A' for Active; 'I' for Inactive)
REMARK    1  A    between atoms: C5_12  and  N2_7 
REMARK    2  A    between atoms: C10_17  and  C7_14 
REMARK    3  A    between atoms: C10_17  and  C11_18 
ROOT
HETATM    1  O1  UNK     1      20.725  -3.520  34.707  1.00  0.00    -0.267 OA
HETATM    2  N1  UNK     1      19.495  -1.520  34.448  1.00  0.00    -0.320 N 
HETATM    3  C1  UNK     1      18.664  -1.275  36.578  1.00  0.00     0.009 A 
HETATM    4  C2  UNK     1      18.710  -0.728  35.293  1.00  0.00     0.079 A 
HETATM    5  C3  UNK     1      19.475  -2.487  36.523  1.00  0.00     0.048 A 
HETATM    6  C4  UNK     1      20.009  -2.630  35.127  1.00  0.00     0.257 A 
HETATM    7  C5  UNK     1      18.049   0.439  34.961  1.00  0.00     0.130 A 
HETATM    8  C6  UNK     1      17.942  -0.658  37.582  1.00  0.00     0.015 A 
HETATM    9  C7  UNK     1      19.738  -3.356  37.500  1.00  0.00     0.073 C 
HETATM   10  C8  UNK     1      17.318   1.068  35.971  1.00  0.00     0.038 A 
HETATM   11  C9  UNK     1      17.265   0.525  37.269  1.00  0.00     0.003 A 
HETATM   12  H1  UNK     1      19.665  -1.310  33.472  1.00  0.00     0.169 HD
ENDROOT
BRANCH   9  13
HETATM   13  C10 UNK     1      20.599  -4.541  37.235  1.00  0.00     0.183 C 
HETATM   14  O2  UNK     1      21.822  -4.466  37.187  1.00  0.00    -0.288 OA
BRANCH  13  15
HETATM   15  C11 UNK     1      19.934  -5.855  37.057  1.00  0.00     0.014 A 
HETATM   16  C12 UNK     1      19.589  -6.263  35.783  1.00  0.00     0.018 A 
HETATM   17  C14 UNK     1      18.965  -7.500  35.617  1.00  0.00     0.043 A 
HETATM   18  C16 UNK     1      18.699  -8.302  36.726  1.00  0.00     0.116 A 
HETATM   19  C15 UNK     1      19.056  -7.868  38.002  1.00  0.00     0.043 A 
HETATM   20  F1  UNK     1      18.099  -9.488  36.566  1.00  0.00    -0.206 F 
HETATM   21  C13 UNK     1      19.680  -6.631  38.170  1.00  0.00     0.018 A 
ENDBRANCH  13  15
ENDBRANCH   9  13
BRANCH   7  22
HETATM   22  N2  UNK     1      18.097   0.992  33.656  1.00  0.00    -0.113 N 
HETATM   23  O3  UNK     1      18.724   0.380  32.757  1.00  0.00    -0.532 OA
HETATM   24  O4  UNK     1      17.513   2.081  33.434  1.00  0.00    -0.532 OA
ENDBRANCH   7  22
TORSDOF 3
ENDMDL
MODEL 3
REMARK VINA RESULT:      -8.5     23.488     24.963
REMARK  3 active torsions:
REMARK  status: ('A' for Active; 'I' for Inactive)
REMARK    1  A    between atoms: C5_12  and  N2_7 
REMARK    2  A    between atoms: C10_17  and  C7_14 
REMARK    3  A    between atoms: C10_17  and  C11_18 
ROOT
HETATM    1  O1  UNK     1      18.160   1.742  33.155  1.00  0.00    -0.267 OA
HETATM    2  N1  UNK     1      19.310  -0.257  32.646  1.00  0.00    -0.320 N 
HETATM    3  C1  UNK     1      19.747   0.083  30.415  1.00  0.00     0.009 A 
HETATM    4  C2  UNK     1      19.896  -0.793  31.494  1.00  0.00     0.079 A 
HETATM    5  C3  UNK     1      19.021   1.236  30.936  1.00  0.00     0.048 A 
HETATM    6  C4  UNK     1      18.745   0.997  32.392  1.00  0.00     0.257 A 
HETATM    7  C5  UNK     1      20.542  -2.008  31.377  1.00  0.00     0.130 A 
HETATM    8  C6  UNK     1      20.252  -0.241  29.169  1.00  0.00     0.015 A 
HETATM    9  C7  UNK     1      18.640   2.339  30.290  1.00  0.00     0.073 C 
HETATM   10  C8  UNK     1      21.054  -2.342  30.122  1.00  0.00     0.038 A 
HETATM   11  C9  UNK     1      20.910  -1.467  29.027  1.00  0.00     0.003 A 
HETATM   12  H1  UNK     1      19.301  -0.723  33.545  1.00  0.00     0.169 HD
ENDROOT
BRANCH   9  13
HETATM   13  C10 UNK     1      17.901   3.411  31.012  1.00  0.00     0.183 C 
HETATM   14  O2  UNK     1      16.682   3.398  31.137  1.00  0.00    -0.288 OA
BRANCH  13  15
HETATM   15  C11 UNK     1      18.692   4.508  31.621  1.00  0.00     0.014 A 
HETATM   16  C12 UNK     1      18.368   4.940  32.892  1.00  0.00     0.018 A 
HETATM   17  C14 UNK     1      19.113   5.971  33.465  1.00  0.00     0.043 A 
HETATM   18  C16 UNK     1      20.167   6.547  32.756  1.00  0.00     0.116 A 
HETATM   19  C15 UNK     1      20.475   6.094  31.474  1.00  0.00     0.043 A 
HETATM   20  F1  UNK     1      20.882   7.537  33.306  1.00  0.00    -0.206 F 
HETATM   21  C13 UNK     1      19.731   5.062  30.900  1.00  0.00     0.018 A 
ENDBRANCH  13  15
ENDBRANCH   9  13
BRANCH   7  22
HETATM   22  N2  UNK     1      20.691  -2.895  32.474  1.00  0.00    -0.113 N 
HETATM   23  O3  UNK     1      20.199  -2.578  33.585  1.00  0.00    -0.532 OA
HETATM   24  O4  UNK     1      21.314  -3.972  32.306  1.00  0.00    -0.532 OA
ENDBRANCH   7  22
TORSDOF 3
ENDMDL
MODEL 4
REMARK VINA RESULT:      -8.4     23.015     24.679
REMARK  3 active torsions:
REMARK  status: ('A' for Active; 'I' for Inactive)
REMARK    1  A    between atoms: C5_12  and  N2_7 
REMARK    2  A    between atoms: C10_17  and  C7_14 
REMARK    3  A    between atoms: C10_17  and  C11_18 
ROOT
HETATM    1  O1  UNK     1      18.588   5.500  30.060  1.00  0.00    -0.267 OA
HETATM    2  N1  UNK     1      19.064   3.188  29.973  1.00  0.00    -0.320 N 
HETATM    3  C1  UNK     1      18.435   2.562  32.094  1.00  0.00     0.009 A 
HETATM    4  C2  UNK     1      18.951   2.122  30.872  1.00  0.00     0.079 A 
HETATM    5  C3  UNK     1      18.214   3.996  31.938  1.00  0.00     0.048 A 
HETATM    6  C4  UNK     1      18.630   4.386  30.549  1.00  0.00     0.257 A 
HETATM    7  C5  UNK     1      19.286   0.802  30.643  1.00  0.00     0.130 A 
HETATM    8  C6  UNK     1      18.236   1.677  33.136  1.00  0.00     0.015 A 
HETATM    9  C7  UNK     1      17.732   4.864  32.829  1.00  0.00     0.073 C 
HETATM   10  C8  UNK     1      19.088  -0.099  31.692  1.00  0.00     0.038 A 
HETATM   11  C9  UNK     1      18.569   0.334  32.927  1.00  0.00     0.003 A 
HETATM   12  H1  UNK     1      19.416   3.096  29.027  1.00  0.00     0.169 HD
ENDROOT
BRANCH   9  13
HETATM   13  C10 UNK     1      17.583   6.301  32.468  1.00  0.00     0.183 C 
HETATM   14  O2  UNK     1      16.705   6.700  31.710  1.00  0.00    -0.288 OA
BRANCH  13  15
HETATM   15  C11 UNK     1      18.521   7.271  33.084  1.00  0.00     0.014 A 
HETATM   16  C12 UNK     1      18.029   8.475  33.548  1.00  0.00     0.018 A 
HETATM   17  C14 UNK     1      18.912   9.386  34.128  1.00  0.00     0.043 A 
HETATM   18  C16 UNK     1      20.267   9.075  34.233  1.00  0.00     0.116 A 
HETATM   19  C15 UNK     1      20.741   7.853  33.756  1.00  0.00     0.043 A 
HETATM   20  F1  UNK     1      21.114   9.950  34.789  1.00  0.00    -0.206 F 
HETATM   21  C13 UNK     1      19.858   6.941  33.176  1.00  0.00     0.018 A 
ENDBRANCH  13  15
ENDBRANCH   9  13
BRANCH   7  22
HETATM   22  N2  UNK     1      19.810   0.357  29.402  1.00  0.00    -0.113 N 
HETATM   23  O3  UNK     1      19.146   0.555  28.355  1.00  0.00    -0.532 OA
HETATM   24  O4  UNK     1      20.923  -0.223  29.383  1.00  0.00    -0.532 OA
ENDBRANCH   7  22
TORSDOF 3
ENDMDL
MODEL 5
REMARK VINA RESULT:      -8.3      3.634      7.116
REMARK  3 active torsions:
REMARK  status: ('A' for Active; 'I' for Inactive)
REMARK    1  A    between atoms: C5_12  and  N2_7 
REMARK    2  A    between atoms: C10_17  and  C7_14 
REMARK    3  A    between atoms: C10_17  and  C11_18 
ROOT
HETATM    1  O1  UNK     1      11.559   7.965  10.061  1.00  0.00    -0.267 OA
HETATM    2  N1  UNK     1      13.714   8.898  10.314  1.00  0.00    -0.320 N 
HETATM    3  C1  UNK     1      15.011   7.050   9.884  1.00  0.00     0.009 A 
HETATM    4  C2  UNK     1      15.020   8.408  10.212  1.00  0.00     0.079 A 
HETATM    5  C3  UNK     1      13.604   6.676   9.776  1.00  0.00     0.048 A 
HETATM    6  C4  UNK     1      12.773   7.894  10.060  1.00  0.00     0.257 A 
HETATM    7  C5  UNK     1      16.191   9.116  10.398  1.00  0.00     0.130 A 
HETATM    8  C6  UNK     1      16.195   6.352   9.730  1.00  0.00     0.015 A 
HETATM    9  C7  UNK     1      13.081   5.485   9.481  1.00  0.00     0.073 C 
HETATM   10  C8  UNK     1      17.391   8.418  10.244  1.00  0.00     0.038 A 
HETATM   11  C9  UNK     1      17.393   7.049   9.914  1.00  0.00     0.003 A 
HETATM   12  H1  UNK     1      13.486   9.858  10.543  1.00  0.00     0.169 HD
ENDROOT
BRANCH   9  13
HETATM   13  C10 UNK     1      11.603   5.313   9.420  1.00  0.00     0.183 C 
HETATM   14  O2  UNK     1      10.952   4.890  10.369  1.00  0.00    -0.288 OA
BRANCH  13  15
HETATM   15  C11 UNK     1      10.911   5.702   8.167  1.00  0.00     0.014 A 
HETATM   16  C12 UNK     1       9.546   5.911   8.194  1.00  0.00     0.018 A 
HETATM   17  C14 UNK     1       8.897   6.278   7.015  1.00  0.00     0.043 A 
HETATM   18  C16 UNK     1       9.624   6.430   5.836  1.00  0.00     0.116 A 
HETATM   19  C15 UNK     1      11.002   6.214   5.833  1.00  0.00     0.043 A 
HETATM   20  F1  UNK     1       9.001   6.782   4.704  1.00  0.00    -0.206 F 
HETATM   21  C13 UNK     1      11.653   5.846   7.012  1.00  0.00     0.018 A 
ENDBRANCH  13  15
ENDBRANCH   9  13
BRANCH   7  22
HETATM   22  N2  UNK     1      16.198  10.495  10.731  1.00  0.00    -0.113 N 
HETATM   23  O3  UNK     1      15.265  10.957  11.433  1.00  0.00    -0.532 OA
HETATM   24  O4  UNK     1      17.136  11.217  10.314  1.00  0.00    -0.532 OA
ENDBRANCH   7  22
TORSDOF 3
ENDMDL
MODEL 6
REMARK VINA RESULT:      -8.2     29.504     31.460
REMARK  3 active torsions:
REMARK  status: ('A' for Active; 'I' for Inactive)
REMARK    1  A    between atoms: C5_12  and  N2_7 
REMARK    2  A    between atoms: C10_17  and  C7_14 
REMARK    3  A    between atoms: C10_17  and  C11_18 
ROOT
HETATM    1  O1  UNK     1      20.300  -4.737  34.603  1.00  0.00    -0.267 OA
HETATM    2  N1  UNK     1      20.176  -6.817  35.715  1.00  0.00    -0.320 N 
HETATM    3  C1  UNK     1      20.211  -6.112  37.902  1.00  0.00     0.009 A 
HETATM    4  C2  UNK     1      20.149  -7.221  37.054  1.00  0.00     0.079 A 
HETATM    5  C3  UNK     1      20.282  -4.946  37.028  1.00  0.00     0.048 A 
HETATM    6  C4  UNK     1      20.258  -5.425  35.605  1.00  0.00     0.257 A 
HETATM    7  C5  UNK     1      20.073  -8.514  37.531  1.00  0.00     0.130 A 
HETATM    8  C6  UNK     1      20.198  -6.272  39.276  1.00  0.00     0.015 A 
HETATM    9  C7  UNK     1      20.355  -3.657  37.366  1.00  0.00     0.073 C 
HETATM   10  C8  UNK     1      20.058  -8.684  38.917  1.00  0.00     0.038 A 
HETATM   11  C9  UNK     1      20.121  -7.574  39.781  1.00  0.00     0.003 A 
HETATM   12  H1  UNK     1      20.141  -7.457  34.930  1.00  0.00     0.169 HD
ENDROOT
BRANCH   9  13
HETATM   13  C10 UNK     1      20.419  -2.611  36.309  1.00  0.00     0.183 C 
HETATM   14  O2  UNK     1      21.442  -2.379  35.675  1.00  0.00    -0.288 OA
BRANCH  13  15
HETATM   15  C11 UNK     1      19.179  -1.854  36.009  1.00  0.00     0.014 A 
HETATM   16  C12 UNK     1      18.283  -1.605  37.030  1.00  0.00     0.018 A 
HETATM   17  C14 UNK     1      17.118  -0.892  36.746  1.00  0.00     0.043 A 
HETATM   18  C16 UNK     1      16.873  -0.442  35.449  1.00  0.00     0.116 A 
HETATM   19  C15 UNK     1      17.792  -0.706  34.435  1.00  0.00     0.043 A 
HETATM   20  F1  UNK     1      15.754   0.241  35.177  1.00  0.00    -0.206 F 
HETATM   21  C13 UNK     1      18.958  -1.419  34.717  1.00  0.00     0.018 A 
ENDBRANCH  13  15
ENDBRANCH   9  13
BRANCH   7  22
HETATM   22  N2  UNK     1      20.009  -9.638  36.668  1.00  0.00    -0.113 N 
HETATM   23  O3  UNK     1      19.206 -10.565  36.933  1.00  0.00    -0.532 OA
HETATM   24  O4  UNK     1      20.759  -9.676  35.662  1.00  0.00    -0.532 OA
ENDBRANCH   7  22
TORSDOF 3
ENDMDL
MODEL 7
REMARK VINA RESULT:      -8.2     23.832     25.989
REMARK  3 active torsions:
REMARK  status: ('A' for Active; 'I' for Inactive)
REMARK    1  A    between atoms: C5_12  and  N2_7 
REMARK    2  A    between atoms: C10_17  and  C7_14 
REMARK    3  A    between atoms: C10_17  and  C11_18 
ROOT
HETATM    1  O1  UNK     1      17.803   4.178  31.403  1.00  0.00    -0.267 OA
HETATM    2  N1  UNK     1      17.800   2.080  32.487  1.00  0.00    -0.320 N 
HETATM    3  C1  UNK     1      18.526   2.701  34.578  1.00  0.00     0.009 A 
HETATM    4  C2  UNK     1      18.117   1.633  33.775  1.00  0.00     0.079 A 
HETATM    5  C3  UNK     1      18.457   3.886  33.730  1.00  0.00     0.048 A 
HETATM    6  C4  UNK     1      17.982   3.461  32.370  1.00  0.00     0.257 A 
HETATM    7  C5  UNK     1      18.055   0.336  34.244  1.00  0.00     0.130 A 
HETATM    8  C6  UNK     1      18.889   2.494  35.896  1.00  0.00     0.015 A 
HETATM    9  C7  UNK     1      18.748   5.150  34.042  1.00  0.00     0.073 C 
HETATM   10  C8  UNK     1      18.420   0.119  35.574  1.00  0.00     0.038 A 
HETATM   11  C9  UNK     1      18.834   1.188  36.392  1.00  0.00     0.003 A 
HETATM   12  H1  UNK     1      17.481   1.474  31.741  1.00  0.00     0.169 HD
ENDROOT
BRANCH   9  13
HETATM   13  C10 UNK     1      18.609   6.223  33.020  1.00  0.00     0.183 C 
HETATM   14  O2  UNK     1      19.491   6.472  32.205  1.00  0.00    -0.288 OA
BRANCH  13  15
HETATM   15  C11 UNK     1      17.337   6.985  32.985  1.00  0.00     0.014 A 
HETATM   16  C12 UNK     1      16.942   7.572  31.798  1.00  0.00     0.018 A 
HETATM   17  C14 UNK     1      15.744   8.287  31.766  1.00  0.00     0.043 A 
HETATM   18  C16 UNK     1      14.968   8.400  32.918  1.00  0.00     0.116 A 
HETATM   19  C15 UNK     1      15.387   7.799  34.104  1.00  0.00     0.043 A 
HETATM   20  F1  UNK     1      13.818   9.087  32.886  1.00  0.00    -0.206 F 
HETATM   21  C13 UNK     1      16.585   7.084  34.138  1.00  0.00     0.018 A 
ENDBRANCH  13  15
ENDBRANCH   9  13
BRANCH   7  22
HETATM   22  N2  UNK     1      17.639  -0.747  33.426  1.00  0.00    -0.113 N 
HETATM   23  O3  UNK     1      18.379  -1.116  32.482  1.00  0.00    -0.532 OA
HETATM   24  O4  UNK     1      16.541  -1.305  33.667  1.00  0.00    -0.532 OA
ENDBRANCH   7  22
TORSDOF 3
ENDMDL
MODEL 8
REMARK VINA RESULT:      -8.1      3.954      7.306
REMARK  3 active torsions:
REMARK  status: ('A' for Active; 'I' for Inactive)
REMARK    1  A    between atoms: C5_12  and  N2_7 
REMARK    2  A    between atoms: C10_17  and  C7_14 
REMARK    3  A    between atoms: C10_17  and  C11_18 
ROOT
HETATM    1  O1  UNK     1       9.841   3.926   9.796  1.00  0.00    -0.267 OA
HETATM    2  N1  UNK     1      12.017   4.834   9.652  1.00  0.00    -0.320 N 
HETATM    3  C1  UNK     1      11.540   6.892   8.745  1.00  0.00     0.009 A 
HETATM    4  C2  UNK     1      12.553   6.047   9.206  1.00  0.00     0.079 A 
HETATM    5  C3  UNK     1      10.295   6.151   8.918  1.00  0.00     0.048 A 
HETATM    6  C4  UNK     1      10.626   4.812   9.511  1.00  0.00     0.257 A 
HETATM    7  C5  UNK     1      13.884   6.414   9.196  1.00  0.00     0.130 A 
HETATM    8  C6  UNK     1      11.838   8.149   8.254  1.00  0.00     0.015 A 
HETATM    9  C7  UNK     1       9.051   6.535   8.625  1.00  0.00     0.073 C 
HETATM   10  C8  UNK     1      14.193   7.683   8.701  1.00  0.00     0.038 A 
HETATM   11  C9  UNK     1      13.180   8.542   8.234  1.00  0.00     0.003 A 
HETATM   12  H1  UNK     1      12.572   4.074  10.028  1.00  0.00     0.169 HD
ENDROOT
BRANCH   9  13
HETATM   13  C10 UNK     1       7.906   5.619   8.883  1.00  0.00     0.183 C 
HETATM   14  O2  UNK     1       7.567   4.752   8.086  1.00  0.00    -0.288 OA
BRANCH  13  15
HETATM   15  C11 UNK     1       7.184   5.760  10.171  1.00  0.00     0.014 A 
HETATM   16  C12 UNK     1       6.691   4.627  10.788  1.00  0.00     0.018 A 
HETATM   17  C14 UNK     1       6.013   4.760  12.000  1.00  0.00     0.043 A 
HETATM   18  C16 UNK     1       5.842   6.020  12.570  1.00  0.00     0.116 A 
HETATM   19  C15 UNK     1       6.349   7.150  11.928  1.00  0.00     0.043 A 
HETATM   20  F1  UNK     1       5.191   6.148  13.733  1.00  0.00    -0.206 F 
HETATM   21  C13 UNK     1       7.027   7.018  10.716  1.00  0.00     0.018 A 
ENDBRANCH  13  15
ENDBRANCH   9  13
BRANCH   7  22
HETATM   22  N2  UNK     1      14.911   5.555   9.664  1.00  0.00    -0.113 N 
HETATM   23  O3  UNK     1      15.968   5.448   8.997  1.00  0.00    -0.532 OA
HETATM   24  O4  UNK     1      14.734   4.922  10.734  1.00  0.00    -0.532 OA
ENDBRANCH   7  22
TORSDOF 3
ENDMDL
MODEL 9
REMARK VINA RESULT:      -8.1     23.549     25.756
REMARK  3 active torsions:
REMARK  status: ('A' for Active; 'I' for Inactive)
REMARK    1  A    between atoms: C5_12  and  N2_7 
REMARK    2  A    between atoms: C10_17  and  C7_14 
REMARK    3  A    between atoms: C10_17  and  C11_18 
ROOT
HETATM    1  O1  UNK     1      16.911   6.336  34.558  1.00  0.00    -0.267 OA
HETATM    2  N1  UNK     1      16.036   8.515  34.813  1.00  0.00    -0.320 N 
HETATM    3  C1  UNK     1      17.840   9.761  34.119  1.00  0.00     0.009 A 
HETATM    4  C2  UNK     1      16.527   9.808  34.596  1.00  0.00     0.079 A 
HETATM    5  C3  UNK     1      18.183   8.346  34.036  1.00  0.00     0.048 A 
HETATM    6  C4  UNK     1      16.995   7.548  34.492  1.00  0.00     0.257 A 
HETATM    7  C5  UNK     1      15.857  10.997  34.805  1.00  0.00     0.130 A 
HETATM    8  C6  UNK     1      18.528  10.926  33.834  1.00  0.00     0.015 A 
HETATM    9  C7  UNK     1      19.327   7.790  33.635  1.00  0.00     0.073 C 
HETATM   10  C8  UNK     1      16.546  12.178  34.519  1.00  0.00     0.038 A 
HETATM   11  C9  UNK     1      17.870  12.142  34.039  1.00  0.00     0.003 A 
HETATM   12  H1  UNK     1      15.106   8.313  35.157  1.00  0.00     0.169 HD
ENDROOT
BRANCH   9  13
HETATM   13  C10 UNK     1      19.476   6.309  33.624  1.00  0.00     0.183 C 
HETATM   14  O2  UNK     1      19.774   5.671  34.628  1.00  0.00    -0.288 OA
BRANCH  13  15
HETATM   15  C11 UNK     1      19.217   5.596  32.349  1.00  0.00     0.014 A 
HETATM   16  C12 UNK     1      18.530   4.398  32.380  1.00  0.00     0.018 A 
HETATM   17  C14 UNK     1      18.286   3.730  31.180  1.00  0.00     0.043 A 
HETATM   18  C16 UNK     1      18.732   4.272  29.976  1.00  0.00     0.116 A 
HETATM   19  C15 UNK     1      19.424   5.483  29.970  1.00  0.00     0.043 A 
HETATM   20  F1  UNK     1      18.498   3.630  28.824  1.00  0.00    -0.206 F 
HETATM   21  C13 UNK     1      19.668   6.153  31.169  1.00  0.00     0.018 A 
ENDBRANCH  13  15
ENDBRANCH   9  13
BRANCH   7  22
HETATM   22  N2  UNK     1      14.524  11.041  35.289  1.00  0.00    -0.113 N 
HETATM   23  O3  UNK     1      14.300  10.733  36.485  1.00  0.00    -0.532 OA
HETATM   24  O4  UNK     1      13.604  11.386  34.508  1.00  0.00    -0.532 OA
ENDBRANCH   7  22
TORSDOF 3
ENDMDL
MODEL 10
REMARK VINA RESULT:      -8.0     23.289     24.934
REMARK  3 active torsions:
REMARK  status: ('A' for Active; 'I' for Inactive)
REMARK    1  A    between atoms: C5_12  and  N2_7 
REMARK    2  A    between atoms: C10_17  and  C7_14 
REMARK    3  A    between atoms: C10_17  and  C11_18 
ROOT
HETATM    1  O1  UNK     1      17.658   3.686  33.983  1.00  0.00    -0.267 OA
HETATM    2  N1  UNK     1      18.443   1.678  33.018  1.00  0.00    -0.320 N 
HETATM    3  C1  UNK     1      18.699   2.349  30.834  1.00  0.00     0.009 A 
HETATM    4  C2  UNK     1      18.825   1.285  31.730  1.00  0.00     0.079 A 
HETATM    5  C3  UNK     1      18.208   3.475  31.620  1.00  0.00     0.048 A 
HETATM    6  C4  UNK     1      18.047   3.019  33.042  1.00  0.00     0.257 A 
HETATM    7  C5  UNK     1      19.269   0.037  31.340  1.00  0.00     0.130 A 
HETATM    8  C6  UNK     1      19.023   2.190  29.499  1.00  0.00     0.015 A 
HETATM    9  C7  UNK     1      17.931   4.715  31.214  1.00  0.00     0.073 C 
HETATM   10  C8  UNK     1      19.598  -0.132  29.993  1.00  0.00     0.038 A 
HETATM   11  C9  UNK     1      19.475   0.934  29.081  1.00  0.00     0.003 A 
HETATM   12  H1  UNK     1      18.456   1.065  33.824  1.00  0.00     0.169 HD
ENDROOT
BRANCH   9  13
HETATM   13  C10 UNK     1      17.435   5.728  32.186  1.00  0.00     0.183 C 
HETATM   14  O2  UNK     1      16.256   5.798  32.517  1.00  0.00    -0.288 OA
BRANCH  13  15
HETATM   15  C11 UNK     1      18.425   6.654  32.787  1.00  0.00     0.014 A 
HETATM   16  C12 UNK     1      19.770   6.357  32.680  1.00  0.00     0.018 A 
HETATM   17  C14 UNK     1      20.700   7.230  33.245  1.00  0.00     0.043 A 
HETATM   18  C16 UNK     1      20.268   8.380  33.903  1.00  0.00     0.116 A 
HETATM   19  C15 UNK     1      18.905   8.659  33.998  1.00  0.00     0.043 A 
HETATM   20  F1  UNK     1      21.161   9.218  34.445  1.00  0.00    -0.206 F 
HETATM   21  C13 UNK     1      17.973   7.787  33.433  1.00  0.00     0.018 A 
ENDBRANCH  13  15
ENDBRANCH   9  13
BRANCH   7  22
HETATM   22  N2  UNK     1      19.396  -1.042  32.252  1.00  0.00    -0.113 N 
HETATM   23  O3  UNK     1      20.497  -1.637  32.343  1.00  0.00    -0.532 OA
HETATM   24  O4  UNK     1      18.403  -1.374  32.944  1.00  0.00    -0.532 OA
ENDBRANCH   7  22
TORSDOF 3
ENDMDL
