MODEL 1
REMARK VINA RESULT:      -9.3      0.000      0.000
REMARK  4 active torsions:
REMARK  status: ('A' for Active; 'I' for Inactive)
REMARK       I    between atoms: C6_13  and  N1_6 
REMARK       I    between atoms: C14_21  and  N2_7 
REMARK    1  A    between atoms: C9_16  and  N2_7 
REMARK    2  A    between atoms: C6_13  and  C7_14 
REMARK    3  A    between atoms: C11_18  and  C8_15 
REMARK    4  A    between atoms: C14_21  and  C15_22 
ROOT
HETATM    1  S1  UNK     1      17.700  -1.874  37.611  1.00  0.00    -0.076 SA
HETATM    2  C7  UNK     1      19.378  -1.541  35.692  1.00  0.00     0.073 A 
HETATM    3  C8  UNK     1      18.857  -0.247  35.994  1.00  0.00    -0.027 A 
HETATM    4  C9  UNK     1      18.833  -2.517  36.499  1.00  0.00     0.093 A 
HETATM    5  C10 UNK     1      17.936  -0.286  37.017  1.00  0.00    -0.012 A 
HETATM    6  C12 UNK     1      17.172   0.829  37.622  1.00  0.00     0.057 C 
ENDROOT
BRANCH   4   7
HETATM    7  N2  UNK     1      19.044  -3.868  36.552  1.00  0.00    -0.316 N 
HETATM    8  C14 UNK     1      20.117  -4.524  37.169  1.00  0.00     0.262 C 
HETATM    9  O3  UNK     1      21.063  -4.035  37.774  1.00  0.00    -0.267 OA
HETATM   10  H13 UNK     1      18.341  -4.425  36.071  1.00  0.00     0.169 HD
BRANCH   8  11
HETATM   11  C15 UNK     1      20.034  -5.994  37.033  1.00  0.00     0.108 A 
HETATM   12  C16 UNK     1      19.880  -6.685  38.168  1.00  0.00     0.037 A 
HETATM   13  C17 UNK     1      19.789  -8.137  38.137  1.00  0.00    -0.001 A 
HETATM   14  C19 UNK     1      19.864  -8.789  36.911  1.00  0.00     0.089 A 
HETATM   15  C20 UNK     1      19.628  -8.898  39.297  1.00  0.00     0.014 A 
HETATM   16  O2  UNK     1      20.025  -8.057  35.719  1.00  0.00    -0.274 OA
HETATM   17  C21 UNK     1      19.784 -10.177  36.812  1.00  0.00     0.038 A 
HETATM   18  C18 UNK     1      20.115  -6.667  35.717  1.00  0.00     0.304 A 
HETATM   19  O4  UNK     1      20.257  -6.038  34.674  1.00  0.00    -0.259 OA
HETATM   20  C23 UNK     1      19.624 -10.929  37.974  1.00  0.00     0.003 A 
HETATM   21  C22 UNK     1      19.547 -10.291  39.214  1.00  0.00     0.001 A 
ENDBRANCH   8  11
ENDBRANCH   4   7
BRANCH   2  22
HETATM   22  C6  UNK     1      20.369  -1.837  34.664  1.00  0.00     0.257 C 
HETATM   23  O1  UNK     1      21.511  -2.145  35.003  1.00  0.00    -0.267 OA
HETATM   24  N1  UNK     1      19.954  -1.745  33.327  1.00  0.00    -0.348 N 
HETATM   25  C4  UNK     1      18.585  -1.463  32.869  1.00  0.00     0.126 C 
HETATM   26  C5  UNK     1      20.907  -2.025  32.251  1.00  0.00     0.126 C 
HETATM   27  C2  UNK     1      18.577  -0.291  31.892  1.00  0.00     0.020 C 
HETATM   28  C1  UNK     1      19.548  -0.534  30.736  1.00  0.00     0.003 C 
HETATM   29  C3  UNK     1      20.946  -0.871  31.252  1.00  0.00     0.020 C 
ENDBRANCH   2  22
BRANCH   3  30
HETATM   30  C11 UNK     1      19.259   0.994  35.289  1.00  0.00     0.036 C 
HETATM   31  C13 UNK     1      18.086   1.706  34.617  1.00  0.00     0.010 C 
ENDBRANCH   3  30
TORSDOF 4
ENDMDL
MODEL 2
REMARK VINA RESULT:      -8.9     10.672     12.798
REMARK  4 active torsions:
REMARK  status: ('A' for Active; 'I' for Inactive)
REMARK       I    between atoms: C6_13  and  N1_6 
REMARK       I    between atoms: C14_21  and  N2_7 
REMARK    1  A    between atoms: C9_16  and  N2_7 
REMARK    2  A    between atoms: C6_13  and  C7_14 
REMARK    3  A    between atoms: C11_18  and  C8_15 
REMARK    4  A    between atoms: C14_21  and  C15_22 
ROOT
HETATM    1  S1  UNK     1      32.327  -6.134  35.897  1.00  0.00    -0.076 SA
HETATM    2  C7  UNK     1      29.884  -6.729  36.432  1.00  0.00     0.073 A 
HETATM    3  C8  UNK     1      30.414  -6.126  37.611  1.00  0.00    -0.027 A 
HETATM    4  C9  UNK     1      30.820  -6.795  35.422  1.00  0.00     0.093 A 
HETATM    5  C10 UNK     1      31.732  -5.757  37.457  1.00  0.00    -0.012 A 
HETATM    6  C12 UNK     1      32.635  -5.108  38.434  1.00  0.00     0.057 C 
ENDROOT
BRANCH   4   7
HETATM    7  N2  UNK     1      30.741  -7.286  34.147  1.00  0.00    -0.316 N 
HETATM    8  C14 UNK     1      30.261  -6.610  33.018  1.00  0.00     0.262 C 
HETATM    9  O3  UNK     1      29.826  -5.468  32.942  1.00  0.00    -0.267 OA
HETATM   10  H13 UNK     1      31.055  -8.248  34.045  1.00  0.00     0.169 HD
BRANCH   8  11
HETATM   11  C15 UNK     1      30.317  -7.441  31.796  1.00  0.00     0.108 A 
HETATM   12  C16 UNK     1      29.142  -7.854  31.308  1.00  0.00     0.037 A 
HETATM   13  C17 UNK     1      29.094  -8.678  30.109  1.00  0.00    -0.001 A 
HETATM   14  C19 UNK     1      30.286  -9.025  29.483  1.00  0.00     0.089 A 
HETATM   15  C20 UNK     1      27.891  -9.131  29.566  1.00  0.00     0.014 A 
HETATM   16  O2  UNK     1      31.521  -8.586  30.001  1.00  0.00    -0.274 OA
HETATM   17  C21 UNK     1      30.310  -9.811  28.333  1.00  0.00     0.038 A 
HETATM   18  C18 UNK     1      31.598  -7.797  31.146  1.00  0.00     0.304 A 
HETATM   19  O4  UNK     1      32.678  -7.421  31.591  1.00  0.00    -0.259 OA
HETATM   20  C23 UNK     1      29.105 -10.260  27.797  1.00  0.00     0.003 A 
HETATM   21  C22 UNK     1      27.898  -9.921  28.412  1.00  0.00     0.001 A 
ENDBRANCH   8  11
ENDBRANCH   4   7
BRANCH   2  22
HETATM   22  C6  UNK     1      28.523  -7.226  36.273  1.00  0.00     0.257 C 
HETATM   23  O1  UNK     1      27.720  -6.576  35.603  1.00  0.00    -0.267 OA
HETATM   24  N1  UNK     1      28.202  -8.436  36.909  1.00  0.00    -0.348 N 
HETATM   25  C4  UNK     1      29.140  -9.291  37.650  1.00  0.00     0.126 C 
HETATM   26  C5  UNK     1      26.848  -8.981  36.790  1.00  0.00     0.126 C 
HETATM   27  C2  UNK     1      28.607  -9.586  39.049  1.00  0.00     0.020 C 
HETATM   28  C1  UNK     1      27.196 -10.172  38.987  1.00  0.00     0.003 C 
HETATM   29  C3  UNK     1      26.264  -9.280  38.168  1.00  0.00     0.020 C 
ENDBRANCH   2  22
BRANCH   3  30
HETATM   30  C11 UNK     1      29.638  -5.922  38.859  1.00  0.00     0.036 C 
HETATM   31  C13 UNK     1      29.111  -4.495  39.007  1.00  0.00     0.010 C 
ENDBRANCH   3  30
TORSDOF 4
ENDMDL
MODEL 3
REMARK VINA RESULT:      -8.6     11.359     12.926
REMARK  4 active torsions:
REMARK  status: ('A' for Active; 'I' for Inactive)
REMARK       I    between atoms: C6_13  and  N1_6 
REMARK       I    between atoms: C14_21  and  N2_7 
REMARK    1  A    between atoms: C9_16  and  N2_7 
REMARK    2  A    between atoms: C6_13  and  C7_14 
REMARK    3  A    between atoms: C11_18  and  C8_15 
REMARK    4  A    between atoms: C14_21  and  C15_22 
ROOT
HETATM    1  S1  UNK     1      28.409  -7.608  36.710  1.00  0.00    -0.076 SA
HETATM    2  C7  UNK     1      30.430  -6.020  36.615  1.00  0.00     0.073 A 
HETATM    3  C8  UNK     1      29.919  -5.935  37.944  1.00  0.00    -0.027 A 
HETATM    4  C9  UNK     1      29.700  -6.896  35.838  1.00  0.00     0.093 A 
HETATM    5  C10 UNK     1      28.822  -6.746  38.131  1.00  0.00    -0.012 A 
HETATM    6  C12 UNK     1      28.009  -6.943  39.352  1.00  0.00     0.057 C 
ENDROOT
BRANCH   4   7
HETATM    7  N2  UNK     1      29.839  -7.274  34.530  1.00  0.00    -0.316 N 
HETATM    8  C14 UNK     1      29.052  -6.853  33.450  1.00  0.00     0.262 C 
HETATM    9  O3  UNK     1      28.103  -6.079  33.454  1.00  0.00    -0.267 OA
HETATM   10  H13 UNK     1      30.588  -7.940  34.359  1.00  0.00     0.169 HD
BRANCH   8  11
HETATM   11  C15 UNK     1      29.478  -7.460  32.170  1.00  0.00     0.108 A 
HETATM   12  C16 UNK     1      28.532  -8.102  31.476  1.00  0.00     0.037 A 
HETATM   13  C17 UNK     1      28.855  -8.732  30.205  1.00  0.00    -0.001 A 
HETATM   14  C19 UNK     1      30.160  -8.655  29.728  1.00  0.00     0.089 A 
HETATM   15  C20 UNK     1      27.900  -9.412  29.447  1.00  0.00     0.014 A 
HETATM   16  O2  UNK     1      31.152  -7.977  30.463  1.00  0.00    -0.274 OA
HETATM   17  C21 UNK     1      30.535  -9.237  28.519  1.00  0.00     0.038 A 
HETATM   18  C18 UNK     1      30.873  -7.364  31.682  1.00  0.00     0.304 A 
HETATM   19  O4  UNK     1      31.744  -6.777  32.316  1.00  0.00    -0.259 OA
HETATM   20  C23 UNK     1      29.576  -9.915  27.770  1.00  0.00     0.003 A 
HETATM   21  C22 UNK     1      28.261 -10.002  28.232  1.00  0.00     0.001 A 
ENDBRANCH   8  11
ENDBRANCH   4   7
BRANCH   2  22
HETATM   22  C6  UNK     1      31.581  -5.289  36.100  1.00  0.00     0.257 C 
HETATM   23  O1  UNK     1      31.451  -4.103  35.794  1.00  0.00    -0.267 OA
HETATM   24  N1  UNK     1      32.788  -5.994  35.978  1.00  0.00    -0.348 N 
HETATM   25  C4  UNK     1      33.019  -7.382  36.404  1.00  0.00     0.126 C 
HETATM   26  C5  UNK     1      33.977  -5.313  35.461  1.00  0.00     0.126 C 
HETATM   27  C2  UNK     1      33.595  -8.207  35.257  1.00  0.00     0.020 C 
HETATM   28  C1  UNK     1      34.850  -7.549  34.684  1.00  0.00     0.003 C 
HETATM   29  C3  UNK     1      34.583  -6.095  34.298  1.00  0.00     0.020 C 
ENDBRANCH   2  22
BRANCH   3  30
HETATM   30  C11 UNK     1      30.500  -5.072  39.002  1.00  0.00     0.036 C 
HETATM   31  C13 UNK     1      29.651  -3.837  39.298  1.00  0.00     0.010 C 
ENDBRANCH   3  30
TORSDOF 4
ENDMDL
MODEL 4
REMARK VINA RESULT:      -8.5     10.146     12.368
REMARK  4 active torsions:
REMARK  status: ('A' for Active; 'I' for Inactive)
REMARK       I    between atoms: C6_13  and  N1_6 
REMARK       I    between atoms: C14_21  and  N2_7 
REMARK    1  A    between atoms: C9_16  and  N2_7 
REMARK    2  A    between atoms: C6_13  and  C7_14 
REMARK    3  A    between atoms: C11_18  and  C8_15 
REMARK    4  A    between atoms: C14_21  and  C15_22 
ROOT
HETATM    1  S1  UNK     1      31.791  -6.079  35.304  1.00  0.00    -0.076 SA
HETATM    2  C7  UNK     1      29.581  -6.587  36.515  1.00  0.00     0.073 A 
HETATM    3  C8  UNK     1      30.443  -6.004  37.490  1.00  0.00    -0.027 A 
HETATM    4  C9  UNK     1      30.190  -6.686  35.281  1.00  0.00     0.093 A 
HETATM    5  C10 UNK     1      31.675  -5.680  36.965  1.00  0.00    -0.012 A 
HETATM    6  C12 UNK     1      32.839  -5.064  37.639  1.00  0.00     0.057 C 
ENDROOT
BRANCH   4   7
HETATM    7  N2  UNK     1      29.736  -7.175  34.086  1.00  0.00    -0.316 N 
HETATM    8  C14 UNK     1      29.448  -6.432  32.934  1.00  0.00     0.262 C 
HETATM    9  O3  UNK     1      29.541  -5.223  32.764  1.00  0.00    -0.267 OA
HETATM   10  H13 UNK     1      29.589  -8.181  34.070  1.00  0.00     0.169 HD
BRANCH   8  11
HETATM   11  C15 UNK     1      28.975  -7.280  31.819  1.00  0.00     0.108 A 
HETATM   12  C16 UNK     1      29.891  -8.072  31.248  1.00  0.00     0.037 A 
HETATM   13  C17 UNK     1      29.522  -8.942  30.142  1.00  0.00    -0.001 A 
HETATM   14  C19 UNK     1      28.206  -8.936  29.692  1.00  0.00     0.089 A 
HETATM   15  C20 UNK     1      30.444  -9.783  29.517  1.00  0.00     0.014 A 
HETATM   16  O2  UNK     1      27.246  -8.101  30.297  1.00  0.00    -0.274 OA
HETATM   17  C21 UNK     1      27.787  -9.745  28.638  1.00  0.00     0.038 A 
HETATM   18  C18 UNK     1      27.569  -7.258  31.357  1.00  0.00     0.304 A 
HETATM   19  O4  UNK     1      26.726  -6.534  31.877  1.00  0.00    -0.259 OA
HETATM   20  C23 UNK     1      28.714 -10.581  28.019  1.00  0.00     0.003 A 
HETATM   21  C22 UNK     1      30.039 -10.601  28.458  1.00  0.00     0.001 A 
ENDBRANCH   8  11
ENDBRANCH   4   7
BRANCH   2  22
HETATM   22  C6  UNK     1      28.214  -7.037  36.752  1.00  0.00     0.257 C 
HETATM   23  O1  UNK     1      27.277  -6.303  36.438  1.00  0.00    -0.267 OA
HETATM   24  N1  UNK     1      28.046  -8.300  37.341  1.00  0.00    -0.348 N 
HETATM   25  C4  UNK     1      29.123  -9.249  37.659  1.00  0.00     0.126 C 
HETATM   26  C5  UNK     1      26.697  -8.802  37.608  1.00  0.00     0.126 C 
HETATM   27  C2  UNK     1      29.044  -9.680  39.121  1.00  0.00     0.020 C 
HETATM   28  C1  UNK     1      27.656 -10.227  39.457  1.00  0.00     0.003 C 
HETATM   29  C3  UNK     1      26.563  -9.234  39.067  1.00  0.00     0.020 C 
ENDBRANCH   2  22
BRANCH   3  30
HETATM   30  C11 UNK     1      30.059  -5.772  38.904  1.00  0.00     0.036 C 
HETATM   31  C13 UNK     1      29.521  -4.364  39.153  1.00  0.00     0.010 C 
ENDBRANCH   3  30
TORSDOF 4
ENDMDL
MODEL 5
REMARK VINA RESULT:      -8.3     11.073     12.604
REMARK  4 active torsions:
REMARK  status: ('A' for Active; 'I' for Inactive)
REMARK       I    between atoms: C6_13  and  N1_6 
REMARK       I    between atoms: C14_21  and  N2_7 
REMARK    1  A    between atoms: C9_16  and  N2_7 
REMARK    2  A    between atoms: C6_13  and  C7_14 
REMARK    3  A    between atoms: C11_18  and  C8_15 
REMARK    4  A    between atoms: C14_21  and  C15_22 
ROOT
HETATM    1  S1  UNK     1      33.613  -7.616  33.412  1.00  0.00    -0.076 SA
HETATM    2  C7  UNK     1      31.683  -8.473  31.945  1.00  0.00     0.073 A 
HETATM    3  C8  UNK     1      32.700  -8.032  31.047  1.00  0.00    -0.027 A 
HETATM    4  C9  UNK     1      32.052  -8.304  33.263  1.00  0.00     0.093 A 
HETATM    5  C10 UNK     1      33.802  -7.543  31.712  1.00  0.00    -0.012 A 
HETATM    6  C12 UNK     1      35.058  -6.994  31.152  1.00  0.00     0.057 C 
ENDROOT
BRANCH   4   7
HETATM    7  N2  UNK     1      31.393  -8.587  34.429  1.00  0.00    -0.316 N 
HETATM    8  C14 UNK     1      30.758  -7.669  35.275  1.00  0.00     0.262 C 
HETATM    9  O3  UNK     1      30.665  -6.454  35.149  1.00  0.00    -0.267 OA
HETATM   10  H13 UNK     1      31.395  -9.570  34.687  1.00  0.00     0.169 HD
BRANCH   8  11
HETATM   11  C15 UNK     1      30.143  -8.318  36.453  1.00  0.00     0.108 A 
HETATM   12  C16 UNK     1      28.865  -8.009  36.700  1.00  0.00     0.037 A 
HETATM   13  C17 UNK     1      28.174  -8.596  37.837  1.00  0.00    -0.001 A 
HETATM   14  C19 UNK     1      28.864  -9.482  38.659  1.00  0.00     0.089 A 
HETATM   15  C20 UNK     1      26.842  -8.302  38.131  1.00  0.00     0.014 A 
HETATM   16  O2  UNK     1      30.209  -9.804  38.394  1.00  0.00    -0.274 OA
HETATM   17  C21 UNK     1      28.261 -10.079  39.764  1.00  0.00     0.038 A 
HETATM   18  C18 UNK     1      30.896  -9.258  37.314  1.00  0.00     0.304 A 
HETATM   19  O4  UNK     1      32.069  -9.544  37.092  1.00  0.00    -0.259 OA
HETATM   20  C23 UNK     1      26.931  -9.779  40.051  1.00  0.00     0.003 A 
HETATM   21  C22 UNK     1      26.222  -8.893  39.237  1.00  0.00     0.001 A 
ENDBRANCH   8  11
ENDBRANCH   4   7
BRANCH   2  22
HETATM   22  C6  UNK     1      30.398  -9.042  31.557  1.00  0.00     0.257 C 
HETATM   23  O1  UNK     1      30.327 -10.243  31.297  1.00  0.00    -0.267 OA
HETATM   24  N1  UNK     1      29.301  -8.169  31.498  1.00  0.00    -0.348 N 
HETATM   25  C4  UNK     1      29.312  -6.748  31.877  1.00  0.00     0.126 C 
HETATM   26  C5  UNK     1      27.986  -8.682  31.109  1.00  0.00     0.126 C 
HETATM   27  C2  UNK     1      28.768  -5.886  30.742  1.00  0.00     0.020 C 
HETATM   28  C1  UNK     1      27.386  -6.368  30.301  1.00  0.00     0.003 C 
HETATM   29  C3  UNK     1      27.404  -7.858  29.962  1.00  0.00     0.020 C 
ENDBRANCH   2  22
BRANCH   3  30
HETATM   30  C11 UNK     1      32.584  -8.092  29.569  1.00  0.00     0.036 C 
HETATM   31  C13 UNK     1      31.795  -6.921  28.984  1.00  0.00     0.010 C 
ENDBRANCH   3  30
TORSDOF 4
ENDMDL
MODEL 6
REMARK VINA RESULT:      -8.2      9.464     10.924
REMARK  4 active torsions:
REMARK  status: ('A' for Active; 'I' for Inactive)
REMARK       I    between atoms: C6_13  and  N1_6 
REMARK       I    between atoms: C14_21  and  N2_7 
REMARK    1  A    between atoms: C9_16  and  N2_7 
REMARK    2  A    between atoms: C6_13  and  C7_14 
REMARK    3  A    between atoms: C11_18  and  C8_15 
REMARK    4  A    between atoms: C14_21  and  C15_22 
ROOT
HETATM    1  S1  UNK     1      30.250  -6.166  38.330  1.00  0.00    -0.076 SA
HETATM    2  C7  UNK     1      30.940  -7.329  36.143  1.00  0.00     0.073 A 
HETATM    3  C8  UNK     1      32.086  -6.607  36.589  1.00  0.00    -0.027 A 
HETATM    4  C9  UNK     1      29.869  -7.175  36.999  1.00  0.00     0.093 A 
HETATM    5  C10 UNK     1      31.849  -5.931  37.765  1.00  0.00    -0.012 A 
HETATM    6  C12 UNK     1      32.769  -5.075  38.547  1.00  0.00     0.057 C 
ENDROOT
BRANCH   4   7
HETATM    7  N2  UNK     1      28.599  -7.681  36.957  1.00  0.00    -0.316 N 
HETATM    8  C14 UNK     1      28.130  -8.823  37.621  1.00  0.00     0.262 C 
HETATM    9  O3  UNK     1      28.747  -9.583  38.357  1.00  0.00    -0.267 OA
HETATM   10  H13 UNK     1      27.957  -7.163  36.363  1.00  0.00     0.169 HD
BRANCH   8  11
HETATM   11  C15 UNK     1      26.700  -9.085  37.353  1.00  0.00     0.108 A 
HETATM   12  C16 UNK     1      26.413 -10.244  36.751  1.00  0.00     0.037 A 
HETATM   13  C17 UNK     1      25.034 -10.591  36.445  1.00  0.00    -0.001 A 
HETATM   14  C19 UNK     1      24.024  -9.698  36.789  1.00  0.00     0.089 A 
HETATM   15  C20 UNK     1      24.689 -11.789  35.817  1.00  0.00     0.014 A 
HETATM   16  O2  UNK     1      24.331  -8.479  37.424  1.00  0.00    -0.274 OA
HETATM   17  C21 UNK     1      22.683  -9.969  36.524  1.00  0.00     0.038 A 
HETATM   18  C18 UNK     1      25.641  -8.120  37.729  1.00  0.00     0.304 A 
HETATM   19  O4  UNK     1      25.900  -7.055  38.281  1.00  0.00    -0.259 OA
HETATM   20  C23 UNK     1      22.348 -11.167  35.897  1.00  0.00     0.003 A 
HETATM   21  C22 UNK     1      23.348 -12.076  35.544  1.00  0.00     0.001 A 
ENDBRANCH   8  11
ENDBRANCH   4   7
BRANCH   2  22
HETATM   22  C6  UNK     1      30.867  -8.143  34.936  1.00  0.00     0.257 C 
HETATM   23  O1  UNK     1      31.245  -9.314  34.977  1.00  0.00    -0.267 OA
HETATM   24  N1  UNK     1      30.365  -7.530  33.777  1.00  0.00    -0.348 N 
HETATM   25  C4  UNK     1      29.825  -6.165  33.692  1.00  0.00     0.126 C 
HETATM   26  C5  UNK     1      30.274  -8.296  32.533  1.00  0.00     0.126 C 
HETATM   27  C2  UNK     1      30.520  -5.381  32.583  1.00  0.00     0.020 C 
HETATM   28  C1  UNK     1      30.445  -6.129  31.252  1.00  0.00     0.003 C 
HETATM   29  C3  UNK     1      30.970  -7.557  31.392  1.00  0.00     0.020 C 
ENDBRANCH   2  22
BRANCH   3  30
HETATM   30  C11 UNK     1      33.384  -6.585  35.869  1.00  0.00     0.036 C 
HETATM   31  C13 UNK     1      33.478  -5.458  34.842  1.00  0.00     0.010 C 
ENDBRANCH   3  30
TORSDOF 4
ENDMDL
MODEL 7
REMARK VINA RESULT:      -8.2     10.798     12.348
REMARK  4 active torsions:
REMARK  status: ('A' for Active; 'I' for Inactive)
REMARK       I    between atoms: C6_13  and  N1_6 
REMARK       I    between atoms: C14_21  and  N2_7 
REMARK    1  A    between atoms: C9_16  and  N2_7 
REMARK    2  A    between atoms: C6_13  and  C7_14 
REMARK    3  A    between atoms: C11_18  and  C8_15 
REMARK    4  A    between atoms: C14_21  and  C15_22 
ROOT
HETATM    1  S1  UNK     1      32.813  -9.572  33.176  1.00  0.00    -0.076 SA
HETATM    2  C7  UNK     1      31.644  -7.669  31.902  1.00  0.00     0.073 A 
HETATM    3  C8  UNK     1      32.789  -8.022  31.128  1.00  0.00    -0.027 A 
HETATM    4  C9  UNK     1      31.538  -8.436  33.044  1.00  0.00     0.093 A 
HETATM    5  C10 UNK     1      33.512  -9.042  31.706  1.00  0.00    -0.012 A 
HETATM    6  C12 UNK     1      34.752  -9.690  31.225  1.00  0.00     0.057 C 
ENDROOT
BRANCH   4   7
HETATM    7  N2  UNK     1      30.611  -8.435  34.050  1.00  0.00    -0.316 N 
HETATM    8  C14 UNK     1      30.628  -7.639  35.203  1.00  0.00     0.262 C 
HETATM    9  O3  UNK     1      31.456  -6.801  35.538  1.00  0.00    -0.267 OA
HETATM   10  H13 UNK     1      29.852  -9.101  33.927  1.00  0.00     0.169 HD
BRANCH   8  11
HETATM   11  C15 UNK     1      29.468  -7.895  36.084  1.00  0.00     0.108 A 
HETATM   12  C16 UNK     1      29.695  -8.669  37.150  1.00  0.00     0.037 A 
HETATM   13  C17 UNK     1      28.615  -8.979  38.075  1.00  0.00    -0.001 A 
HETATM   14  C19 UNK     1      27.349  -8.457  37.831  1.00  0.00     0.089 A 
HETATM   15  C20 UNK     1      28.806  -9.783  39.200  1.00  0.00     0.014 A 
HETATM   16  O2  UNK     1      27.117  -7.641  36.706  1.00  0.00    -0.274 OA
HETATM   17  C21 UNK     1      26.273  -8.715  38.676  1.00  0.00     0.038 A 
HETATM   18  C18 UNK     1      28.129  -7.327  35.804  1.00  0.00     0.304 A 
HETATM   19  O4  UNK     1      27.917  -6.617  34.827  1.00  0.00    -0.259 OA
HETATM   20  C23 UNK     1      26.472  -9.519  39.797  1.00  0.00     0.003 A 
HETATM   21  C22 UNK     1      27.736 -10.052  40.059  1.00  0.00     0.001 A 
ENDBRANCH   8  11
ENDBRANCH   4   7
BRANCH   2  22
HETATM   22  C6  UNK     1      30.678  -6.631  31.563  1.00  0.00     0.257 C 
HETATM   23  O1  UNK     1      30.858  -5.485  31.977  1.00  0.00    -0.267 OA
HETATM   24  N1  UNK     1      29.579  -7.008  30.777  1.00  0.00    -0.348 N 
HETATM   25  C4  UNK     1      29.358  -8.338  30.190  1.00  0.00     0.126 C 
HETATM   26  C5  UNK     1      28.573  -6.009  30.410  1.00  0.00     0.126 C 
HETATM   27  C2  UNK     1      27.980  -8.871  30.571  1.00  0.00     0.020 C 
HETATM   28  C1  UNK     1      26.884  -7.872  30.198  1.00  0.00     0.003 C 
HETATM   29  C3  UNK     1      27.173  -6.492  30.785  1.00  0.00     0.020 C 
ENDBRANCH   2  22
BRANCH   3  30
HETATM   30  C11 UNK     1      33.159  -7.366  29.849  1.00  0.00     0.036 C 
HETATM   31  C13 UNK     1      32.760  -8.185  28.622  1.00  0.00     0.010 C 
ENDBRANCH   3  30
TORSDOF 4
ENDMDL
MODEL 8
REMARK VINA RESULT:      -8.2      8.907     10.608
REMARK  4 active torsions:
REMARK  status: ('A' for Active; 'I' for Inactive)
REMARK       I    between atoms: C6_13  and  N1_6 
REMARK       I    between atoms: C14_21  and  N2_7 
REMARK    1  A    between atoms: C9_16  and  N2_7 
REMARK    2  A    between atoms: C6_13  and  C7_14 
REMARK    3  A    between atoms: C11_18  and  C8_15 
REMARK    4  A    between atoms: C14_21  and  C15_22 
ROOT
HETATM    1  S1  UNK     1      30.809  -5.725  38.331  1.00  0.00    -0.076 SA
HETATM    2  C7  UNK     1      30.348  -7.364  36.404  1.00  0.00     0.073 A 
HETATM    3  C8  UNK     1      31.760  -7.160  36.424  1.00  0.00    -0.027 A 
HETATM    4  C9  UNK     1      29.710  -6.642  37.391  1.00  0.00     0.093 A 
HETATM    5  C10 UNK     1      32.144  -6.292  37.421  1.00  0.00    -0.012 A 
HETATM    6  C12 UNK     1      33.504  -5.823  37.771  1.00  0.00     0.057 C 
ENDROOT
BRANCH   4   7
HETATM    7  N2  UNK     1      28.386  -6.545  37.726  1.00  0.00    -0.316 N 
HETATM    8  C14 UNK     1      27.691  -7.354  38.634  1.00  0.00     0.262 C 
HETATM    9  O3  UNK     1      28.115  -8.292  39.298  1.00  0.00    -0.267 OA
HETATM   10  H13 UNK     1      27.880  -5.809  37.239  1.00  0.00     0.169 HD
BRANCH   8  11
HETATM   11  C15 UNK     1      26.268  -6.971  38.757  1.00  0.00     0.108 A 
HETATM   12  C16 UNK     1      25.385  -7.975  38.779  1.00  0.00     0.037 A 
HETATM   13  C17 UNK     1      23.962  -7.699  38.896  1.00  0.00    -0.001 A 
HETATM   14  C19 UNK     1      23.539  -6.377  38.986  1.00  0.00     0.089 A 
HETATM   15  C20 UNK     1      23.005  -8.715  38.922  1.00  0.00     0.014 A 
HETATM   16  O2  UNK     1      24.473  -5.323  38.964  1.00  0.00    -0.274 OA
HETATM   17  C21 UNK     1      22.191  -6.043  39.100  1.00  0.00     0.038 A 
HETATM   18  C18 UNK     1      25.841  -5.557  38.853  1.00  0.00     0.304 A 
HETATM   19  O4  UNK     1      26.648  -4.633  38.833  1.00  0.00    -0.259 OA
HETATM   20  C23 UNK     1      21.243  -7.064  39.125  1.00  0.00     0.003 A 
HETATM   21  C22 UNK     1      21.649  -8.397  39.036  1.00  0.00     0.001 A 
ENDBRANCH   8  11
ENDBRANCH   4   7
BRANCH   2  22
HETATM   22  C6  UNK     1      29.628  -8.224  35.472  1.00  0.00     0.257 C 
HETATM   23  O1  UNK     1      29.464  -9.411  35.755  1.00  0.00    -0.267 OA
HETATM   24  N1  UNK     1      29.162  -7.637  34.285  1.00  0.00    -0.348 N 
HETATM   25  C4  UNK     1      29.258  -6.213  33.937  1.00  0.00     0.126 C 
HETATM   26  C5  UNK     1      28.438  -8.453  33.309  1.00  0.00     0.126 C 
HETATM   27  C2  UNK     1      29.916  -6.038  32.571  1.00  0.00     0.020 C 
HETATM   28  C1  UNK     1      29.191  -6.859  31.504  1.00  0.00     0.003 C 
HETATM   29  C3  UNK     1      29.068  -8.323  31.924  1.00  0.00     0.020 C 
ENDBRANCH   2  22
BRANCH   3  30
HETATM   30  C11 UNK     1      32.704  -7.807  35.479  1.00  0.00     0.036 C 
HETATM   31  C13 UNK     1      33.050  -6.922  34.282  1.00  0.00     0.010 C 
ENDBRANCH   3  30
TORSDOF 4
ENDMDL
MODEL 9
REMARK VINA RESULT:      -8.1     11.776     13.123
REMARK  4 active torsions:
REMARK  status: ('A' for Active; 'I' for Inactive)
REMARK       I    between atoms: C6_13  and  N1_6 
REMARK       I    between atoms: C14_21  and  N2_7 
REMARK    1  A    between atoms: C9_16  and  N2_7 
REMARK    2  A    between atoms: C6_13  and  C7_14 
REMARK    3  A    between atoms: C11_18  and  C8_15 
REMARK    4  A    between atoms: C14_21  and  C15_22 
ROOT
HETATM    1  S1  UNK     1      28.012  -8.015  36.929  1.00  0.00    -0.076 SA
HETATM    2  C7  UNK     1      30.446  -7.306  37.358  1.00  0.00     0.073 A 
HETATM    3  C8  UNK     1      29.627  -6.342  38.019  1.00  0.00    -0.027 A 
HETATM    4  C9  UNK     1      29.693  -8.273  36.725  1.00  0.00     0.093 A 
HETATM    5  C10 UNK     1      28.285  -6.608  37.865  1.00  0.00    -0.012 A 
HETATM    6  C12 UNK     1      27.123  -5.857  38.389  1.00  0.00     0.057 C 
ENDROOT
BRANCH   4   7
HETATM    7  N2  UNK     1      30.061  -9.365  35.988  1.00  0.00    -0.316 N 
HETATM    8  C14 UNK     1      30.200  -9.426  34.595  1.00  0.00     0.262 C 
HETATM    9  O3  UNK     1      30.025  -8.536  33.772  1.00  0.00    -0.267 OA
HETATM   10  H13 UNK     1      30.229 -10.207  36.534  1.00  0.00     0.169 HD
BRANCH   8  11
HETATM   11  C15 UNK     1      30.613 -10.767  34.127  1.00  0.00     0.108 A 
HETATM   12  C16 UNK     1      30.250 -11.097  32.882  1.00  0.00     0.037 A 
HETATM   13  C17 UNK     1      30.609 -12.395  32.333  1.00  0.00    -0.001 A 
HETATM   14  C19 UNK     1      31.333 -13.282  33.122  1.00  0.00     0.089 A 
HETATM   15  C20 UNK     1      30.251 -12.781  31.040  1.00  0.00     0.014 A 
HETATM   16  O2  UNK     1      31.714 -12.929  34.431  1.00  0.00    -0.274 OA
HETATM   17  C21 UNK     1      31.708 -14.541  32.656  1.00  0.00     0.038 A 
HETATM   18  C18 UNK     1      31.385 -11.695  34.984  1.00  0.00     0.304 A 
HETATM   19  O4  UNK     1      31.719 -11.397  36.126  1.00  0.00    -0.259 OA
HETATM   20  C23 UNK     1      31.347 -14.918  31.365  1.00  0.00     0.003 A 
HETATM   21  C22 UNK     1      30.619 -14.040  30.558  1.00  0.00     0.001 A 
ENDBRANCH   8  11
ENDBRANCH   4   7
BRANCH   2  22
HETATM   22  C6  UNK     1      31.903  -7.306  37.332  1.00  0.00     0.257 C 
HETATM   23  O1  UNK     1      32.520  -7.900  38.217  1.00  0.00    -0.267 OA
HETATM   24  N1  UNK     1      32.527  -6.612  36.284  1.00  0.00    -0.348 N 
HETATM   25  C4  UNK     1      31.842  -5.957  35.160  1.00  0.00     0.126 C 
HETATM   26  C5  UNK     1      33.989  -6.572  36.210  1.00  0.00     0.126 C 
HETATM   27  C2  UNK     1      32.285  -4.502  35.035  1.00  0.00     0.020 C 
HETATM   28  C1  UNK     1      33.808  -4.399  34.940  1.00  0.00     0.003 C 
HETATM   29  C3  UNK     1      34.484  -5.132  36.098  1.00  0.00     0.020 C 
ENDBRANCH   2  22
BRANCH   3  30
HETATM   30  C11 UNK     1      30.160  -5.186  38.782  1.00  0.00     0.036 C 
HETATM   31  C13 UNK     1      30.200  -3.897  37.963  1.00  0.00     0.010 C 
ENDBRANCH   3  30
TORSDOF 4
ENDMDL
MODEL 10
REMARK VINA RESULT:      -8.1     11.923     13.702
REMARK  4 active torsions:
REMARK  status: ('A' for Active; 'I' for Inactive)
REMARK       I    between atoms: C6_13  and  N1_6 
REMARK       I    between atoms: C14_21  and  N2_7 
REMARK    1  A    between atoms: C9_16  and  N2_7 
REMARK    2  A    between atoms: C6_13  and  C7_14 
REMARK    3  A    between atoms: C11_18  and  C8_15 
REMARK    4  A    between atoms: C14_21  and  C15_22 
ROOT
HETATM    1  S1  UNK     1      31.079  -4.521  37.230  1.00  0.00    -0.076 SA
HETATM    2  C7  UNK     1      30.055  -6.877  37.113  1.00  0.00     0.073 A 
HETATM    3  C8  UNK     1      29.454  -6.237  38.238  1.00  0.00    -0.027 A 
HETATM    4  C9  UNK     1      30.959  -6.054  36.474  1.00  0.00     0.093 A 
HETATM    5  C10 UNK     1      29.921  -4.954  38.415  1.00  0.00    -0.012 A 
HETATM    6  C12 UNK     1      29.554  -3.967  39.454  1.00  0.00     0.057 C 
ENDROOT
BRANCH   4   7
HETATM    7  N2  UNK     1      31.747  -6.258  35.374  1.00  0.00    -0.316 N 
HETATM    8  C14 UNK     1      32.851  -7.114  35.283  1.00  0.00     0.262 C 
HETATM    9  O3  UNK     1      33.328  -7.838  36.149  1.00  0.00    -0.267 OA
HETATM   10  H13 UNK     1      31.487  -5.707  34.560  1.00  0.00     0.169 HD
BRANCH   8  11
HETATM   11  C15 UNK     1      33.475  -7.092  33.942  1.00  0.00     0.108 A 
HETATM   12  C16 UNK     1      32.737  -7.578  32.938  1.00  0.00     0.037 A 
HETATM   13  C17 UNK     1      33.265  -7.599  31.583  1.00  0.00    -0.001 A 
HETATM   14  C19 UNK     1      34.545  -7.106  31.352  1.00  0.00     0.089 A 
HETATM   15  C20 UNK     1      32.530  -8.097  30.505  1.00  0.00     0.014 A 
HETATM   16  O2  UNK     1      35.317  -6.595  32.413  1.00  0.00    -0.274 OA
HETATM   17  C21 UNK     1      35.110  -7.098  30.078  1.00  0.00     0.038 A 
HETATM   18  C18 UNK     1      34.839  -6.562  33.720  1.00  0.00     0.304 A 
HETATM   19  O4  UNK     1      35.520  -6.115  34.638  1.00  0.00    -0.259 OA
HETATM   20  C23 UNK     1      34.370  -7.597  29.009  1.00  0.00     0.003 A 
HETATM   21  C22 UNK     1      33.082  -8.096  29.221  1.00  0.00     0.001 A 
ENDBRANCH   8  11
ENDBRANCH   4   7
BRANCH   2  22
HETATM   22  C6  UNK     1      29.775  -8.234  36.659  1.00  0.00     0.257 C 
HETATM   23  O1  UNK     1      30.209  -9.186  37.309  1.00  0.00    -0.267 OA
HETATM   24  N1  UNK     1      29.018  -8.376  35.486  1.00  0.00    -0.348 N 
HETATM   25  C4  UNK     1      28.406  -7.279  34.721  1.00  0.00     0.126 C 
HETATM   26  C5  UNK     1      28.710  -9.714  34.979  1.00  0.00     0.126 C 
HETATM   27  C2  UNK     1      28.821  -7.353  33.254  1.00  0.00     0.020 C 
HETATM   28  C1  UNK     1      28.510  -8.729  32.665  1.00  0.00     0.003 C 
HETATM   29  C3  UNK     1      29.121  -9.843  33.514  1.00  0.00     0.020 C 
ENDBRANCH   2  22
BRANCH   3  30
HETATM   30  C11 UNK     1      28.444  -6.879  39.115  1.00  0.00     0.036 C 
HETATM   31  C13 UNK     1      27.011  -6.659  38.635  1.00  0.00     0.010 C 
ENDBRANCH   3  30
TORSDOF 4
ENDMDL
