MODEL 1
REMARK VINA RESULT:      -8.5      0.000      0.000
REMARK  6 active torsions:
REMARK  status: ('A' for Active; 'I' for Inactive)
REMARK    1  A    between atoms: C14_22  and  O3_4 
REMARK    2  A    between atoms: C20_28  and  O3_4 
REMARK    3  A    between atoms: C29_37  and  O6_7 
REMARK    4  A    between atoms: C12_20  and  C6_14 
REMARK    5  A    between atoms: C10_18  and  C14_22 
REMARK    6  A    between atoms: C20_28  and  C24_32 
ROOT
HETATM    1  O1  UNK     1      29.957  -9.821  36.738  1.00  0.00    -0.293 OA
HETATM    2  N1  UNK     1      29.306  -5.168  37.342  1.00  0.00    -0.362 N 
HETATM    3  C1  UNK     1      27.130  -8.114  38.236  1.00  0.00    -0.036 C 
HETATM    4  C2  UNK     1      27.416  -6.693  37.713  1.00  0.00     0.067 C 
HETATM    5  C3  UNK     1      27.729  -9.141  37.265  1.00  0.00     0.092 C 
HETATM    6  C4  UNK     1      28.849  -6.472  37.299  1.00  0.00     0.021 C 
HETATM    7  C5  UNK     1      29.682  -7.473  36.941  1.00  0.00     0.024 C 
HETATM    8  C6  UNK     1      31.125  -7.190  36.526  1.00  0.00     0.104 C 
HETATM    9  C7  UNK     1      29.194  -8.886  36.978  1.00  0.00     0.159 C 
HETATM   10  C8  UNK     1      25.608  -8.325  38.321  1.00  0.00     0.015 C 
HETATM   11  C9  UNK     1      27.719  -8.303  39.651  1.00  0.00     0.015 C 
HETATM   12  C10 UNK     1      31.539  -5.745  36.811  1.00  0.00     0.052 C 
HETATM   13  C11 UNK     1      30.632  -4.805  37.164  1.00  0.00     0.018 C 
HETATM   14  C13 UNK     1      30.931  -3.351  37.406  1.00  0.00     0.069 C 
HETATM   15  H12 UNK     1      28.651  -4.445  37.615  1.00  0.00     0.165 HD
ENDROOT
BRANCH   8  16
HETATM   16  C12 UNK     1      31.327  -7.511  35.065  1.00  0.00     0.029 A 
HETATM   17  C15 UNK     1      32.393  -8.474  34.691  1.00  0.00     0.194 A 
HETATM   18  O5  UNK     1      33.107  -9.012  35.529  1.00  0.00    -0.287 OA
HETATM   19  C17 UNK     1      32.549  -8.751  33.252  1.00  0.00     0.050 A 
HETATM   20  C18 UNK     1      31.708  -8.110  32.342  1.00  0.00     0.089 A 
HETATM   21  C19 UNK     1      33.525  -9.643  32.800  1.00  0.00     0.042 A 
HETATM   22  O2  UNK     1      30.733  -7.225  32.731  1.00  0.00    -0.321 OA
HETATM   23  C21 UNK     1      31.838  -8.357  30.976  1.00  0.00     0.040 A 
HETATM   24  C16 UNK     1      30.600  -6.976  34.075  1.00  0.00     0.154 A 
HETATM   25  C23 UNK     1      32.811  -9.248  30.522  1.00  0.00     0.026 A 
HETATM   26  C22 UNK     1      33.652  -9.889  31.432  1.00  0.00     0.035 A 
HETATM   27 Cl1  UNK     1      34.850 -10.986  30.864  1.00  0.00    -0.084 Cl
ENDBRANCH   8  16
BRANCH  12  28
HETATM   28  C14 UNK     1      32.978  -5.442  36.738  1.00  0.00     0.292 C 
HETATM   29  O4  UNK     1      33.735  -5.560  37.684  1.00  0.00    -0.259 OA
BRANCH  28  30
HETATM   30  O3  UNK     1      33.266  -5.031  35.479  1.00  0.00    -0.313 OA
BRANCH  30  31
HETATM   31  C20 UNK     1      34.634  -4.679  35.255  1.00  0.00     0.217 C 
BRANCH  31  32
HETATM   32  C24 UNK     1      35.295  -5.767  34.458  1.00  0.00    -0.034 A 
HETATM   33  C26 UNK     1      36.066  -6.723  35.108  1.00  0.00     0.012 A 
HETATM   34  C28 UNK     1      36.680  -7.734  34.368  1.00  0.00     0.037 A 
HETATM   35  C29 UNK     1      36.518  -7.781  32.984  1.00  0.00     0.068 A 
HETATM   36  C27 UNK     1      35.742  -6.817  32.339  1.00  0.00     0.037 A 
HETATM   37  C25 UNK     1      35.129  -5.806  33.079  1.00  0.00     0.012 A 
BRANCH  35  38
HETATM   38  O6  UNK     1      37.117  -8.767  32.261  1.00  0.00    -0.356 OA
HETATM   39  C30 UNK     1      37.585  -9.907  32.981  1.00  0.00     0.210 C 
ENDBRANCH  35  38
ENDBRANCH  31  32
ENDBRANCH  30  31
ENDBRANCH  28  30
ENDBRANCH  12  28
TORSDOF 6
ENDMDL
MODEL 2
REMARK VINA RESULT:      -8.5      1.423      1.666
REMARK  6 active torsions:
REMARK  status: ('A' for Active; 'I' for Inactive)
REMARK    1  A    between atoms: C14_22  and  O3_4 
REMARK    2  A    between atoms: C20_28  and  O3_4 
REMARK    3  A    between atoms: C29_37  and  O6_7 
REMARK    4  A    between atoms: C12_20  and  C6_14 
REMARK    5  A    between atoms: C10_18  and  C14_22 
REMARK    6  A    between atoms: C20_28  and  C24_32 
ROOT
HETATM    1  O1  UNK     1      28.951  -9.745  35.527  1.00  0.00    -0.293 OA
HETATM    2  N1  UNK     1      30.078  -6.090  38.322  1.00  0.00    -0.362 N 
HETATM    3  C1  UNK     1      27.159  -8.475  38.414  1.00  0.00    -0.036 C 
HETATM    4  C2  UNK     1      27.848  -7.101  38.526  1.00  0.00     0.067 C 
HETATM    5  C3  UNK     1      27.209  -8.949  36.954  1.00  0.00     0.092 C 
HETATM    6  C4  UNK     1      29.190  -7.034  37.840  1.00  0.00     0.021 C 
HETATM    7  C5  UNK     1      29.554  -7.860  36.836  1.00  0.00     0.024 C 
HETATM    8  C6  UNK     1      30.926  -7.743  36.174  1.00  0.00     0.104 C 
HETATM    9  C7  UNK     1      28.611  -8.927  36.381  1.00  0.00     0.159 C 
HETATM   10  C8  UNK     1      25.690  -8.343  38.854  1.00  0.00     0.015 C 
HETATM   11  C9  UNK     1      27.844  -9.505  39.337  1.00  0.00     0.015 C 
HETATM   12  C10 UNK     1      31.861  -6.801  36.937  1.00  0.00     0.052 C 
HETATM   13  C11 UNK     1      31.405  -6.005  37.932  1.00  0.00     0.018 C 
HETATM   14  C13 UNK     1      32.230  -5.006  38.697  1.00  0.00     0.069 C 
HETATM   15  H12 UNK     1      29.768  -5.489  39.075  1.00  0.00     0.165 HD
ENDROOT
BRANCH   8  16
HETATM   16  C12 UNK     1      30.786  -7.290  34.742  1.00  0.00     0.029 A 
HETATM   17  C15 UNK     1      31.458  -8.079  33.679  1.00  0.00     0.194 A 
HETATM   18  O5  UNK     1      32.117  -9.079  33.931  1.00  0.00    -0.287 OA
HETATM   19  C17 UNK     1      31.290  -7.593  32.298  1.00  0.00     0.050 A 
HETATM   20  C18 UNK     1      30.527  -6.447  32.070  1.00  0.00     0.089 A 
HETATM   21  C19 UNK     1      31.884  -8.267  31.228  1.00  0.00     0.042 A 
HETATM   22  O2  UNK     1      29.921  -5.746  33.083  1.00  0.00    -0.321 OA
HETATM   23  C21 UNK     1      30.355  -5.969  30.771  1.00  0.00     0.040 A 
HETATM   24  C16 UNK     1      30.087  -6.211  34.364  1.00  0.00     0.154 A 
HETATM   25  C23 UNK     1      30.946  -6.641  29.701  1.00  0.00     0.026 A 
HETATM   26  C22 UNK     1      31.709  -7.787  29.929  1.00  0.00     0.035 A 
HETATM   27 Cl1  UNK     1      32.436  -8.609  28.603  1.00  0.00    -0.084 Cl
ENDBRANCH   8  16
BRANCH  12  28
HETATM   28  C14 UNK     1      33.287  -6.845  36.574  1.00  0.00     0.292 C 
HETATM   29  O4  UNK     1      34.067  -7.664  37.025  1.00  0.00    -0.259 OA
BRANCH  28  30
HETATM   30  O3  UNK     1      33.534  -5.850  35.688  1.00  0.00    -0.313 OA
BRANCH  30  31
HETATM   31  C20 UNK     1      34.918  -5.551  35.483  1.00  0.00     0.217 C 
BRANCH  31  32
HETATM   32  C24 UNK     1      35.471  -6.482  34.444  1.00  0.00    -0.034 A 
HETATM   33  C26 UNK     1      36.644  -7.182  34.702  1.00  0.00     0.012 A 
HETATM   34  C28 UNK     1      37.157  -8.048  33.736  1.00  0.00     0.037 A 
HETATM   35  C29 UNK     1      36.495  -8.207  32.519  1.00  0.00     0.068 A 
HETATM   36  C27 UNK     1      35.318  -7.500  32.267  1.00  0.00     0.037 A 
HETATM   37  C25 UNK     1      34.805  -6.635  33.233  1.00  0.00     0.012 A 
BRANCH  35  38
HETATM   38  O6  UNK     1      36.996  -9.052  31.576  1.00  0.00    -0.356 OA
HETATM   39  C30 UNK     1      37.702 -10.201  32.043  1.00  0.00     0.210 C 
ENDBRANCH  35  38
ENDBRANCH  31  32
ENDBRANCH  30  31
ENDBRANCH  28  30
ENDBRANCH  12  28
TORSDOF 6
ENDMDL
MODEL 3
REMARK VINA RESULT:      -8.5      3.185      7.048
REMARK  6 active torsions:
REMARK  status: ('A' for Active; 'I' for Inactive)
REMARK    1  A    between atoms: C14_22  and  O3_4 
REMARK    2  A    between atoms: C20_28  and  O3_4 
REMARK    3  A    between atoms: C29_37  and  O6_7 
REMARK    4  A    between atoms: C12_20  and  C6_14 
REMARK    5  A    between atoms: C10_18  and  C14_22 
REMARK    6  A    between atoms: C20_28  and  C24_32 
ROOT
HETATM    1  O1  UNK     1      29.091  -6.011  31.664  1.00  0.00    -0.293 OA
HETATM    2  N1  UNK     1      31.975  -9.765  31.821  1.00  0.00    -0.362 N 
HETATM    3  C1  UNK     1      29.217  -8.855  29.418  1.00  0.00    -0.036 C 
HETATM    4  C2  UNK     1      30.047  -9.808  30.300  1.00  0.00     0.067 C 
HETATM    5  C3  UNK     1      28.449  -7.874  30.316  1.00  0.00     0.092 C 
HETATM    6  C4  UNK     1      30.846  -9.108  31.370  1.00  0.00     0.021 C 
HETATM    7  C5  UNK     1      30.530  -7.888  31.855  1.00  0.00     0.024 C 
HETATM    8  C6  UNK     1      31.373  -7.227  32.945  1.00  0.00     0.104 C 
HETATM    9  C7  UNK     1      29.350  -7.157  31.299  1.00  0.00     0.159 C 
HETATM   10  C8  UNK     1      28.213  -9.677  28.590  1.00  0.00     0.015 C 
HETATM   11  C9  UNK     1      30.129  -8.087  28.437  1.00  0.00     0.015 C 
HETATM   12  C10 UNK     1      32.685  -7.975  33.198  1.00  0.00     0.052 C 
HETATM   13  C11 UNK     1      32.915  -9.199  32.669  1.00  0.00     0.018 C 
HETATM   14  C13 UNK     1      34.142 -10.036  32.907  1.00  0.00     0.069 C 
HETATM   15  H12 UNK     1      32.179 -10.678  31.434  1.00  0.00     0.165 HD
ENDROOT
BRANCH   8  16
HETATM   16  C12 UNK     1      30.585  -7.111  34.227  1.00  0.00     0.029 A 
HETATM   17  C15 UNK     1      30.803  -5.922  35.088  1.00  0.00     0.194 A 
HETATM   18  O5  UNK     1      31.597  -5.039  34.789  1.00  0.00    -0.287 OA
HETATM   19  C17 UNK     1      30.009  -5.858  36.328  1.00  0.00     0.050 A 
HETATM   20  C18 UNK     1      29.118  -6.893  36.618  1.00  0.00     0.089 A 
HETATM   21  C19 UNK     1      30.142  -4.779  37.205  1.00  0.00     0.042 A 
HETATM   22  O2  UNK     1      28.947  -7.976  35.792  1.00  0.00    -0.321 OA
HETATM   23  C21 UNK     1      28.357  -6.854  37.786  1.00  0.00     0.040 A 
HETATM   24  C16 UNK     1      29.694  -8.022  34.641  1.00  0.00     0.154 A 
HETATM   25  C23 UNK     1      28.488  -5.776  38.662  1.00  0.00     0.026 A 
HETATM   26  C22 UNK     1      29.378  -4.742  38.373  1.00  0.00     0.035 A 
HETATM   27 Cl1  UNK     1      29.535  -3.417  39.460  1.00  0.00    -0.084 Cl
ENDBRANCH   8  16
BRANCH  12  28
HETATM   28  C14 UNK     1      33.704  -7.272  33.995  1.00  0.00     0.292 C 
HETATM   29  O4  UNK     1      34.161  -6.186  33.689  1.00  0.00    -0.259 OA
BRANCH  28  30
HETATM   30  O3  UNK     1      34.008  -8.038  35.071  1.00  0.00    -0.313 OA
BRANCH  30  31
HETATM   31  C20 UNK     1      33.750  -7.430  36.340  1.00  0.00     0.217 C 
BRANCH  31  32
HETATM   32  C24 UNK     1      32.730  -8.249  37.077  1.00  0.00    -0.034 A 
HETATM   33  C26 UNK     1      32.235  -9.412  36.500  1.00  0.00     0.012 A 
HETATM   34  C28 UNK     1      31.288 -10.173  37.185  1.00  0.00     0.037 A 
HETATM   35  C29 UNK     1      30.841  -9.766  38.441  1.00  0.00     0.068 A 
HETATM   36  C27 UNK     1      31.342  -8.595  39.014  1.00  0.00     0.037 A 
HETATM   37  C25 UNK     1      32.290  -7.835  38.329  1.00  0.00     0.012 A 
BRANCH  35  38
HETATM   38  O6  UNK     1      29.917 -10.507  39.110  1.00  0.00    -0.356 OA
HETATM   39  C30 UNK     1      28.628  -9.923  39.297  1.00  0.00     0.210 C 
ENDBRANCH  35  38
ENDBRANCH  31  32
ENDBRANCH  30  31
ENDBRANCH  28  30
ENDBRANCH  12  28
TORSDOF 6
ENDMDL
MODEL 4
REMARK VINA RESULT:      -8.4      2.805      4.057
REMARK  6 active torsions:
REMARK  status: ('A' for Active; 'I' for Inactive)
REMARK    1  A    between atoms: C14_22  and  O3_4 
REMARK    2  A    between atoms: C20_28  and  O3_4 
REMARK    3  A    between atoms: C29_37  and  O6_7 
REMARK    4  A    between atoms: C12_20  and  C6_14 
REMARK    5  A    between atoms: C10_18  and  C14_22 
REMARK    6  A    between atoms: C20_28  and  C24_32 
ROOT
HETATM    1  O1  UNK     1      27.429  -9.907  35.742  1.00  0.00    -0.293 OA
HETATM    2  N1  UNK     1      28.444  -5.720  37.710  1.00  0.00    -0.362 N 
HETATM    3  C1  UNK     1      26.052  -8.439  38.759  1.00  0.00    -0.036 C 
HETATM    4  C2  UNK     1      26.504  -6.983  38.533  1.00  0.00     0.067 C 
HETATM    5  C3  UNK     1      25.893  -9.136  37.400  1.00  0.00     0.092 C 
HETATM    6  C4  UNK     1      27.653  -6.844  37.565  1.00  0.00     0.021 C 
HETATM    7  C5  UNK     1      27.948  -7.766  36.625  1.00  0.00     0.024 C 
HETATM    8  C6  UNK     1      29.122  -7.571  35.667  1.00  0.00     0.104 C 
HETATM    9  C7  UNK     1      27.130  -9.015  36.535  1.00  0.00     0.159 C 
HETATM   10  C8  UNK     1      24.698  -8.440  39.491  1.00  0.00     0.015 C 
HETATM   11  C9  UNK     1      27.071  -9.196  39.637  1.00  0.00     0.015 C 
HETATM   12  C10 UNK     1      30.014  -6.395  36.072  1.00  0.00     0.052 C 
HETATM   13  C11 UNK     1      29.634  -5.517  37.029  1.00  0.00     0.018 C 
HETATM   14  C13 UNK     1      30.410  -4.300  37.454  1.00  0.00     0.069 C 
HETATM   15  H12 UNK     1      28.190  -5.051  38.427  1.00  0.00     0.165 HD
ENDROOT
BRANCH   8  16
HETATM   16  C12 UNK     1      28.627  -7.386  34.253  1.00  0.00     0.029 A 
HETATM   17  C15 UNK     1      28.906  -8.451  33.258  1.00  0.00     0.194 A 
HETATM   18  O5  UNK     1      29.522  -9.468  33.550  1.00  0.00    -0.287 OA
HETATM   19  C17 UNK     1      28.401  -8.219  31.893  1.00  0.00     0.050 A 
HETATM   20  C18 UNK     1      27.705  -7.042  31.617  1.00  0.00     0.089 A 
HETATM   21  C19 UNK     1      28.613  -9.163  30.885  1.00  0.00     0.042 A 
HETATM   22  O2  UNK     1      27.468  -6.081  32.569  1.00  0.00    -0.321 OA
HETATM   23  C21 UNK     1      27.219  -6.801  30.332  1.00  0.00     0.040 A 
HETATM   24  C16 UNK     1      27.945  -6.310  33.836  1.00  0.00     0.154 A 
HETATM   25  C23 UNK     1      27.429  -7.743  29.324  1.00  0.00     0.026 A 
HETATM   26  C22 UNK     1      28.125  -8.921  29.600  1.00  0.00     0.035 A 
HETATM   27 Cl1  UNK     1      28.380 -10.077  28.351  1.00  0.00    -0.084 Cl
ENDBRANCH   8  16
BRANCH  12  28
HETATM   28  C14 UNK     1      31.326  -6.301  35.412  1.00  0.00     0.292 C 
HETATM   29  O4  UNK     1      31.526  -5.636  34.412  1.00  0.00    -0.259 OA
BRANCH  28  30
HETATM   30  O3  UNK     1      32.209  -7.059  36.106  1.00  0.00    -0.313 OA
BRANCH  30  31
HETATM   31  C20 UNK     1      33.175  -7.749  35.307  1.00  0.00     0.217 C 
BRANCH  31  32
HETATM   32  C24 UNK     1      32.712  -9.160  35.089  1.00  0.00    -0.034 A 
HETATM   33  C26 UNK     1      31.949  -9.792  36.065  1.00  0.00     0.012 A 
HETATM   34  C28 UNK     1      31.519 -11.103  35.861  1.00  0.00     0.037 A 
HETATM   35  C29 UNK     1      31.853 -11.773  34.685  1.00  0.00     0.068 A 
HETATM   36  C27 UNK     1      32.619 -11.132  33.711  1.00  0.00     0.037 A 
HETATM   37  C25 UNK     1      33.050  -9.821  33.914  1.00  0.00     0.012 A 
BRANCH  35  38
HETATM   38  O6  UNK     1      31.433 -13.053  34.486  1.00  0.00    -0.356 OA
HETATM   39  C30 UNK     1      31.478 -13.550  33.149  1.00  0.00     0.210 C 
ENDBRANCH  35  38
ENDBRANCH  31  32
ENDBRANCH  30  31
ENDBRANCH  28  30
ENDBRANCH  12  28
TORSDOF 6
ENDMDL
MODEL 5
REMARK VINA RESULT:      -8.4      1.859      2.361
REMARK  6 active torsions:
REMARK  status: ('A' for Active; 'I' for Inactive)
REMARK    1  A    between atoms: C14_22  and  O3_4 
REMARK    2  A    between atoms: C20_28  and  O3_4 
REMARK    3  A    between atoms: C29_37  and  O6_7 
REMARK    4  A    between atoms: C12_20  and  C6_14 
REMARK    5  A    between atoms: C10_18  and  C14_22 
REMARK    6  A    between atoms: C20_28  and  C24_32 
ROOT
HETATM    1  O1  UNK     1      27.833  -9.847  35.657  1.00  0.00    -0.293 OA
HETATM    2  N1  UNK     1      29.306  -6.205  38.304  1.00  0.00    -0.362 N 
HETATM    3  C1  UNK     1      26.212  -8.347  38.534  1.00  0.00    -0.036 C 
HETATM    4  C2  UNK     1      27.009  -7.029  38.585  1.00  0.00     0.067 C 
HETATM    5  C3  UNK     1      26.191  -8.870  37.090  1.00  0.00     0.092 C 
HETATM    6  C4  UNK     1      28.336  -7.090  37.871  1.00  0.00     0.021 C 
HETATM    7  C5  UNK     1      28.612  -7.975  36.889  1.00  0.00     0.024 C 
HETATM    8  C6  UNK     1      29.973  -7.988  36.197  1.00  0.00     0.104 C 
HETATM    9  C7  UNK     1      27.577  -8.978  36.489  1.00  0.00     0.159 C 
HETATM   10  C8  UNK     1      24.768  -8.085  38.998  1.00  0.00     0.015 C 
HETATM   11  C9  UNK     1      26.835  -9.398  39.478  1.00  0.00     0.015 C 
HETATM   12  C10 UNK     1      30.996  -7.099  36.908  1.00  0.00     0.052 C 
HETATM   13  C11 UNK     1      30.627  -6.238  37.884  1.00  0.00     0.018 C 
HETATM   14  C13 UNK     1      31.544  -5.283  38.599  1.00  0.00     0.069 C 
HETATM   15  H12 UNK     1      29.061  -5.557  39.042  1.00  0.00     0.165 HD
ENDROOT
BRANCH   8  16
HETATM   16  C12 UNK     1      29.837  -7.572  34.752  1.00  0.00     0.029 A 
HETATM   17  C15 UNK     1      30.302  -8.507  33.698  1.00  0.00     0.194 A 
HETATM   18  O5  UNK     1      30.789  -9.598  33.964  1.00  0.00    -0.287 OA
HETATM   19  C17 UNK     1      30.147  -8.051  32.305  1.00  0.00     0.050 A 
HETATM   20  C18 UNK     1      29.585  -6.798  32.059  1.00  0.00     0.089 A 
HETATM   21  C19 UNK     1      30.555  -8.859  31.240  1.00  0.00     0.042 A 
HETATM   22  O2  UNK     1      29.167  -5.963  33.066  1.00  0.00    -0.321 OA
HETATM   23  C21 UNK     1      29.429  -6.346  30.749  1.00  0.00     0.040 A 
HETATM   24  C16 UNK     1      29.319  -6.401  34.358  1.00  0.00     0.154 A 
HETATM   25  C23 UNK     1      29.834  -7.152  29.685  1.00  0.00     0.026 A 
HETATM   26  C22 UNK     1      30.396  -8.405  29.930  1.00  0.00     0.035 A 
HETATM   27 Cl1  UNK     1      30.896  -9.393  28.612  1.00  0.00    -0.084 Cl
ENDBRANCH   8  16
BRANCH  12  28
HETATM   28  C14 UNK     1      32.406  -7.268  36.518  1.00  0.00     0.292 C 
HETATM   29  O4  UNK     1      33.115  -8.161  36.944  1.00  0.00    -0.259 OA
BRANCH  28  30
HETATM   30  O3  UNK     1      32.728  -6.286  35.641  1.00  0.00    -0.313 OA
BRANCH  30  31
HETATM   31  C20 UNK     1      34.131  -6.071  35.461  1.00  0.00     0.217 C 
BRANCH  31  32
HETATM   32  C24 UNK     1      34.526  -6.542  34.092  1.00  0.00    -0.034 A 
HETATM   33  C26 UNK     1      35.872  -6.622  33.755  1.00  0.00     0.012 A 
HETATM   34  C28 UNK     1      36.240  -7.061  32.482  1.00  0.00     0.037 A 
HETATM   35  C29 UNK     1      35.260  -7.416  31.557  1.00  0.00     0.068 A 
HETATM   36  C27 UNK     1      33.910  -7.332  31.903  1.00  0.00     0.037 A 
HETATM   37  C25 UNK     1      33.543  -6.894  33.175  1.00  0.00     0.012 A 
BRANCH  35  38
HETATM   38  O6  UNK     1      35.617  -7.844  30.315  1.00  0.00    -0.356 OA
HETATM   39  C30 UNK     1      34.902  -7.296  29.209  1.00  0.00     0.210 C 
ENDBRANCH  35  38
ENDBRANCH  31  32
ENDBRANCH  30  31
ENDBRANCH  28  30
ENDBRANCH  12  28
TORSDOF 6
ENDMDL
MODEL 6
REMARK VINA RESULT:      -8.4      2.433      5.986
REMARK  6 active torsions:
REMARK  status: ('A' for Active; 'I' for Inactive)
REMARK    1  A    between atoms: C14_22  and  O3_4 
REMARK    2  A    between atoms: C20_28  and  O3_4 
REMARK    3  A    between atoms: C29_37  and  O6_7 
REMARK    4  A    between atoms: C12_20  and  C6_14 
REMARK    5  A    between atoms: C10_18  and  C14_22 
REMARK    6  A    between atoms: C20_28  and  C24_32 
ROOT
HETATM    1  O1  UNK     1      30.631  -9.307  32.324  1.00  0.00    -0.293 OA
HETATM    2  N1  UNK     1      31.280  -4.810  33.661  1.00  0.00    -0.362 N 
HETATM    3  C1  UNK     1      28.697  -6.380  31.408  1.00  0.00    -0.036 C 
HETATM    4  C2  UNK     1      29.702  -5.295  31.842  1.00  0.00     0.067 C 
HETATM    5  C3  UNK     1      29.460  -7.662  31.049  1.00  0.00     0.092 C 
HETATM    6  C4  UNK     1      30.723  -5.775  32.843  1.00  0.00     0.021 C 
HETATM    7  C5  UNK     1      31.067  -7.072  32.989  1.00  0.00     0.024 C 
HETATM    8  C6  UNK     1      32.112  -7.501  34.018  1.00  0.00     0.104 C 
HETATM    9  C7  UNK     1      30.395  -8.112  32.151  1.00  0.00     0.159 C 
HETATM   10  C8  UNK     1      27.923  -5.887  30.172  1.00  0.00     0.015 C 
HETATM   11  C9  UNK     1      27.675  -6.657  32.532  1.00  0.00     0.015 C 
HETATM   12  C10 UNK     1      32.488  -6.366  34.973  1.00  0.00     0.052 C 
HETATM   13  C11 UNK     1      32.098  -5.091  34.744  1.00  0.00     0.018 C 
HETATM   14  C13 UNK     1      32.465  -3.901  35.588  1.00  0.00     0.069 C 
HETATM   15  H12 UNK     1      30.997  -3.848  33.520  1.00  0.00     0.165 HD
ENDROOT
BRANCH   8  16
HETATM   16  C12 UNK     1      33.346  -8.032  33.329  1.00  0.00     0.029 A 
HETATM   17  C15 UNK     1      33.756  -9.435  33.591  1.00  0.00     0.194 A 
HETATM   18  O5  UNK     1      33.126 -10.167  34.342  1.00  0.00    -0.287 OA
HETATM   19  C17 UNK     1      34.968  -9.902  32.894  1.00  0.00     0.050 A 
HETATM   20  C18 UNK     1      35.646  -9.024  32.047  1.00  0.00     0.089 A 
HETATM   21  C19 UNK     1      35.435 -11.206  33.074  1.00  0.00     0.042 A 
HETATM   22  O2  UNK     1      35.231  -7.733  31.834  1.00  0.00    -0.321 OA
HETATM   23  C21 UNK     1      36.795  -9.445  31.378  1.00  0.00     0.040 A 
HETATM   24  C16 UNK     1      34.101  -7.311  32.490  1.00  0.00     0.154 A 
HETATM   25  C23 UNK     1      37.263 -10.747  31.556  1.00  0.00     0.026 A 
HETATM   26  C22 UNK     1      36.585 -11.626  32.402  1.00  0.00     0.035 A 
HETATM   27 Cl1  UNK     1      37.169 -13.230  32.617  1.00  0.00    -0.084 Cl
ENDBRANCH   8  16
BRANCH  12  28
HETATM   28  C14 UNK     1      33.245  -6.739  36.180  1.00  0.00     0.292 C 
HETATM   29  O4  UNK     1      34.450  -6.601  36.283  1.00  0.00    -0.259 OA
BRANCH  28  30
HETATM   30  O3  UNK     1      32.375  -7.234  37.094  1.00  0.00    -0.313 OA
BRANCH  30  31
HETATM   31  C20 UNK     1      32.266  -6.473  38.301  1.00  0.00     0.217 C 
BRANCH  31  32
HETATM   32  C24 UNK     1      30.853  -5.986  38.446  1.00  0.00    -0.034 A 
HETATM   33  C26 UNK     1      29.801  -6.889  38.351  1.00  0.00     0.012 A 
HETATM   34  C28 UNK     1      28.489  -6.436  38.486  1.00  0.00     0.037 A 
HETATM   35  C29 UNK     1      28.237  -5.084  38.715  1.00  0.00     0.068 A 
HETATM   36  C27 UNK     1      29.299  -4.183  38.809  1.00  0.00     0.037 A 
HETATM   37  C25 UNK     1      30.612  -4.636  38.673  1.00  0.00     0.012 A 
BRANCH  35  38
HETATM   38  O6  UNK     1      26.957  -4.642  38.847  1.00  0.00    -0.356 OA
HETATM   39  C30 UNK     1      25.921  -5.619  38.767  1.00  0.00     0.210 C 
ENDBRANCH  35  38
ENDBRANCH  31  32
ENDBRANCH  30  31
ENDBRANCH  28  30
ENDBRANCH  12  28
TORSDOF 6
ENDMDL
MODEL 7
REMARK VINA RESULT:      -8.4      2.893      6.907
REMARK  6 active torsions:
REMARK  status: ('A' for Active; 'I' for Inactive)
REMARK    1  A    between atoms: C14_22  and  O3_4 
REMARK    2  A    between atoms: C20_28  and  O3_4 
REMARK    3  A    between atoms: C29_37  and  O6_7 
REMARK    4  A    between atoms: C12_20  and  C6_14 
REMARK    5  A    between atoms: C10_18  and  C14_22 
REMARK    6  A    between atoms: C20_28  and  C24_32 
ROOT
HETATM    1  O1  UNK     1      29.793  -7.302  32.169  1.00  0.00    -0.293 OA
HETATM    2  N1  UNK     1      34.045  -9.090  31.094  1.00  0.00    -0.362 N 
HETATM    3  C1  UNK     1      30.832  -8.978  29.126  1.00  0.00    -0.036 C 
HETATM    4  C2  UNK     1      32.131  -9.621  29.650  1.00  0.00     0.067 C 
HETATM    5  C3  UNK     1      29.857  -8.781  30.296  1.00  0.00     0.092 C 
HETATM    6  C4  UNK     1      32.685  -8.957  30.885  1.00  0.00     0.021 C 
HETATM    7  C5  UNK     1      31.934  -8.229  31.738  1.00  0.00     0.024 C 
HETATM    8  C6  UNK     1      32.549  -7.582  32.978  1.00  0.00     0.104 C 
HETATM    9  C7  UNK     1      30.480  -8.029  31.453  1.00  0.00     0.159 C 
HETATM   10  C8  UNK     1      30.190  -9.911  28.083  1.00  0.00     0.015 C 
HETATM   11  C9  UNK     1      31.130  -7.627  28.440  1.00  0.00     0.015 C 
HETATM   12  C10 UNK     1      34.078  -7.647  32.970  1.00  0.00     0.052 C 
HETATM   13  C11 UNK     1      34.749  -8.407  32.074  1.00  0.00     0.018 C 
HETATM   14  C13 UNK     1      36.242  -8.583  32.023  1.00  0.00     0.069 C 
HETATM   15  H12 UNK     1      34.575  -9.644  30.432  1.00  0.00     0.165 HD
ENDROOT
BRANCH   8  16
HETATM   16  C12 UNK     1      32.007  -8.222  34.233  1.00  0.00     0.029 A 
HETATM   17  C15 UNK     1      31.060  -7.446  35.073  1.00  0.00     0.194 A 
HETATM   18  O5  UNK     1      30.708  -6.312  34.778  1.00  0.00    -0.287 OA
HETATM   19  C17 UNK     1      30.562  -8.117  36.287  1.00  0.00     0.050 A 
HETATM   20  C18 UNK     1      30.998  -9.412  36.574  1.00  0.00     0.089 A 
HETATM   21  C19 UNK     1      29.667  -7.471  37.143  1.00  0.00     0.042 A 
HETATM   22  O2  UNK     1      31.876 -10.094  35.769  1.00  0.00    -0.321 OA
HETATM   23  C21 UNK     1      30.540 -10.066  37.718  1.00  0.00     0.040 A 
HETATM   24  C16 UNK     1      32.331  -9.456  34.642  1.00  0.00     0.154 A 
HETATM   25  C23 UNK     1      29.645  -9.422  38.573  1.00  0.00     0.026 A 
HETATM   26  C22 UNK     1      29.210  -8.127  38.286  1.00  0.00     0.035 A 
HETATM   27 Cl1  UNK     1      28.107  -7.340  39.347  1.00  0.00    -0.084 Cl
ENDBRANCH   8  16
BRANCH  12  28
HETATM   28  C14 UNK     1      34.782  -6.798  33.945  1.00  0.00     0.292 C 
HETATM   29  O4  UNK     1      35.699  -7.197  34.640  1.00  0.00    -0.259 OA
BRANCH  28  30
HETATM   30  O3  UNK     1      34.233  -5.560  33.911  1.00  0.00    -0.313 OA
BRANCH  30  31
HETATM   31  C20 UNK     1      34.648  -4.683  34.962  1.00  0.00     0.217 C 
BRANCH  31  32
HETATM   32  C24 UNK     1      33.616  -4.702  36.052  1.00  0.00    -0.034 A 
HETATM   33  C26 UNK     1      33.734  -5.614  37.094  1.00  0.00     0.012 A 
HETATM   34  C28 UNK     1      32.775  -5.632  38.107  1.00  0.00     0.037 A 
HETATM   35  C29 UNK     1      31.706  -4.738  38.072  1.00  0.00     0.068 A 
HETATM   36  C27 UNK     1      31.594  -3.825  37.022  1.00  0.00     0.037 A 
HETATM   37  C25 UNK     1      32.553  -3.807  36.008  1.00  0.00     0.012 A 
BRANCH  35  38
HETATM   38  O6  UNK     1      30.769  -4.754  39.060  1.00  0.00    -0.356 OA
HETATM   39  C30 UNK     1      29.552  -4.052  38.812  1.00  0.00     0.210 C 
ENDBRANCH  35  38
ENDBRANCH  31  32
ENDBRANCH  30  31
ENDBRANCH  28  30
ENDBRANCH  12  28
TORSDOF 6
ENDMDL
MODEL 8
REMARK VINA RESULT:      -8.3      3.282      7.881
REMARK  6 active torsions:
REMARK  status: ('A' for Active; 'I' for Inactive)
REMARK    1  A    between atoms: C14_22  and  O3_4 
REMARK    2  A    between atoms: C20_28  and  O3_4 
REMARK    3  A    between atoms: C29_37  and  O6_7 
REMARK    4  A    between atoms: C12_20  and  C6_14 
REMARK    5  A    between atoms: C10_18  and  C14_22 
REMARK    6  A    between atoms: C20_28  and  C24_32 
ROOT
HETATM    1  O1  UNK     1      34.333 -12.154  33.150  1.00  0.00    -0.293 OA
HETATM    2  N1  UNK     1      35.856  -8.540  30.493  1.00  0.00    -0.362 N 
HETATM    3  C1  UNK     1      37.385 -11.912  31.205  1.00  0.00    -0.036 C 
HETATM    4  C2  UNK     1      37.399 -10.386  30.988  1.00  0.00     0.067 C 
HETATM    5  C3  UNK     1      36.631 -12.232  32.503  1.00  0.00     0.092 C 
HETATM    6  C4  UNK     1      36.051  -9.733  31.164  1.00  0.00     0.021 C 
HETATM    7  C5  UNK     1      35.053 -10.273  31.895  1.00  0.00     0.024 C 
HETATM    8  C6  UNK     1      33.708  -9.563  32.043  1.00  0.00     0.104 C 
HETATM    9  C7  UNK     1      35.255 -11.602  32.549  1.00  0.00     0.159 C 
HETATM   10  C8  UNK     1      38.833 -12.420  31.320  1.00  0.00     0.015 C 
HETATM   11  C9  UNK     1      36.721 -12.626  30.007  1.00  0.00     0.015 C 
HETATM   12  C10 UNK     1      33.572  -8.370  31.094  1.00  0.00     0.052 C 
HETATM   13  C11 UNK     1      34.632  -7.895  30.400  1.00  0.00     0.018 C 
HETATM   14  C13 UNK     1      34.614  -6.695  29.493  1.00  0.00     0.069 C 
HETATM   15  H12 UNK     1      36.628  -8.166  29.956  1.00  0.00     0.165 HD
ENDROOT
BRANCH   8  16
HETATM   16  C12 UNK     1      33.498  -9.120  33.471  1.00  0.00     0.029 A 
HETATM   17  C15 UNK     1      32.320  -9.640  34.209  1.00  0.00     0.194 A 
HETATM   18  O5  UNK     1      31.521 -10.413  33.697  1.00  0.00    -0.287 OA
HETATM   19  C17 UNK     1      32.162  -9.174  35.598  1.00  0.00     0.050 A 
HETATM   20  C18 UNK     1      33.104  -8.293  36.131  1.00  0.00     0.089 A 
HETATM   21  C19 UNK     1      31.085  -9.607  36.377  1.00  0.00     0.042 A 
HETATM   22  O2  UNK     1      34.180  -7.836  35.411  1.00  0.00    -0.321 OA
HETATM   23  C21 UNK     1      32.973  -7.839  37.443  1.00  0.00     0.040 A 
HETATM   24  C16 UNK     1      34.314  -8.278  34.119  1.00  0.00     0.154 A 
HETATM   25  C23 UNK     1      31.899  -8.270  38.222  1.00  0.00     0.026 A 
HETATM   26  C22 UNK     1      30.957  -9.152  37.690  1.00  0.00     0.035 A 
HETATM   27 Cl1  UNK     1      29.635  -9.678  38.657  1.00  0.00    -0.084 Cl
ENDBRANCH   8  16
BRANCH  12  28
HETATM   28  C14 UNK     1      32.223  -7.804  30.930  1.00  0.00     0.292 C 
HETATM   29  O4  UNK     1      31.431  -8.196  30.093  1.00  0.00    -0.259 OA
BRANCH  28  30
HETATM   30  O3  UNK     1      32.058  -6.820  31.847  1.00  0.00    -0.313 OA
BRANCH  30  31
HETATM   31  C20 UNK     1      30.753  -6.749  32.431  1.00  0.00     0.217 C 
BRANCH  31  32
HETATM   32  C24 UNK     1      30.865  -6.160  33.807  1.00  0.00    -0.034 A 
HETATM   33  C26 UNK     1      29.882  -6.430  34.752  1.00  0.00     0.012 A 
HETATM   34  C28 UNK     1      29.986  -5.883  36.031  1.00  0.00     0.037 A 
HETATM   35  C29 UNK     1      31.072  -5.070  36.356  1.00  0.00     0.068 A 
HETATM   36  C27 UNK     1      32.054  -4.804  35.402  1.00  0.00     0.037 A 
HETATM   37  C25 UNK     1      31.950  -5.351  34.123  1.00  0.00     0.012 A 
BRANCH  35  38
HETATM   38  O6  UNK     1      31.174  -4.536  37.604  1.00  0.00    -0.356 OA
HETATM   39  C30 UNK     1      29.961  -4.133  38.239  1.00  0.00     0.210 C 
ENDBRANCH  35  38
ENDBRANCH  31  32
ENDBRANCH  30  31
ENDBRANCH  28  30
ENDBRANCH  12  28
TORSDOF 6
ENDMDL
MODEL 9
REMARK VINA RESULT:      -8.2      3.168      6.202
REMARK  6 active torsions:
REMARK  status: ('A' for Active; 'I' for Inactive)
REMARK    1  A    between atoms: C14_22  and  O3_4 
REMARK    2  A    between atoms: C20_28  and  O3_4 
REMARK    3  A    between atoms: C29_37  and  O6_7 
REMARK    4  A    between atoms: C12_20  and  C6_14 
REMARK    5  A    between atoms: C10_18  and  C14_22 
REMARK    6  A    between atoms: C20_28  and  C24_32 
ROOT
HETATM    1  O1  UNK     1      29.119  -5.953  32.344  1.00  0.00    -0.293 OA
HETATM    2  N1  UNK     1      31.533 -10.027  32.237  1.00  0.00    -0.362 N 
HETATM    3  C1  UNK     1      28.849  -8.674  29.961  1.00  0.00    -0.036 C 
HETATM    4  C2  UNK     1      29.579  -9.762  30.772  1.00  0.00     0.067 C 
HETATM    5  C3  UNK     1      28.227  -7.655  30.927  1.00  0.00     0.092 C 
HETATM    6  C4  UNK     1      30.481  -9.217  31.851  1.00  0.00     0.021 C 
HETATM    7  C5  UNK     1      30.325  -7.995  32.403  1.00  0.00     0.024 C 
HETATM    8  C6  UNK     1      31.267  -7.496  33.498  1.00  0.00     0.104 C 
HETATM    9  C7  UNK     1      29.230  -7.101  31.916  1.00  0.00     0.159 C 
HETATM   10  C8  UNK     1      27.735  -9.327  29.125  1.00  0.00     0.015 C 
HETATM   11  C9  UNK     1      29.824  -7.970  28.992  1.00  0.00     0.015 C 
HETATM   12  C10 UNK     1      32.485  -8.406  33.676  1.00  0.00     0.052 C 
HETATM   13  C11 UNK     1      32.554  -9.620  33.083  1.00  0.00     0.018 C 
HETATM   14  C13 UNK     1      33.677 -10.608  33.245  1.00  0.00     0.069 C 
HETATM   15  H12 UNK     1      31.616 -10.937  31.801  1.00  0.00     0.165 HD
ENDROOT
BRANCH   8  16
HETATM   16  C12 UNK     1      30.529  -7.353  34.806  1.00  0.00     0.029 A 
HETATM   17  C15 UNK     1      30.693  -6.096  35.579  1.00  0.00     0.194 A 
HETATM   18  O5  UNK     1      31.404  -5.180  35.187  1.00  0.00    -0.287 OA
HETATM   19  C17 UNK     1      29.951  -6.008  36.849  1.00  0.00     0.050 A 
HETATM   20  C18 UNK     1      29.154  -7.083  37.246  1.00  0.00     0.089 A 
HETATM   21  C19 UNK     1      30.040  -4.866  37.649  1.00  0.00     0.042 A 
HETATM   22  O2  UNK     1      29.030  -8.228  36.500  1.00  0.00    -0.321 OA
HETATM   23  C21 UNK     1      28.444  -7.022  38.444  1.00  0.00     0.040 A 
HETATM   24  C16 UNK     1      29.728  -8.296  35.319  1.00  0.00     0.154 A 
HETATM   25  C23 UNK     1      28.530  -5.881  39.244  1.00  0.00     0.026 A 
HETATM   26  C22 UNK     1      29.327  -4.806  38.848  1.00  0.00     0.035 A 
HETATM   27 Cl1  UNK     1      29.429  -3.404  39.840  1.00  0.00    -0.084 Cl
ENDBRANCH   8  16
BRANCH  12  28
HETATM   28  C14 UNK     1      33.599  -7.872  34.476  1.00  0.00     0.292 C 
HETATM   29  O4  UNK     1      33.887  -8.286  35.584  1.00  0.00    -0.259 OA
BRANCH  28  30
HETATM   30  O3  UNK     1      34.201  -6.886  33.766  1.00  0.00    -0.313 OA
BRANCH  30  31
HETATM   31  C20 UNK     1      35.629  -6.958  33.718  1.00  0.00     0.217 C 
BRANCH  31  32
HETATM   32  C24 UNK     1      36.032  -7.989  32.703  1.00  0.00    -0.034 A 
HETATM   33  C26 UNK     1      35.449  -7.977  31.442  1.00  0.00     0.012 A 
HETATM   34  C28 UNK     1      35.825  -8.934  30.499  1.00  0.00     0.037 A 
HETATM   35  C29 UNK     1      36.781  -9.896  30.824  1.00  0.00     0.068 A 
HETATM   36  C27 UNK     1      37.361  -9.901  32.093  1.00  0.00     0.037 A 
HETATM   37  C25 UNK     1      36.986  -8.944  33.036  1.00  0.00     0.012 A 
BRANCH  35  38
HETATM   38  O6  UNK     1      37.147 -10.831  29.905  1.00  0.00    -0.356 OA
HETATM   39  C30 UNK     1      38.381 -10.618  29.220  1.00  0.00     0.210 C 
ENDBRANCH  35  38
ENDBRANCH  31  32
ENDBRANCH  30  31
ENDBRANCH  28  30
ENDBRANCH  12  28
TORSDOF 6
ENDMDL
MODEL 10
REMARK VINA RESULT:      -8.1      2.205      4.212
REMARK  6 active torsions:
REMARK  status: ('A' for Active; 'I' for Inactive)
REMARK    1  A    between atoms: C14_22  and  O3_4 
REMARK    2  A    between atoms: C20_28  and  O3_4 
REMARK    3  A    between atoms: C29_37  and  O6_7 
REMARK    4  A    between atoms: C12_20  and  C6_14 
REMARK    5  A    between atoms: C10_18  and  C14_22 
REMARK    6  A    between atoms: C20_28  and  C24_32 
ROOT
HETATM    1  O1  UNK     1      31.959  -6.338  37.068  1.00  0.00    -0.293 OA
HETATM    2  N1  UNK     1      27.802  -6.611  34.813  1.00  0.00    -0.362 N 
HETATM    3  C1  UNK     1      28.623  -6.417  38.488  1.00  0.00    -0.036 C 
HETATM    4  C2  UNK     1      27.858  -6.923  37.249  1.00  0.00     0.067 C 
HETATM    5  C3  UNK     1      30.076  -6.908  38.421  1.00  0.00     0.092 C 
HETATM    6  C4  UNK     1      28.587  -6.698  35.948  1.00  0.00     0.021 C 
HETATM    7  C5  UNK     1      29.925  -6.544  35.863  1.00  0.00     0.024 C 
HETATM    8  C6  UNK     1      30.612  -6.323  34.516  1.00  0.00     0.104 C 
HETATM    9  C7  UNK     1      30.749  -6.560  37.110  1.00  0.00     0.159 C 
HETATM   10  C8  UNK     1      27.956  -6.975  39.758  1.00  0.00     0.015 C 
HETATM   11  C9  UNK     1      28.579  -4.875  38.563  1.00  0.00     0.015 C 
HETATM   12  C10 UNK     1      29.610  -6.054  33.390  1.00  0.00     0.052 C 
HETATM   13  C11 UNK     1      28.281  -6.238  33.567  1.00  0.00     0.018 C 
HETATM   14  C13 UNK     1      27.227  -6.059  32.509  1.00  0.00     0.069 C 
HETATM   15  H12 UNK     1      26.802  -6.733  34.918  1.00  0.00     0.165 HD
ENDROOT
BRANCH   8  16
HETATM   16  C12 UNK     1      31.482  -7.506  34.166  1.00  0.00     0.029 A 
HETATM   17  C15 UNK     1      32.926  -7.272  33.913  1.00  0.00     0.194 A 
HETATM   18  O5  UNK     1      33.427  -6.157  33.980  1.00  0.00    -0.287 OA
HETATM   19  C17 UNK     1      33.730  -8.460  33.574  1.00  0.00     0.050 A 
HETATM   20  C18 UNK     1      33.107  -9.707  33.512  1.00  0.00     0.089 A 
HETATM   21  C19 UNK     1      35.099  -8.345  33.318  1.00  0.00     0.042 A 
HETATM   22  O2  UNK     1      31.767  -9.878  33.754  1.00  0.00    -0.321 OA
HETATM   23  C21 UNK     1      33.849 -10.844  33.193  1.00  0.00     0.040 A 
HETATM   24  C16 UNK     1      31.030  -8.763  34.068  1.00  0.00     0.154 A 
HETATM   25  C23 UNK     1      35.216 -10.732  32.938  1.00  0.00     0.026 A 
HETATM   26  C22 UNK     1      35.839  -9.485  33.001  1.00  0.00     0.035 A 
HETATM   27 Cl1  UNK     1      37.526  -9.354  32.684  1.00  0.00    -0.084 Cl
ENDBRANCH   8  16
BRANCH  12  28
HETATM   28  C14 UNK     1      30.157  -5.531  32.128  1.00  0.00     0.292 C 
HETATM   29  O4  UNK     1      30.590  -4.400  32.004  1.00  0.00    -0.259 OA
BRANCH  28  30
HETATM   30  O3  UNK     1      30.084  -6.509  31.192  1.00  0.00    -0.313 OA
BRANCH  30  31
HETATM   31  C20 UNK     1      31.107  -6.469  30.193  1.00  0.00     0.217 C 
BRANCH  31  32
HETATM   32  C24 UNK     1      31.730  -7.830  30.077  1.00  0.00    -0.034 A 
HETATM   33  C26 UNK     1      30.920  -8.960  30.085  1.00  0.00     0.012 A 
HETATM   34  C28 UNK     1      31.500 -10.224  29.976  1.00  0.00     0.037 A 
HETATM   35  C29 UNK     1      32.883 -10.350  29.860  1.00  0.00     0.068 A 
HETATM   36  C27 UNK     1      33.689  -9.211  29.853  1.00  0.00     0.037 A 
HETATM   37  C25 UNK     1      33.110  -7.947  29.962  1.00  0.00     0.012 A 
BRANCH  35  38
HETATM   38  O6  UNK     1      33.450 -11.584  29.755  1.00  0.00    -0.356 OA
HETATM   39  C30 UNK     1      32.686 -12.691  30.232  1.00  0.00     0.210 C 
ENDBRANCH  35  38
ENDBRANCH  31  32
ENDBRANCH  30  31
ENDBRANCH  28  30
ENDBRANCH  12  28
TORSDOF 6
ENDMDL
