MODEL 1
REMARK VINA RESULT:      -8.1      0.000      0.000
REMARK  4 active torsions:
REMARK  status: ('A' for Active; 'I' for Inactive)
REMARK    1  A    between atoms: C14_17  and  O2_2 
REMARK    2  A    between atoms: C7_10  and  O2_2 
REMARK    3  A    between atoms: C3_6  and  C6_9 
REMARK    4  A    between atoms: C12_15  and  C6_9 
ROOT
HETATM    1  O1  UNK     1      18.160   3.793  33.467  1.00  0.00    -0.274 OA
HETATM    2  O3  UNK     1      17.782   5.730  34.590  1.00  0.00    -0.259 OA
HETATM    3  C1  UNK     1      18.633   3.833  31.080  1.00  0.00     0.005 A 
HETATM    4  C2  UNK     1      18.524   5.306  31.101  1.00  0.00    -0.036 A 
HETATM    5  C3  UNK     1      18.214   5.932  32.256  1.00  0.00     0.029 A 
HETATM    6  C4  UNK     1      18.447   3.127  32.265  1.00  0.00     0.099 A 
HETATM    7  C5  UNK     1      18.532   1.734  32.332  1.00  0.00     0.006 A 
HETATM    8  C7  UNK     1      18.807   1.012  31.178  1.00  0.00     0.078 A 
HETATM    9  C8  UNK     1      18.903   3.082  29.925  1.00  0.00     0.017 A 
HETATM   10  C9  UNK     1      18.031   5.171  33.526  1.00  0.00     0.295 A 
HETATM   11  C10 UNK     1      18.991   1.686  29.974  1.00  0.00     0.038 A 
HETATM   12  C11 UNK     1      18.792   6.028  29.804  1.00  0.00     0.050 C 
HETATM   13  C13 UNK     1      18.329   1.021  33.631  1.00  0.00     0.054 C 
ENDROOT
BRANCH   5  14
HETATM   14  C6  UNK     1      18.011   7.418  32.404  1.00  0.00     0.084 C 
BRANCH  14  15
HETATM   15  C12 UNK     1      16.576   7.771  32.658  1.00  0.00    -0.054 A 
HETATM   16  C15 UNK     1      15.568   7.074  32.002  1.00  0.00     0.007 A 
HETATM   17  C19 UNK     1      14.233   7.404  32.238  1.00  0.00     0.001 A 
HETATM   18  C21 UNK     1      13.915   8.428  33.129  1.00  0.00     0.000 A 
HETATM   19  C20 UNK     1      14.931   9.124  33.783  1.00  0.00     0.001 A 
HETATM   20  C16 UNK     1      16.265   8.795  33.548  1.00  0.00     0.007 A 
ENDBRANCH  14  15
ENDBRANCH   5  14
BRANCH   8  21
HETATM   21  O2  UNK     1      18.897  -0.346  31.203  1.00  0.00    -0.346 OA
BRANCH  21  22
HETATM   22  C14 UNK     1      20.196  -0.913  31.042  1.00  0.00     0.120 C 
HETATM   23  C17 UNK     1      20.453  -1.904  32.166  1.00  0.00     0.040 C 
HETATM   24  C18 UNK     1      20.287  -1.573  29.673  1.00  0.00     0.040 C 
ENDBRANCH  21  22
ENDBRANCH   8  21
TORSDOF 4
ENDMDL
MODEL 2
REMARK VINA RESULT:      -7.9     22.660     24.435
REMARK  4 active torsions:
REMARK  status: ('A' for Active; 'I' for Inactive)
REMARK    1  A    between atoms: C14_17  and  O2_2 
REMARK    2  A    between atoms: C7_10  and  O2_2 
REMARK    3  A    between atoms: C3_6  and  C6_9 
REMARK    4  A    between atoms: C12_15  and  C6_9 
ROOT
HETATM    1  O1  UNK     1      15.319   6.282   9.803  1.00  0.00    -0.274 OA
HETATM    2  O3  UNK     1      14.063   4.391   9.746  1.00  0.00    -0.259 OA
HETATM    3  C1  UNK     1      14.256   8.466   9.655  1.00  0.00     0.005 A 
HETATM    4  C2  UNK     1      12.940   7.799   9.573  1.00  0.00    -0.036 A 
HETATM    5  C3  UNK     1      12.878   6.451   9.573  1.00  0.00     0.029 A 
HETATM    6  C4  UNK     1      15.401   7.682   9.768  1.00  0.00     0.099 A 
HETATM    7  C5  UNK     1      16.683   8.232   9.850  1.00  0.00     0.006 A 
HETATM    8  C7  UNK     1      16.836   9.612   9.816  1.00  0.00     0.078 A 
HETATM    9  C8  UNK     1      14.435   9.858   9.615  1.00  0.00     0.017 A 
HETATM   10  C9  UNK     1      14.108   5.617   9.709  1.00  0.00     0.295 A 
HETATM   11  C10 UNK     1      15.712  10.425   9.696  1.00  0.00     0.038 A 
HETATM   12  C11 UNK     1      11.726   8.692   9.511  1.00  0.00     0.050 C 
HETATM   13  C13 UNK     1      17.883   7.349   9.975  1.00  0.00     0.054 C 
ENDROOT
BRANCH   5  14
HETATM   14  C6  UNK     1      11.611   5.645   9.433  1.00  0.00     0.084 C 
BRANCH  14  15
HETATM   15  C12 UNK     1      10.928   5.891   8.120  1.00  0.00    -0.054 A 
HETATM   16  C15 UNK     1       9.553   6.094   8.086  1.00  0.00     0.007 A 
HETATM   17  C19 UNK     1       8.918   6.321   6.865  1.00  0.00     0.001 A 
HETATM   18  C21 UNK     1       9.662   6.344   5.686  1.00  0.00     0.000 A 
HETATM   19  C20 UNK     1      11.041   6.139   5.727  1.00  0.00     0.001 A 
HETATM   20  C16 UNK     1      11.676   5.912   6.947  1.00  0.00     0.007 A 
ENDBRANCH  14  15
ENDBRANCH   5  14
BRANCH   8  21
HETATM   21  O2  UNK     1      18.068  10.185   9.893  1.00  0.00    -0.346 OA
BRANCH  21  22
HETATM   22  C14 UNK     1      18.194  11.521   9.409  1.00  0.00     0.120 C 
HETATM   23  C17 UNK     1      19.035  12.330  10.384  1.00  0.00     0.040 C 
HETATM   24  C18 UNK     1      18.809  11.494   8.017  1.00  0.00     0.040 C 
ENDBRANCH  21  22
ENDBRANCH   8  21
TORSDOF 4
ENDMDL
MODEL 3
REMARK VINA RESULT:      -7.8      1.367      2.479
REMARK  4 active torsions:
REMARK  status: ('A' for Active; 'I' for Inactive)
REMARK    1  A    between atoms: C14_17  and  O2_2 
REMARK    2  A    between atoms: C7_10  and  O2_2 
REMARK    3  A    between atoms: C3_6  and  C6_9 
REMARK    4  A    between atoms: C12_15  and  C6_9 
ROOT
HETATM    1  O1  UNK     1      18.776   3.970  30.181  1.00  0.00    -0.274 OA
HETATM    2  O3  UNK     1      18.746   6.172  29.629  1.00  0.00    -0.259 OA
HETATM    3  C1  UNK     1      18.422   3.279  32.487  1.00  0.00     0.005 A 
HETATM    4  C2  UNK     1      18.265   4.697  32.869  1.00  0.00    -0.036 A 
HETATM    5  C3  UNK     1      18.401   5.656  31.929  1.00  0.00     0.029 A 
HETATM    6  C4  UNK     1      18.673   2.965  31.154  1.00  0.00     0.099 A 
HETATM    7  C5  UNK     1      18.836   1.650  30.709  1.00  0.00     0.006 A 
HETATM    8  C7  UNK     1      18.751   0.606  31.622  1.00  0.00     0.078 A 
HETATM    9  C8  UNK     1      18.348   2.209  33.393  1.00  0.00     0.017 A 
HETATM   10  C9  UNK     1      18.655   5.312  30.500  1.00  0.00     0.295 A 
HETATM   11  C10 UNK     1      18.509   0.886  32.964  1.00  0.00     0.038 A 
HETATM   12  C11 UNK     1      17.936   4.982  34.314  1.00  0.00     0.050 C 
HETATM   13  C13 UNK     1      19.099   1.362  29.266  1.00  0.00     0.054 C 
ENDROOT
BRANCH   5  14
HETATM   14  C6  UNK     1      18.327   7.139  32.192  1.00  0.00     0.084 C 
BRANCH  14  15
HETATM   15  C12 UNK     1      16.962   7.565  32.646  1.00  0.00    -0.054 A 
HETATM   16  C15 UNK     1      16.832   8.412  33.741  1.00  0.00     0.007 A 
HETATM   17  C19 UNK     1      15.563   8.807  34.163  1.00  0.00     0.001 A 
HETATM   18  C21 UNK     1      14.431   8.354  33.486  1.00  0.00     0.000 A 
HETATM   19  C20 UNK     1      14.568   7.504  32.389  1.00  0.00     0.001 A 
HETATM   20  C16 UNK     1      15.837   7.109  31.967  1.00  0.00     0.007 A 
ENDBRANCH  14  15
ENDBRANCH   5  14
BRANCH   8  21
HETATM   21  O2  UNK     1      18.904  -0.687  31.227  1.00  0.00    -0.346 OA
BRANCH  21  22
HETATM   22  C14 UNK     1      20.226  -1.224  31.263  1.00  0.00     0.120 C 
HETATM   23  C17 UNK     1      20.368  -2.124  32.480  1.00  0.00     0.040 C 
HETATM   24  C18 UNK     1      20.496  -1.975  29.967  1.00  0.00     0.040 C 
ENDBRANCH  21  22
ENDBRANCH   8  21
TORSDOF 4
ENDMDL
MODEL 4
REMARK VINA RESULT:      -7.7     22.749     24.404
REMARK  4 active torsions:
REMARK  status: ('A' for Active; 'I' for Inactive)
REMARK    1  A    between atoms: C14_17  and  O2_2 
REMARK    2  A    between atoms: C7_10  and  O2_2 
REMARK    3  A    between atoms: C3_6  and  C6_9 
REMARK    4  A    between atoms: C12_15  and  C6_9 
ROOT
HETATM    1  O1  UNK     1      13.150   9.290  10.094  1.00  0.00    -0.274 OA
HETATM    2  O3  UNK     1      11.034   8.486   9.911  1.00  0.00    -0.259 OA
HETATM    3  C1  UNK     1      15.055   7.807   9.794  1.00  0.00     0.005 A 
HETATM    4  C2  UNK     1      14.123   6.690   9.539  1.00  0.00    -0.036 A 
HETATM    5  C3  UNK     1      12.793   6.908   9.607  1.00  0.00     0.029 A 
HETATM    6  C4  UNK     1      14.535   9.070  10.062  1.00  0.00     0.099 A 
HETATM    7  C5  UNK     1      15.346  10.179  10.314  1.00  0.00     0.006 A 
HETATM    8  C7  UNK     1      16.728  10.030  10.304  1.00  0.00     0.078 A 
HETATM    9  C8  UNK     1      16.454   7.678   9.795  1.00  0.00     0.017 A 
HETATM   10  C9  UNK     1      12.242   8.267   9.881  1.00  0.00     0.295 A 
HETATM   11  C10 UNK     1      17.281   8.779  10.046  1.00  0.00     0.038 A 
HETATM   12  C11 UNK     1      14.736   5.355   9.195  1.00  0.00     0.050 C 
HETATM   13  C13 UNK     1      14.741  11.517  10.594  1.00  0.00     0.054 C 
ENDROOT
BRANCH   5  14
HETATM   14  C6  UNK     1      11.735   5.847   9.432  1.00  0.00     0.084 C 
BRANCH  14  15
HETATM   15  C12 UNK     1      11.004   5.988   8.129  1.00  0.00    -0.054 A 
HETATM   16  C15 UNK     1      11.722   6.112   6.946  1.00  0.00     0.007 A 
HETATM   17  C19 UNK     1      11.041   6.244   5.735  1.00  0.00     0.001 A 
HETATM   18  C21 UNK     1       9.647   6.249   5.716  1.00  0.00     0.000 A 
HETATM   19  C20 UNK     1       8.933   6.124   6.907  1.00  0.00     0.001 A 
HETATM   20  C16 UNK     1       9.613   5.993   8.118  1.00  0.00     0.007 A 
ENDBRANCH  14  15
ENDBRANCH   5  14
BRANCH   8  21
HETATM   21  O2  UNK     1      17.551  11.087  10.545  1.00  0.00    -0.346 OA
BRANCH  21  22
HETATM   22  C14 UNK     1      18.515  11.401   9.541  1.00  0.00     0.120 C 
HETATM   23  C17 UNK     1      17.937  12.447   8.602  1.00  0.00     0.040 C 
HETATM   24  C18 UNK     1      19.794  11.883  10.210  1.00  0.00     0.040 C 
ENDBRANCH  21  22
ENDBRANCH   8  21
TORSDOF 4
ENDMDL
MODEL 5
REMARK VINA RESULT:      -7.7      4.525      9.682
REMARK  4 active torsions:
REMARK  status: ('A' for Active; 'I' for Inactive)
REMARK    1  A    between atoms: C14_17  and  O2_2 
REMARK    2  A    between atoms: C7_10  and  O2_2 
REMARK    3  A    between atoms: C3_6  and  C6_9 
REMARK    4  A    between atoms: C12_15  and  C6_9 
ROOT
HETATM    1  O1  UNK     1      18.885  10.822  34.243  1.00  0.00    -0.274 OA
HETATM    2  O3  UNK     1      20.669   9.422  34.350  1.00  0.00    -0.259 OA
HETATM    3  C1  UNK     1      16.623   9.925  34.197  1.00  0.00     0.005 A 
HETATM    4  C2  UNK     1      17.182   8.560  34.274  1.00  0.00    -0.036 A 
HETATM    5  C3  UNK     1      18.522   8.392  34.295  1.00  0.00     0.029 A 
HETATM    6  C4  UNK     1      17.495  11.010  34.185  1.00  0.00     0.099 A 
HETATM    7  C5  UNK     1      17.050  12.332  34.113  1.00  0.00     0.006 A 
HETATM    8  C7  UNK     1      15.686  12.589  34.047  1.00  0.00     0.078 A 
HETATM    9  C8  UNK     1      15.250  10.208  34.122  1.00  0.00     0.017 A 
HETATM   10  C9  UNK     1      19.450   9.559  34.296  1.00  0.00     0.295 A 
HETATM   11  C10 UNK     1      14.786  11.527  34.050  1.00  0.00     0.038 A 
HETATM   12  C11 UNK     1      16.195   7.421  34.344  1.00  0.00     0.050 C 
HETATM   13  C13 UNK     1      18.026  13.465  34.107  1.00  0.00     0.054 C 
ENDROOT
BRANCH   5  14
HETATM   14  C6  UNK     1      19.223   7.057  34.309  1.00  0.00     0.084 C 
BRANCH  14  15
HETATM   15  C12 UNK     1      19.626   6.615  32.934  1.00  0.00    -0.054 A 
HETATM   16  C15 UNK     1      20.965   6.365  32.654  1.00  0.00     0.007 A 
HETATM   17  C19 UNK     1      21.339   5.955  31.375  1.00  0.00     0.001 A 
HETATM   18  C21 UNK     1      20.372   5.797  30.383  1.00  0.00     0.000 A 
HETATM   19  C20 UNK     1      19.031   6.050  30.669  1.00  0.00     0.001 A 
HETATM   20  C16 UNK     1      18.656   6.460  31.948  1.00  0.00     0.007 A 
ENDBRANCH  14  15
ENDBRANCH   5  14
BRANCH   8  21
HETATM   21  O2  UNK     1      15.214  13.864  33.976  1.00  0.00    -0.346 OA
BRANCH  21  22
HETATM   22  C14 UNK     1      14.457  14.211  32.818  1.00  0.00     0.120 C 
HETATM   23  C17 UNK     1      13.150  14.860  33.249  1.00  0.00     0.040 C 
HETATM   24  C18 UNK     1      15.285  15.135  31.937  1.00  0.00     0.040 C 
ENDBRANCH  21  22
ENDBRANCH   8  21
TORSDOF 4
ENDMDL
MODEL 6
REMARK VINA RESULT:      -7.7     15.521     17.994
REMARK  4 active torsions:
REMARK  status: ('A' for Active; 'I' for Inactive)
REMARK    1  A    between atoms: C14_17  and  O2_2 
REMARK    2  A    between atoms: C7_10  and  O2_2 
REMARK    3  A    between atoms: C3_6  and  C6_9 
REMARK    4  A    between atoms: C12_15  and  C6_9 
ROOT
HETATM    1  O1  UNK     1      30.100  -8.210  38.544  1.00  0.00    -0.274 OA
HETATM    2  O3  UNK     1      32.363  -8.118  38.388  1.00  0.00    -0.259 OA
HETATM    3  C1  UNK     1      28.788  -6.161  38.559  1.00  0.00     0.005 A 
HETATM    4  C2  UNK     1      30.036  -5.382  38.434  1.00  0.00    -0.036 A 
HETATM    5  C3  UNK     1      31.221  -6.027  38.407  1.00  0.00     0.029 A 
HETATM    6  C4  UNK     1      28.864  -7.550  38.609  1.00  0.00     0.099 A 
HETATM    7  C5  UNK     1      27.732  -8.362  38.726  1.00  0.00     0.006 A 
HETATM    8  C7  UNK     1      26.476  -7.773  38.802  1.00  0.00     0.078 A 
HETATM    9  C8  UNK     1      27.509  -5.588  38.644  1.00  0.00     0.017 A 
HETATM   10  C9  UNK     1      31.295  -7.517  38.447  1.00  0.00     0.295 A 
HETATM   11  C10 UNK     1      26.365  -6.386  38.762  1.00  0.00     0.038 A 
HETATM   12  C11 UNK     1      29.897  -3.883  38.325  1.00  0.00     0.050 C 
HETATM   13  C13 UNK     1      27.864  -9.850  38.771  1.00  0.00     0.054 C 
ENDROOT
BRANCH   5  14
HETATM   14  C6  UNK     1      32.569  -5.354  38.347  1.00  0.00     0.084 C 
BRANCH  14  15
HETATM   15  C12 UNK     1      33.148  -5.370  36.963  1.00  0.00    -0.054 A 
HETATM   16  C15 UNK     1      32.365  -4.979  35.883  1.00  0.00     0.007 A 
HETATM   17  C19 UNK     1      32.903  -4.996  34.597  1.00  0.00     0.001 A 
HETATM   18  C21 UNK     1      34.222  -5.403  34.398  1.00  0.00     0.000 A 
HETATM   19  C20 UNK     1      35.002  -5.795  35.485  1.00  0.00     0.001 A 
HETATM   20  C16 UNK     1      34.464  -5.779  36.772  1.00  0.00     0.007 A 
ENDBRANCH  14  15
ENDBRANCH   5  14
BRANCH   8  21
HETATM   21  O2  UNK     1      25.351  -8.530  38.917  1.00  0.00    -0.346 OA
BRANCH  21  22
HETATM   22  C14 UNK     1      24.126  -7.941  38.483  1.00  0.00     0.120 C 
HETATM   23  C17 UNK     1      23.582  -8.730  37.302  1.00  0.00     0.040 C 
HETATM   24  C18 UNK     1      23.145  -7.912  39.645  1.00  0.00     0.040 C 
ENDBRANCH  21  22
ENDBRANCH   8  21
TORSDOF 4
ENDMDL
MODEL 7
REMARK VINA RESULT:      -7.5      1.549      2.517
REMARK  4 active torsions:
REMARK  status: ('A' for Active; 'I' for Inactive)
REMARK    1  A    between atoms: C14_17  and  O2_2 
REMARK    2  A    between atoms: C7_10  and  O2_2 
REMARK    3  A    between atoms: C3_6  and  C6_9 
REMARK    4  A    between atoms: C12_15  and  C6_9 
ROOT
HETATM    1  O1  UNK     1      17.845   3.982  33.495  1.00  0.00    -0.274 OA
HETATM    2  O3  UNK     1      17.237   5.807  34.701  1.00  0.00    -0.259 OA
HETATM    3  C1  UNK     1      18.425   4.206  31.142  1.00  0.00     0.005 A 
HETATM    4  C2  UNK     1      18.181   5.659  31.238  1.00  0.00    -0.036 A 
HETATM    5  C3  UNK     1      17.759   6.185  32.408  1.00  0.00     0.029 A 
HETATM    6  C4  UNK     1      18.249   3.417  32.276  1.00  0.00     0.099 A 
HETATM    7  C5  UNK     1      18.458   2.036  32.271  1.00  0.00     0.006 A 
HETATM    8  C7  UNK     1      18.854   1.411  31.095  1.00  0.00     0.078 A 
HETATM    9  C8  UNK     1      18.819   3.552  29.963  1.00  0.00     0.017 A 
HETATM   10  C9  UNK     1      17.586   5.337  33.623  1.00  0.00     0.295 A 
HETATM   11  C10 UNK     1      19.032   2.168  29.940  1.00  0.00     0.038 A 
HETATM   12  C11 UNK     1      18.442   6.479  29.999  1.00  0.00     0.050 C 
HETATM   13  C13 UNK     1      18.260   1.232  33.515  1.00  0.00     0.054 C 
ENDROOT
BRANCH   5  14
HETATM   14  C6  UNK     1      17.414   7.636  32.626  1.00  0.00     0.084 C 
BRANCH  14  15
HETATM   15  C12 UNK     1      18.522   8.386  33.304  1.00  0.00    -0.054 A 
HETATM   16  C15 UNK     1      19.758   7.777  33.483  1.00  0.00     0.007 A 
HETATM   17  C19 UNK     1      20.788   8.474  34.115  1.00  0.00     0.001 A 
HETATM   18  C21 UNK     1      20.575   9.777  34.563  1.00  0.00     0.000 A 
HETATM   19  C20 UNK     1      19.332  10.382  34.381  1.00  0.00     0.001 A 
HETATM   20  C16 UNK     1      18.303   9.686  33.750  1.00  0.00     0.007 A 
ENDBRANCH  14  15
ENDBRANCH   5  14
BRANCH   8  21
HETATM   21  O2  UNK     1      19.067   0.067  31.050  1.00  0.00    -0.346 OA
BRANCH  21  22
HETATM   22  C14 UNK     1      20.405  -0.370  30.818  1.00  0.00     0.120 C 
HETATM   23  C17 UNK     1      20.706  -1.561  31.715  1.00  0.00     0.040 C 
HETATM   24  C18 UNK     1      20.571  -0.714  29.345  1.00  0.00     0.040 C 
ENDBRANCH  21  22
ENDBRANCH   8  21
TORSDOF 4
ENDMDL
MODEL 8
REMARK VINA RESULT:      -7.5     16.504     17.724
REMARK  4 active torsions:
REMARK  status: ('A' for Active; 'I' for Inactive)
REMARK    1  A    between atoms: C14_17  and  O2_2 
REMARK    2  A    between atoms: C7_10  and  O2_2 
REMARK    3  A    between atoms: C3_6  and  C6_9 
REMARK    4  A    between atoms: C12_15  and  C6_9 
ROOT
HETATM    1  O1  UNK     1      28.704  -6.762  38.597  1.00  0.00    -0.274 OA
HETATM    2  O3  UNK     1      29.831  -4.903  39.253  1.00  0.00    -0.259 OA
HETATM    3  C1  UNK     1      28.931  -7.593  36.322  1.00  0.00     0.005 A 
HETATM    4  C2  UNK     1      29.867  -6.489  36.030  1.00  0.00    -0.036 A 
HETATM    5  C3  UNK     1      30.142  -5.582  36.991  1.00  0.00     0.029 A 
HETATM    6  C4  UNK     1      28.382  -7.691  37.597  1.00  0.00     0.099 A 
HETATM    7  C5  UNK     1      27.488  -8.704  37.955  1.00  0.00     0.006 A 
HETATM    8  C7  UNK     1      27.121  -9.654  37.011  1.00  0.00     0.078 A 
HETATM    9  C8  UNK     1      28.540  -8.560  35.382  1.00  0.00     0.017 A 
HETATM   10  C9  UNK     1      29.562  -5.701  38.360  1.00  0.00     0.295 A 
HETATM   11  C10 UNK     1      27.646  -9.582  35.724  1.00  0.00     0.038 A 
HETATM   12  C11 UNK     1      30.480  -6.460  34.652  1.00  0.00     0.050 C 
HETATM   13  C13 UNK     1      26.928  -8.770  39.340  1.00  0.00     0.054 C 
ENDROOT
BRANCH   5  14
HETATM   14  C6  UNK     1      31.028  -4.375  36.810  1.00  0.00     0.084 C 
BRANCH  14  15
HETATM   15  C12 UNK     1      32.467  -4.753  36.620  1.00  0.00    -0.054 A 
HETATM   16  C15 UNK     1      33.187  -4.216  35.559  1.00  0.00     0.007 A 
HETATM   17  C19 UNK     1      34.525  -4.568  35.382  1.00  0.00     0.001 A 
HETATM   18  C21 UNK     1      35.135  -5.456  36.269  1.00  0.00     0.000 A 
HETATM   19  C20 UNK     1      34.407  -5.991  37.330  1.00  0.00     0.001 A 
HETATM   20  C16 UNK     1      33.069  -5.639  37.507  1.00  0.00     0.007 A 
ENDBRANCH  14  15
ENDBRANCH   5  14
BRANCH   8  21
HETATM   21  O2  UNK     1      26.253 -10.655  37.322  1.00  0.00    -0.346 OA
BRANCH  21  22
HETATM   22  C14 UNK     1      25.322 -11.043  36.313  1.00  0.00     0.120 C 
HETATM   23  C17 UNK     1      25.029 -12.530  36.446  1.00  0.00     0.040 C 
HETATM   24  C18 UNK     1      24.060 -10.203  36.447  1.00  0.00     0.040 C 
ENDBRANCH  21  22
ENDBRANCH   8  21
TORSDOF 4
ENDMDL
MODEL 9
REMARK VINA RESULT:      -7.5     16.434     18.700
REMARK  4 active torsions:
REMARK  status: ('A' for Active; 'I' for Inactive)
REMARK    1  A    between atoms: C14_17  and  O2_2 
REMARK    2  A    between atoms: C7_10  and  O2_2 
REMARK    3  A    between atoms: C3_6  and  C6_9 
REMARK    4  A    between atoms: C12_15  and  C6_9 
ROOT
HETATM    1  O1  UNK     1      31.487  -4.621  36.860  1.00  0.00    -0.274 OA
HETATM    2  O3  UNK     1      29.560  -3.958  37.861  1.00  0.00    -0.259 OA
HETATM    3  C1  UNK     1      32.315  -6.887  37.174  1.00  0.00     0.005 A 
HETATM    4  C2  UNK     1      31.145  -7.177  38.027  1.00  0.00    -0.036 A 
HETATM    5  C3  UNK     1      30.249  -6.200  38.279  1.00  0.00     0.029 A 
HETATM    6  C4  UNK     1      32.445  -5.617  36.619  1.00  0.00     0.099 A 
HETATM    7  C5  UNK     1      33.520  -5.259  35.802  1.00  0.00     0.006 A 
HETATM    8  C7  UNK     1      34.509  -6.196  35.527  1.00  0.00     0.078 A 
HETATM    9  C8  UNK     1      33.329  -7.815  36.889  1.00  0.00     0.017 A 
HETATM   10  C9  UNK     1      30.386  -4.845  37.669  1.00  0.00     0.295 A 
HETATM   11  C10 UNK     1      34.414  -7.474  36.072  1.00  0.00     0.038 A 
HETATM   12  C11 UNK     1      31.020  -8.584  38.557  1.00  0.00     0.050 C 
HETATM   13  C13 UNK     1      33.613  -3.883  35.225  1.00  0.00     0.054 C 
ENDROOT
BRANCH   5  14
HETATM   14  C6  UNK     1      29.048  -6.342  39.179  1.00  0.00     0.084 C 
BRANCH  14  15
HETATM   15  C12 UNK     1      28.105  -7.406  38.701  1.00  0.00    -0.054 A 
HETATM   16  C15 UNK     1      27.717  -7.434  37.367  1.00  0.00     0.007 A 
HETATM   17  C19 UNK     1      26.839  -8.423  36.923  1.00  0.00     0.001 A 
HETATM   18  C21 UNK     1      26.355  -9.378  37.816  1.00  0.00     0.000 A 
HETATM   19  C20 UNK     1      26.748  -9.343  39.154  1.00  0.00     0.001 A 
HETATM   20  C16 UNK     1      27.625  -8.355  39.598  1.00  0.00     0.007 A 
ENDBRANCH  14  15
ENDBRANCH   5  14
BRANCH   8  21
HETATM   21  O2  UNK     1      35.572  -5.885  34.736  1.00  0.00    -0.346 OA
BRANCH  21  22
HETATM   22  C14 UNK     1      36.016  -6.887  33.823  1.00  0.00     0.120 C 
HETATM   23  C17 UNK     1      35.941  -6.342  32.405  1.00  0.00     0.040 C 
HETATM   24  C18 UNK     1      37.430  -7.310  34.193  1.00  0.00     0.040 C 
ENDBRANCH  21  22
ENDBRANCH   8  21
TORSDOF 4
ENDMDL
MODEL 10
REMARK VINA RESULT:      -7.3     12.761     15.718
REMARK  4 active torsions:
REMARK  status: ('A' for Active; 'I' for Inactive)
REMARK    1  A    between atoms: C14_17  and  O2_2 
REMARK    2  A    between atoms: C7_10  and  O2_2 
REMARK    3  A    between atoms: C3_6  and  C6_9 
REMARK    4  A    between atoms: C12_15  and  C6_9 
ROOT
HETATM    1  O1  UNK     1      24.825 -10.270  36.150  1.00  0.00    -0.274 OA
HETATM    2  O3  UNK     1      23.049 -11.407  35.311  1.00  0.00    -0.259 OA
HETATM    3  C1  UNK     1      24.500  -8.590  37.880  1.00  0.00     0.005 A 
HETATM    4  C2  UNK     1      23.050  -8.872  37.857  1.00  0.00    -0.036 A 
HETATM    5  C3  UNK     1      22.566  -9.784  36.987  1.00  0.00     0.029 A 
HETATM    6  C4  UNK     1      25.338  -9.300  37.025  1.00  0.00     0.099 A 
HETATM    7  C5  UNK     1      26.719  -9.093  36.983  1.00  0.00     0.006 A 
HETATM    8  C7  UNK     1      27.292  -8.143  37.819  1.00  0.00     0.078 A 
HETATM    9  C8  UNK     1      25.099  -7.629  38.711  1.00  0.00     0.017 A 
HETATM   10  C9  UNK     1      23.471 -10.552  36.083  1.00  0.00     0.295 A 
HETATM   11  C10 UNK     1      26.482  -7.410  38.682  1.00  0.00     0.038 A 
HETATM   12  C11 UNK     1      22.192  -8.119  38.843  1.00  0.00     0.050 C 
HETATM   13  C13 UNK     1      27.579  -9.884  36.050  1.00  0.00     0.054 C 
ENDROOT
BRANCH   5  14
HETATM   14  C6  UNK     1      21.107 -10.123  36.815  1.00  0.00     0.084 C 
BRANCH  14  15
HETATM   15  C12 UNK     1      20.330  -8.989  36.215  1.00  0.00    -0.054 A 
HETATM   16  C15 UNK     1      20.895  -8.227  35.199  1.00  0.00     0.007 A 
HETATM   17  C19 UNK     1      20.172  -7.172  34.642  1.00  0.00     0.001 A 
HETATM   18  C21 UNK     1      18.887  -6.887  35.103  1.00  0.00     0.000 A 
HETATM   19  C20 UNK     1      18.327  -7.655  36.123  1.00  0.00     0.001 A 
HETATM   20  C16 UNK     1      19.049  -8.709  36.681  1.00  0.00     0.007 A 
ENDBRANCH  14  15
ENDBRANCH   5  14
BRANCH   8  21
HETATM   21  O2  UNK     1      28.633  -7.913  37.807  1.00  0.00    -0.346 OA
BRANCH  21  22
HETATM   22  C14 UNK     1      29.060  -6.576  37.552  1.00  0.00     0.120 C 
HETATM   23  C17 UNK     1      30.309  -6.284  38.368  1.00  0.00     0.040 C 
HETATM   24  C18 UNK     1      29.305  -6.405  36.060  1.00  0.00     0.040 C 
ENDBRANCH  21  22
ENDBRANCH   8  21
TORSDOF 4
ENDMDL
