MODEL 1
REMARK VINA RESULT:      -9.5      0.000      0.000
REMARK  5 active torsions:
REMARK  status: ('A' for Active; 'I' for Inactive)
REMARK    1  A    between atoms: C13_22  and  O4_5 
REMARK    2  A    between atoms: C21_30  and  O4_5 
REMARK    3  A    between atoms: C9_18  and  N2_9 
REMARK    4  A    between atoms: C13_22  and  C4_13 
REMARK    5  A    between atoms: C21_30  and  C22_31 
ROOT
HETATM    1 Br1  UNK     1      28.360  -8.974  32.322  1.00  0.00    -0.051 Br
HETATM    2  O1  UNK     1      30.264  -4.545  37.301  1.00  0.00    -0.287 OA
HETATM    3  O2  UNK     1      27.719  -6.135  39.355  1.00  0.00    -0.273 OA
HETATM    4  O3  UNK     1      32.756  -7.694  38.533  1.00  0.00    -0.271 OA
HETATM    5  O6  UNK     1      28.224  -3.967  38.912  1.00  0.00    -0.257 OA
HETATM    6  N1  UNK     1      32.414  -9.209  36.766  1.00  0.00    -0.325 N 
HETATM    7  C1  UNK     1      31.081  -7.235  36.754  1.00  0.00     0.138 A 
HETATM    8  C2  UNK     1      30.715  -8.183  35.629  1.00  0.00    -0.003 A 
HETATM    9  C3  UNK     1      29.919  -6.898  37.700  1.00  0.00     0.023 A 
HETATM   10  C4  UNK     1      31.786  -5.990  36.203  1.00  0.00     0.095 A 
HETATM   11  C5  UNK     1      32.185  -8.036  37.507  1.00  0.00     0.245 A 
HETATM   12  C6  UNK     1      31.552  -9.301  35.674  1.00  0.00     0.043 A 
HETATM   13  C7  UNK     1      29.595  -5.600  37.891  1.00  0.00     0.162 A 
HETATM   14  C8  UNK     1      29.109  -7.919  38.422  1.00  0.00     0.009 A 
HETATM   15  C9  UNK     1      31.367  -4.742  36.487  1.00  0.00     0.156 A 
HETATM   16  C10 UNK     1      29.758  -8.063  34.636  1.00  0.00     0.030 A 
HETATM   17  C11 UNK     1      31.471 -10.328  34.754  1.00  0.00     0.031 A 
HETATM   18  C12 UNK     1      28.035  -7.493  39.210  1.00  0.00     0.090 A 
HETATM   19  C14 UNK     1      28.476  -5.157  38.751  1.00  0.00     0.323 A 
HETATM   20  C15 UNK     1      29.656  -9.091  33.695  1.00  0.00     0.011 A 
HETATM   21  C16 UNK     1      29.321  -9.304  38.392  1.00  0.00     0.015 A 
HETATM   22  C17 UNK     1      30.505 -10.213  33.753  1.00  0.00     0.021 A 
HETATM   23  C18 UNK     1      27.204  -8.371  39.918  1.00  0.00     0.038 A 
HETATM   24  C19 UNK     1      28.502 -10.200  39.095  1.00  0.00     0.001 A 
HETATM   25  C20 UNK     1      27.440  -9.735  39.856  1.00  0.00     0.003 A 
HETATM   26  H1  UNK     1      33.093  -9.922  37.005  1.00  0.00     0.169 HD
ENDROOT
BRANCH  10  27
HETATM   27  C13 UNK     1      32.967  -6.155  35.325  1.00  0.00     0.295 C 
HETATM   28  O5  UNK     1      33.997  -6.677  35.694  1.00  0.00    -0.259 OA
BRANCH  27  29
HETATM   29  O4  UNK     1      32.665  -5.634  34.114  1.00  0.00    -0.313 OA
BRANCH  29  30
HETATM   30  C21 UNK     1      32.588  -6.589  33.052  1.00  0.00     0.217 C 
BRANCH  30  31
HETATM   31  C22 UNK     1      31.408  -6.265  32.184  1.00  0.00    -0.034 A 
HETATM   32  C23 UNK     1      30.456  -5.356  32.628  1.00  0.00     0.009 A 
HETATM   33  C25 UNK     1      29.359  -5.054  31.820  1.00  0.00     0.001 A 
HETATM   34  C27 UNK     1      29.222  -5.664  30.574  1.00  0.00     0.000 A 
HETATM   35  C26 UNK     1      30.181  -6.576  30.135  1.00  0.00     0.001 A 
HETATM   36  C24 UNK     1      31.278  -6.878  30.943  1.00  0.00     0.009 A 
ENDBRANCH  30  31
ENDBRANCH  29  30
ENDBRANCH  27  29
ENDBRANCH  10  27
BRANCH  15  37
HETATM   37  N2  UNK     1      31.913  -3.568  36.050  1.00  0.00    -0.379 N 
HETATM   38  H7  UNK     1      32.176  -3.482  35.077  1.00  0.00     0.158 HD
HETATM   39  H8  UNK     1      32.056  -2.797  36.688  1.00  0.00     0.158 HD
ENDBRANCH  15  37
TORSDOF 5
ENDMDL
MODEL 2
REMARK VINA RESULT:      -9.0      1.864      2.755
REMARK  5 active torsions:
REMARK  status: ('A' for Active; 'I' for Inactive)
REMARK    1  A    between atoms: C13_22  and  O4_5 
REMARK    2  A    between atoms: C21_30  and  O4_5 
REMARK    3  A    between atoms: C9_18  and  N2_9 
REMARK    4  A    between atoms: C13_22  and  C4_13 
REMARK    5  A    between atoms: C21_30  and  C22_31 
ROOT
HETATM    1 Br1  UNK     1      28.465  -7.889  31.629  1.00  0.00    -0.051 Br
HETATM    2  O1  UNK     1      33.043  -4.206  35.303  1.00  0.00    -0.287 OA
HETATM    3  O2  UNK     1      30.322  -3.603  37.639  1.00  0.00    -0.273 OA
HETATM    4  O3  UNK     1      33.597  -7.809  37.390  1.00  0.00    -0.271 OA
HETATM    5  O6  UNK     1      31.848  -2.244  36.650  1.00  0.00    -0.257 OA
HETATM    6  N1  UNK     1      32.282  -9.254  36.080  1.00  0.00    -0.325 N 
HETATM    7  C1  UNK     1      32.221  -6.941  35.511  1.00  0.00     0.138 A 
HETATM    8  C2  UNK     1      31.268  -7.767  34.667  1.00  0.00    -0.003 A 
HETATM    9  C3  UNK     1      31.547  -5.811  36.303  1.00  0.00     0.023 A 
HETATM   10  C4  UNK     1      33.407  -6.459  34.667  1.00  0.00     0.095 A 
HETATM   11  C5  UNK     1      32.810  -8.013  36.477  1.00  0.00     0.245 A 
HETATM   12  C6  UNK     1      31.376  -9.113  35.029  1.00  0.00     0.043 A 
HETATM   13  C7  UNK     1      31.994  -4.547  36.134  1.00  0.00     0.162 A 
HETATM   14  C8  UNK     1      30.415  -6.017  37.248  1.00  0.00     0.009 A 
HETATM   15  C9  UNK     1      33.759  -5.160  34.599  1.00  0.00     0.156 A 
HETATM   16  C10 UNK     1      30.408  -7.380  33.655  1.00  0.00     0.030 A 
HETATM   17  C11 UNK     1      30.645 -10.109  34.413  1.00  0.00     0.031 A 
HETATM   18  C12 UNK     1      29.842  -4.901  37.867  1.00  0.00     0.090 A 
HETATM   19  C14 UNK     1      31.402  -3.376  36.817  1.00  0.00     0.323 A 
HETATM   20  C15 UNK     1      29.656  -8.371  33.017  1.00  0.00     0.011 A 
HETATM   21  C16 UNK     1      29.848  -7.252  37.592  1.00  0.00     0.015 A 
HETATM   22  C17 UNK     1      29.774  -9.722  33.393  1.00  0.00     0.021 A 
HETATM   23  C18 UNK     1      28.767  -4.983  38.761  1.00  0.00     0.038 A 
HETATM   24  C19 UNK     1      28.772  -7.357  38.486  1.00  0.00     0.001 A 
HETATM   25  C20 UNK     1      28.228  -6.222  39.069  1.00  0.00     0.003 A 
HETATM   26  H1  UNK     1      32.498 -10.142  36.517  1.00  0.00     0.169 HD
ENDROOT
BRANCH  10  27
HETATM   27  C13 UNK     1      34.197  -7.445  33.895  1.00  0.00     0.295 C 
HETATM   28  O5  UNK     1      35.034  -8.162  34.400  1.00  0.00    -0.259 OA
BRANCH  27  29
HETATM   29  O4  UNK     1      33.807  -7.374  32.602  1.00  0.00    -0.313 OA
BRANCH  29  30
HETATM   30  C21 UNK     1      33.589  -8.639  31.971  1.00  0.00     0.217 C 
BRANCH  30  31
HETATM   31  C22 UNK     1      32.625  -8.461  30.835  1.00  0.00    -0.034 A 
HETATM   32  C23 UNK     1      32.353  -7.185  30.356  1.00  0.00     0.009 A 
HETATM   33  C25 UNK     1      31.459  -7.021  29.298  1.00  0.00     0.001 A 
HETATM   34  C27 UNK     1      30.841  -8.133  28.728  1.00  0.00     0.000 A 
HETATM   35  C26 UNK     1      31.117  -9.410  29.214  1.00  0.00     0.001 A 
HETATM   36  C24 UNK     1      32.013  -9.575  30.272  1.00  0.00     0.009 A 
ENDBRANCH  30  31
ENDBRANCH  29  30
ENDBRANCH  27  29
ENDBRANCH  10  27
BRANCH  15  37
HETATM   37  N2  UNK     1      34.788  -4.621  33.881  1.00  0.00    -0.379 N 
HETATM   38  H7  UNK     1      35.693  -4.517  34.321  1.00  0.00     0.158 HD
HETATM   39  H8  UNK     1      34.649  -4.324  32.924  1.00  0.00     0.158 HD
ENDBRANCH  15  37
TORSDOF 5
ENDMDL
MODEL 3
REMARK VINA RESULT:      -8.9      2.667      4.121
REMARK  5 active torsions:
REMARK  status: ('A' for Active; 'I' for Inactive)
REMARK    1  A    between atoms: C13_22  and  O4_5 
REMARK    2  A    between atoms: C21_30  and  O4_5 
REMARK    3  A    between atoms: C9_18  and  N2_9 
REMARK    4  A    between atoms: C13_22  and  C4_13 
REMARK    5  A    between atoms: C21_30  and  C22_31 
ROOT
HETATM    1 Br1  UNK     1      29.892  -4.104  31.327  1.00  0.00    -0.051 Br
HETATM    2  O1  UNK     1      33.873  -7.484  35.883  1.00  0.00    -0.287 OA
HETATM    3  O2  UNK     1      32.531  -5.207  38.381  1.00  0.00    -0.273 OA
HETATM    4  O3  UNK     1      30.401  -9.749  36.562  1.00  0.00    -0.271 OA
HETATM    5  O6  UNK     1      34.636  -5.887  37.872  1.00  0.00    -0.257 OA
HETATM    6  N1  UNK     1      29.004  -8.882  34.880  1.00  0.00    -0.325 N 
HETATM    7  C1  UNK     1      31.125  -7.833  35.155  1.00  0.00     0.138 A 
HETATM    8  C2  UNK     1      30.270  -7.138  34.113  1.00  0.00    -0.003 A 
HETATM    9  C3  UNK     1      31.566  -6.929  36.315  1.00  0.00     0.023 A 
HETATM   10  C4  UNK     1      32.294  -8.569  34.489  1.00  0.00     0.095 A 
HETATM   11  C5  UNK     1      30.168  -8.952  35.666  1.00  0.00     0.245 A 
HETATM   12  C6  UNK     1      29.057  -7.820  33.979  1.00  0.00     0.043 A 
HETATM   13  C7  UNK     1      32.886  -6.815  36.581  1.00  0.00     0.162 A 
HETATM   14  C8  UNK     1      30.626  -6.152  37.171  1.00  0.00     0.009 A 
HETATM   15  C9  UNK     1      33.573  -8.374  34.865  1.00  0.00     0.156 A 
HETATM   16  C10 UNK     1      30.541  -6.029  33.330  1.00  0.00     0.030 A 
HETATM   17  C11 UNK     1      28.082  -7.432  33.082  1.00  0.00     0.031 A 
HETATM   18  C12 UNK     1      31.151  -5.315  38.160  1.00  0.00     0.090 A 
HETATM   19  C14 UNK     1      33.431  -5.950  37.651  1.00  0.00     0.323 A 
HETATM   20  C15 UNK     1      29.568  -5.616  32.416  1.00  0.00     0.011 A 
HETATM   21  C16 UNK     1      29.227  -6.177  37.084  1.00  0.00     0.015 A 
HETATM   22  C17 UNK     1      28.350  -6.312  32.292  1.00  0.00     0.021 A 
HETATM   23  C18 UNK     1      30.356  -4.533  39.009  1.00  0.00     0.038 A 
HETATM   24  C19 UNK     1      28.413  -5.404  37.924  1.00  0.00     0.001 A 
HETATM   25  C20 UNK     1      28.976  -4.578  38.885  1.00  0.00     0.003 A 
HETATM   26  H1  UNK     1      28.205  -9.498  34.972  1.00  0.00     0.169 HD
ENDROOT
BRANCH  10  27
HETATM   27  C13 UNK     1      32.019  -9.526  33.394  1.00  0.00     0.295 C 
HETATM   28  O5  UNK     1      31.459 -10.587  33.569  1.00  0.00    -0.259 OA
BRANCH  27  29
HETATM   29  O4  UNK     1      32.493  -8.995  32.244  1.00  0.00    -0.313 OA
BRANCH  29  30
HETATM   30  C21 UNK     1      32.169  -9.735  31.063  1.00  0.00     0.217 C 
BRANCH  30  31
HETATM   31  C22 UNK     1      30.952  -9.132  30.425  1.00  0.00    -0.034 A 
HETATM   32  C23 UNK     1      29.732  -9.793  30.508  1.00  0.00     0.009 A 
HETATM   33  C25 UNK     1      28.601  -9.232  29.916  1.00  0.00     0.001 A 
HETATM   34  C27 UNK     1      28.697  -8.014  29.244  1.00  0.00     0.000 A 
HETATM   35  C26 UNK     1      29.924  -7.357  29.164  1.00  0.00     0.001 A 
HETATM   36  C24 UNK     1      31.056  -7.917  29.756  1.00  0.00     0.009 A 
ENDBRANCH  30  31
ENDBRANCH  29  30
ENDBRANCH  27  29
ENDBRANCH  10  27
BRANCH  15  37
HETATM   37  N2  UNK     1      34.686  -8.969  34.342  1.00  0.00    -0.379 N 
HETATM   38  H7  UNK     1      34.939  -9.897  34.655  1.00  0.00     0.158 HD
HETATM   39  H8  UNK     1      35.253  -8.489  33.656  1.00  0.00     0.158 HD
ENDBRANCH  15  37
TORSDOF 5
ENDMDL
MODEL 4
REMARK VINA RESULT:      -8.9      1.846      2.335
REMARK  5 active torsions:
REMARK  status: ('A' for Active; 'I' for Inactive)
REMARK    1  A    between atoms: C13_22  and  O4_5 
REMARK    2  A    between atoms: C21_30  and  O4_5 
REMARK    3  A    between atoms: C9_18  and  N2_9 
REMARK    4  A    between atoms: C13_22  and  C4_13 
REMARK    5  A    between atoms: C21_30  and  C22_31 
ROOT
HETATM    1 Br1  UNK     1      27.288  -6.684  30.931  1.00  0.00    -0.051 Br
HETATM    2  O1  UNK     1      31.261  -5.157  36.400  1.00  0.00    -0.287 OA
HETATM    3  O2  UNK     1      28.250  -5.561  38.398  1.00  0.00    -0.273 OA
HETATM    4  O3  UNK     1      31.641  -9.327  36.727  1.00  0.00    -0.271 OA
HETATM    5  O6  UNK     1      29.852  -3.955  38.313  1.00  0.00    -0.257 OA
HETATM    6  N1  UNK     1      30.542 -10.000  34.759  1.00  0.00    -0.325 N 
HETATM    7  C1  UNK     1      30.492  -7.674  35.270  1.00  0.00     0.138 A 
HETATM    8  C2  UNK     1      29.677  -8.010  34.036  1.00  0.00    -0.003 A 
HETATM    9  C3  UNK     1      29.694  -6.989  36.388  1.00  0.00     0.023 A 
HETATM   10  C4  UNK     1      31.763  -6.907  34.884  1.00  0.00     0.095 A 
HETATM   11  C5  UNK     1      30.982  -9.081  35.728  1.00  0.00     0.245 A 
HETATM   12  C6  UNK     1      29.774  -9.379  33.775  1.00  0.00     0.043 A 
HETATM   13  C7  UNK     1      30.124  -5.796  36.854  1.00  0.00     0.162 A 
HETATM   14  C8  UNK     1      28.456  -7.554  36.994  1.00  0.00     0.009 A 
HETATM   15  C9  UNK     1      32.086  -5.724  35.442  1.00  0.00     0.156 A 
HETATM   16  C10 UNK     1      28.943  -7.187  33.200  1.00  0.00     0.030 A 
HETATM   17  C11 UNK     1      29.154  -9.976  32.695  1.00  0.00     0.031 A 
HETATM   18  C12 UNK     1      27.780  -6.809  37.965  1.00  0.00     0.090 A 
HETATM   19  C14 UNK     1      29.420  -5.029  37.905  1.00  0.00     0.323 A 
HETATM   20  C15 UNK     1      28.305  -7.768  32.101  1.00  0.00     0.011 A 
HETATM   21  C16 UNK     1      27.883  -8.795  36.681  1.00  0.00     0.015 A 
HETATM   22  C17 UNK     1      28.410  -9.150  31.850  1.00  0.00     0.021 A 
HETATM   23  C18 UNK     1      26.602  -7.243  38.588  1.00  0.00     0.038 A 
HETATM   24  C19 UNK     1      26.705  -9.249  37.293  1.00  0.00     0.001 A 
HETATM   25  C20 UNK     1      26.061  -8.472  38.245  1.00  0.00     0.003 A 
HETATM   26  H1  UNK     1      30.724 -10.996  34.781  1.00  0.00     0.169 HD
ENDROOT
BRANCH  10  27
HETATM   27  C13 UNK     1      32.670  -7.475  33.861  1.00  0.00     0.295 C 
HETATM   28  O5  UNK     1      33.424  -8.398  34.086  1.00  0.00    -0.259 OA
BRANCH  27  29
HETATM   29  O4  UNK     1      32.487  -6.789  32.710  1.00  0.00    -0.313 OA
BRANCH  29  30
HETATM   30  C21 UNK     1      33.168  -7.331  31.574  1.00  0.00     0.217 C 
BRANCH  30  31
HETATM   31  C22 UNK     1      32.154  -7.809  30.577  1.00  0.00    -0.034 A 
HETATM   32  C23 UNK     1      31.387  -6.885  29.878  1.00  0.00     0.009 A 
HETATM   33  C25 UNK     1      30.446  -7.331  28.949  1.00  0.00     0.001 A 
HETATM   34  C27 UNK     1      30.278  -8.697  28.726  1.00  0.00     0.000 A 
HETATM   35  C26 UNK     1      31.052  -9.619  29.432  1.00  0.00     0.001 A 
HETATM   36  C24 UNK     1      31.993  -9.173  30.360  1.00  0.00     0.009 A 
ENDBRANCH  30  31
ENDBRANCH  29  30
ENDBRANCH  27  29
ENDBRANCH  10  27
BRANCH  15  37
HETATM   37  N2  UNK     1      33.183  -4.957  35.173  1.00  0.00    -0.379 N 
HETATM   38  H7  UNK     1      34.072  -5.411  35.010  1.00  0.00     0.158 HD
HETATM   39  H8  UNK     1      33.112  -3.948  35.140  1.00  0.00     0.158 HD
ENDBRANCH  15  37
TORSDOF 5
ENDMDL
MODEL 5
REMARK VINA RESULT:      -8.8      1.970      3.096
REMARK  5 active torsions:
REMARK  status: ('A' for Active; 'I' for Inactive)
REMARK    1  A    between atoms: C13_22  and  O4_5 
REMARK    2  A    between atoms: C21_30  and  O4_5 
REMARK    3  A    between atoms: C9_18  and  N2_9 
REMARK    4  A    between atoms: C13_22  and  C4_13 
REMARK    5  A    between atoms: C21_30  and  C22_31 
ROOT
HETATM    1 Br1  UNK     1      27.313  -6.508  32.249  1.00  0.00    -0.051 Br
HETATM    2  O1  UNK     1      30.952  -4.111  37.637  1.00  0.00    -0.287 OA
HETATM    3  O2  UNK     1      28.448  -5.712  39.733  1.00  0.00    -0.273 OA
HETATM    4  O3  UNK     1      32.784  -7.889  37.511  1.00  0.00    -0.271 OA
HETATM    5  O6  UNK     1      29.379  -3.642  39.734  1.00  0.00    -0.257 OA
HETATM    6  N1  UNK     1      31.826  -8.749  35.542  1.00  0.00    -0.325 N 
HETATM    7  C1  UNK     1      31.014  -6.639  36.293  1.00  0.00     0.138 A 
HETATM    8  C2  UNK     1      30.266  -7.143  35.074  1.00  0.00    -0.003 A 
HETATM    9  C3  UNK     1      30.124  -6.373  37.516  1.00  0.00     0.023 A 
HETATM   10  C4  UNK     1      31.902  -5.444  35.924  1.00  0.00     0.095 A 
HETATM   11  C5  UNK     1      31.999  -7.814  36.577  1.00  0.00     0.245 A 
HETATM   12  C6  UNK     1      30.810  -8.365  34.667  1.00  0.00     0.043 A 
HETATM   13  C7  UNK     1      30.150  -5.146  38.080  1.00  0.00     0.162 A 
HETATM   14  C8  UNK     1      29.215  -7.385  38.122  1.00  0.00     0.009 A 
HETATM   15  C9  UNK     1      31.839  -4.273  36.586  1.00  0.00     0.156 A 
HETATM   16  C10 UNK     1      29.224  -6.570  34.366  1.00  0.00     0.030 A 
HETATM   17  C11 UNK     1      30.348  -9.054  33.565  1.00  0.00     0.031 A 
HETATM   18  C12 UNK     1      28.406  -7.007  39.198  1.00  0.00     0.090 A 
HETATM   19  C14 UNK     1      29.314  -4.763  39.239  1.00  0.00     0.323 A 
HETATM   20  C15 UNK     1      28.738  -7.251  33.246  1.00  0.00     0.011 A 
HETATM   21  C16 UNK     1      29.085  -8.720  37.711  1.00  0.00     0.015 A 
HETATM   22  C17 UNK     1      29.295  -8.481  32.849  1.00  0.00     0.021 A 
HETATM   23  C18 UNK     1      27.509  -7.878  39.830  1.00  0.00     0.038 A 
HETATM   24  C19 UNK     1      28.194  -9.608  38.331  1.00  0.00     0.001 A 
HETATM   25  C20 UNK     1      27.403  -9.187  39.390  1.00  0.00     0.003 A 
HETATM   26  H1  UNK     1      32.344  -9.615  35.451  1.00  0.00     0.169 HD
ENDROOT
BRANCH  10  27
HETATM   27  C13 UNK     1      32.861  -5.572  34.804  1.00  0.00     0.295 C 
HETATM   28  O5  UNK     1      32.530  -5.503  33.640  1.00  0.00    -0.259 OA
BRANCH  27  29
HETATM   29  O4  UNK     1      34.092  -5.768  35.327  1.00  0.00    -0.313 OA
BRANCH  29  30
HETATM   30  C21 UNK     1      35.174  -5.378  34.476  1.00  0.00     0.217 C 
BRANCH  30  31
HETATM   31  C22 UNK     1      35.774  -6.603  33.851  1.00  0.00    -0.034 A 
HETATM   32  C23 UNK     1      36.727  -7.335  34.548  1.00  0.00     0.009 A 
HETATM   33  C25 UNK     1      37.283  -8.475  33.967  1.00  0.00     0.001 A 
HETATM   34  C27 UNK     1      36.883  -8.875  32.693  1.00  0.00     0.000 A 
HETATM   35  C26 UNK     1      35.926  -8.135  31.998  1.00  0.00     0.001 A 
HETATM   36  C24 UNK     1      35.369  -6.995  32.579  1.00  0.00     0.009 A 
ENDBRANCH  30  31
ENDBRANCH  29  30
ENDBRANCH  27  29
ENDBRANCH  10  27
BRANCH  15  37
HETATM   37  N2  UNK     1      32.575  -3.147  36.342  1.00  0.00    -0.379 N 
HETATM   38  H7  UNK     1      33.159  -3.112  35.517  1.00  0.00     0.158 HD
HETATM   39  H8  UNK     1      32.541  -2.361  36.978  1.00  0.00     0.158 HD
ENDBRANCH  15  37
TORSDOF 5
ENDMDL
MODEL 6
REMARK VINA RESULT:      -8.8      2.914      6.530
REMARK  5 active torsions:
REMARK  status: ('A' for Active; 'I' for Inactive)
REMARK    1  A    between atoms: C13_22  and  O4_5 
REMARK    2  A    between atoms: C21_30  and  O4_5 
REMARK    3  A    between atoms: C9_18  and  N2_9 
REMARK    4  A    between atoms: C13_22  and  C4_13 
REMARK    5  A    between atoms: C21_30  and  C22_31 
ROOT
HETATM    1 Br1  UNK     1      26.115 -10.711  36.864  1.00  0.00    -0.051 Br
HETATM    2  O1  UNK     1      31.460 -10.684  32.455  1.00  0.00    -0.287 OA
HETATM    3  O2  UNK     1      29.038  -9.775  29.899  1.00  0.00    -0.273 OA
HETATM    4  O3  UNK     1      31.587  -6.578  33.328  1.00  0.00    -0.271 OA
HETATM    5  O6  UNK     1      30.685 -11.334  29.991  1.00  0.00    -0.257 OA
HETATM    6  N1  UNK     1      29.973  -6.467  35.036  1.00  0.00    -0.325 N 
HETATM    7  C1  UNK     1      30.236  -8.570  33.948  1.00  0.00     0.138 A 
HETATM    8  C2  UNK     1      29.109  -8.583  34.963  1.00  0.00    -0.003 A 
HETATM    9  C3  UNK     1      29.805  -8.932  32.519  1.00  0.00     0.023 A 
HETATM   10  C4  UNK     1      31.421  -9.405  34.448  1.00  0.00     0.095 A 
HETATM   11  C5  UNK     1      30.716  -7.088  34.017  1.00  0.00     0.245 A 
HETATM   12  C6  UNK     1      29.029  -7.334  35.585  1.00  0.00     0.043 A 
HETATM   13  C7  UNK     1      30.431  -9.953  31.894  1.00  0.00     0.162 A 
HETATM   14  C8  UNK     1      28.723  -8.232  31.772  1.00  0.00     0.009 A 
HETATM   15  C9  UNK     1      31.966 -10.391  33.710  1.00  0.00     0.156 A 
HETATM   16  C10 UNK     1      28.251  -9.606  35.331  1.00  0.00     0.030 A 
HETATM   17  C11 UNK     1      28.109  -7.055  36.575  1.00  0.00     0.031 A 
HETATM   18  C12 UNK     1      28.378  -8.692  30.498  1.00  0.00     0.090 A 
HETATM   19  C14 UNK     1      30.080 -10.413  30.532  1.00  0.00     0.323 A 
HETATM   20  C15 UNK     1      27.310  -9.345  36.330  1.00  0.00     0.011 A 
HETATM   21  C16 UNK     1      27.995  -7.125  32.230  1.00  0.00     0.015 A 
HETATM   22  C17 UNK     1      27.241  -8.082  36.948  1.00  0.00     0.021 A 
HETATM   23  C18 UNK     1      27.368  -8.113  29.717  1.00  0.00     0.038 A 
HETATM   24  C19 UNK     1      26.981  -6.529  31.465  1.00  0.00     0.001 A 
HETATM   25  C20 UNK     1      26.665  -7.025  30.208  1.00  0.00     0.003 A 
HETATM   26  H1  UNK     1      30.077  -5.501  35.321  1.00  0.00     0.169 HD
ENDROOT
BRANCH  10  27
HETATM   27  C13 UNK     1      31.990  -9.128  35.786  1.00  0.00     0.295 C 
HETATM   28  O5  UNK     1      31.493  -9.539  36.813  1.00  0.00    -0.259 OA
BRANCH  27  29
HETATM   29  O4  UNK     1      33.100  -8.373  35.622  1.00  0.00    -0.313 OA
BRANCH  29  30
HETATM   30  C21 UNK     1      33.573  -7.735  36.812  1.00  0.00     0.217 C 
BRANCH  30  31
HETATM   31  C22 UNK     1      32.901  -6.401  36.954  1.00  0.00    -0.034 A 
HETATM   32  C23 UNK     1      33.234  -5.366  36.088  1.00  0.00     0.009 A 
HETATM   33  C25 UNK     1      32.608  -4.127  36.220  1.00  0.00     0.001 A 
HETATM   34  C27 UNK     1      31.653  -3.930  37.217  1.00  0.00     0.000 A 
HETATM   35  C26 UNK     1      31.324  -4.973  38.083  1.00  0.00     0.001 A 
HETATM   36  C24 UNK     1      31.950  -6.213  37.951  1.00  0.00     0.009 A 
ENDBRANCH  30  31
ENDBRANCH  29  30
ENDBRANCH  27  29
ENDBRANCH  10  27
BRANCH  15  37
HETATM   37  N2  UNK     1      33.014 -11.197  34.055  1.00  0.00    -0.379 N 
HETATM   38  H7  UNK     1      33.029 -12.152  33.724  1.00  0.00     0.158 HD
HETATM   39  H8  UNK     1      33.765 -10.846  34.637  1.00  0.00     0.158 HD
ENDBRANCH  15  37
TORSDOF 5
ENDMDL
MODEL 7
REMARK VINA RESULT:      -8.8      2.661      4.398
REMARK  5 active torsions:
REMARK  status: ('A' for Active; 'I' for Inactive)
REMARK    1  A    between atoms: C13_22  and  O4_5 
REMARK    2  A    between atoms: C21_30  and  O4_5 
REMARK    3  A    between atoms: C9_18  and  N2_9 
REMARK    4  A    between atoms: C13_22  and  C4_13 
REMARK    5  A    between atoms: C21_30  and  C22_31 
ROOT
HETATM    1 Br1  UNK     1      28.195  -6.239  30.332  1.00  0.00    -0.051 Br
HETATM    2  O1  UNK     1      34.137  -5.695  33.856  1.00  0.00    -0.287 OA
HETATM    3  O2  UNK     1      32.183  -4.013  36.420  1.00  0.00    -0.273 OA
HETATM    4  O3  UNK     1      32.862  -9.254  35.685  1.00  0.00    -0.271 OA
HETATM    5  O6  UNK     1      34.150  -3.525  35.399  1.00  0.00    -0.257 OA
HETATM    6  N1  UNK     1      30.949  -9.721  34.397  1.00  0.00    -0.325 N 
HETATM    7  C1  UNK     1      32.049  -7.652  33.968  1.00  0.00     0.138 A 
HETATM    8  C2  UNK     1      30.780  -7.810  33.153  1.00  0.00    -0.003 A 
HETATM    9  C3  UNK     1      32.070  -6.411  34.872  1.00  0.00     0.023 A 
HETATM   10  C4  UNK     1      33.285  -7.760  33.066  1.00  0.00     0.095 A 
HETATM   11  C5  UNK     1      32.048  -8.954  34.824  1.00  0.00     0.245 A 
HETATM   12  C6  UNK     1      30.203  -9.053  33.427  1.00  0.00     0.043 A 
HETATM   13  C7  UNK     1      33.090  -5.534  34.743  1.00  0.00     0.162 A 
HETATM   14  C8  UNK     1      31.025  -6.101  35.886  1.00  0.00     0.009 A 
HETATM   15  C9  UNK     1      34.244  -6.814  33.047  1.00  0.00     0.156 A 
HETATM   16  C10 UNK     1      30.199  -6.956  32.231  1.00  0.00     0.030 A 
HETATM   17  C11 UNK     1      29.046  -9.488  32.812  1.00  0.00     0.031 A 
HETATM   18  C12 UNK     1      31.120  -4.908  36.609  1.00  0.00     0.090 A 
HETATM   19  C14 UNK     1      33.199  -4.289  35.534  1.00  0.00     0.323 A 
HETATM   20  C15 UNK     1      29.026  -7.374  31.597  1.00  0.00     0.011 A 
HETATM   21  C16 UNK     1      29.922  -6.908  36.200  1.00  0.00     0.015 A 
HETATM   22  C17 UNK     1      28.456  -8.628  31.884  1.00  0.00     0.021 A 
HETATM   23  C18 UNK     1      30.184  -4.516  37.576  1.00  0.00     0.038 A 
HETATM   24  C19 UNK     1      28.975  -6.536  37.165  1.00  0.00     0.001 A 
HETATM   25  C20 UNK     1      29.103  -5.337  37.852  1.00  0.00     0.003 A 
HETATM   26  H1  UNK     1      30.701 -10.632  34.765  1.00  0.00     0.169 HD
ENDROOT
BRANCH  10  27
HETATM   27  C13 UNK     1      33.437  -8.937  32.182  1.00  0.00     0.295 C 
HETATM   28  O5  UNK     1      33.718 -10.042  32.595  1.00  0.00    -0.259 OA
BRANCH  27  29
HETATM   29  O4  UNK     1      33.211  -8.538  30.910  1.00  0.00    -0.313 OA
BRANCH  29  30
HETATM   30  C21 UNK     1      33.209  -9.592  29.942  1.00  0.00     0.217 C 
BRANCH  30  31
HETATM   31  C22 UNK     1      31.800  -9.846  29.495  1.00  0.00    -0.034 A 
HETATM   32  C23 UNK     1      31.195 -11.063  29.786  1.00  0.00     0.009 A 
HETATM   33  C25 UNK     1      29.883 -11.298  29.371  1.00  0.00     0.001 A 
HETATM   34  C27 UNK     1      29.187 -10.316  28.669  1.00  0.00     0.000 A 
HETATM   35  C26 UNK     1      29.801  -9.097  28.380  1.00  0.00     0.001 A 
HETATM   36  C24 UNK     1      31.112  -8.861  28.795  1.00  0.00     0.009 A 
ENDBRANCH  30  31
ENDBRANCH  29  30
ENDBRANCH  27  29
ENDBRANCH  10  27
BRANCH  15  37
HETATM   37  N2  UNK     1      35.378  -6.804  32.285  1.00  0.00    -0.379 N 
HETATM   38  H7  UNK     1      35.434  -7.415  31.480  1.00  0.00     0.158 HD
HETATM   39  H8  UNK     1      36.154  -6.200  32.522  1.00  0.00     0.158 HD
ENDBRANCH  15  37
TORSDOF 5
ENDMDL
MODEL 8
REMARK VINA RESULT:      -8.5      2.447      7.021
REMARK  5 active torsions:
REMARK  status: ('A' for Active; 'I' for Inactive)
REMARK    1  A    between atoms: C13_22  and  O4_5 
REMARK    2  A    between atoms: C21_30  and  O4_5 
REMARK    3  A    between atoms: C9_18  and  N2_9 
REMARK    4  A    between atoms: C13_22  and  C4_13 
REMARK    5  A    between atoms: C21_30  and  C22_31 
ROOT
HETATM    1 Br1  UNK     1      31.531 -12.130  35.161  1.00  0.00    -0.051 Br
HETATM    2  O1  UNK     1      34.629  -6.537  32.487  1.00  0.00    -0.287 OA
HETATM    3  O2  UNK     1      33.751  -7.903  29.233  1.00  0.00    -0.273 OA
HETATM    4  O3  UNK     1      30.747  -4.933  32.493  1.00  0.00    -0.271 OA
HETATM    5  O6  UNK     1      35.675  -7.063  30.095  1.00  0.00    -0.257 OA
HETATM    6  N1  UNK     1      29.594  -6.640  33.629  1.00  0.00    -0.325 N 
HETATM    7  C1  UNK     1      31.883  -7.055  33.115  1.00  0.00     0.138 A 
HETATM    8  C2  UNK     1      31.212  -8.252  33.760  1.00  0.00    -0.003 A 
HETATM    9  C3  UNK     1      32.483  -7.336  31.730  1.00  0.00     0.023 A 
HETATM   10  C4  UNK     1      32.883  -6.410  34.083  1.00  0.00     0.095 A 
HETATM   11  C5  UNK     1      30.703  -6.042  33.005  1.00  0.00     0.245 A 
HETATM   12  C6  UNK     1      29.885  -7.932  34.064  1.00  0.00     0.043 A 
HETATM   13  C7  UNK     1      33.792  -7.072  31.525  1.00  0.00     0.162 A 
HETATM   14  C8  UNK     1      31.712  -7.898  30.585  1.00  0.00     0.009 A 
HETATM   15  C9  UNK     1      34.167  -6.185  33.744  1.00  0.00     0.156 A 
HETATM   16  C10 UNK     1      31.724  -9.497  34.081  1.00  0.00     0.030 A 
HETATM   17  C11 UNK     1      29.030  -8.822  34.683  1.00  0.00     0.031 A 
HETATM   18  C12 UNK     1      32.383  -8.169  29.389  1.00  0.00     0.090 A 
HETATM   19  C14 UNK     1      34.487  -7.332  30.246  1.00  0.00     0.323 A 
HETATM   20  C15 UNK     1      30.877 -10.415  34.706  1.00  0.00     0.011 A 
HETATM   21  C16 UNK     1      30.341  -8.190  30.586  1.00  0.00     0.015 A 
HETATM   22  C17 UNK     1      29.542 -10.080  35.006  1.00  0.00     0.021 A 
HETATM   23  C18 UNK     1      31.754  -8.708  28.259  1.00  0.00     0.038 A 
HETATM   24  C19 UNK     1      29.692  -8.729  29.465  1.00  0.00     0.001 A 
HETATM   25  C20 UNK     1      30.399  -8.992  28.301  1.00  0.00     0.003 A 
HETATM   26  H1  UNK     1      28.682  -6.210  33.726  1.00  0.00     0.169 HD
ENDROOT
BRANCH  10  27
HETATM   27  C13 UNK     1      32.432  -6.023  35.438  1.00  0.00     0.295 C 
HETATM   28  O5  UNK     1      31.716  -5.067  35.649  1.00  0.00    -0.259 OA
BRANCH  27  29
HETATM   29  O4  UNK     1      32.957  -6.902  36.322  1.00  0.00    -0.313 OA
BRANCH  29  30
HETATM   30  C21 UNK     1      32.534  -6.716  37.676  1.00  0.00     0.217 C 
BRANCH  30  31
HETATM   31  C22 UNK     1      31.415  -7.670  37.976  1.00  0.00    -0.034 A 
HETATM   32  C23 UNK     1      30.115  -7.191  38.093  1.00  0.00     0.009 A 
HETATM   33  C25 UNK     1      29.075  -8.079  38.370  1.00  0.00     0.001 A 
HETATM   34  C27 UNK     1      29.341  -9.438  38.530  1.00  0.00     0.000 A 
HETATM   35  C26 UNK     1      30.648  -9.911  38.412  1.00  0.00     0.001 A 
HETATM   36  C24 UNK     1      31.689  -9.024  38.134  1.00  0.00     0.009 A 
ENDBRANCH  30  31
ENDBRANCH  29  30
ENDBRANCH  27  29
ENDBRANCH  10  27
BRANCH  15  37
HETATM   37  N2  UNK     1      35.140  -5.625  34.523  1.00  0.00    -0.379 N 
HETATM   38  H7  UNK     1      35.960  -6.171  34.751  1.00  0.00     0.158 HD
HETATM   39  H8  UNK     1      35.042  -4.681  34.872  1.00  0.00     0.158 HD
ENDBRANCH  15  37
TORSDOF 5
ENDMDL
MODEL 9
REMARK VINA RESULT:      -8.5      3.269      7.178
REMARK  5 active torsions:
REMARK  status: ('A' for Active; 'I' for Inactive)
REMARK    1  A    between atoms: C13_22  and  O4_5 
REMARK    2  A    between atoms: C21_30  and  O4_5 
REMARK    3  A    between atoms: C9_18  and  N2_9 
REMARK    4  A    between atoms: C13_22  and  C4_13 
REMARK    5  A    between atoms: C21_30  and  C22_31 
ROOT
HETATM    1 Br1  UNK     1      27.658  -9.445  36.120  1.00  0.00    -0.051 Br
HETATM    2  O1  UNK     1      33.220 -10.879  32.243  1.00  0.00    -0.287 OA
HETATM    3  O2  UNK     1      30.864 -11.937  29.682  1.00  0.00    -0.273 OA
HETATM    4  O3  UNK     1      32.614  -7.007  30.734  1.00  0.00    -0.271 OA
HETATM    5  O6  UNK     1      32.733 -12.883  30.557  1.00  0.00    -0.257 OA
HETATM    6  N1  UNK     1      30.889  -6.272  32.155  1.00  0.00    -0.325 N 
HETATM    7  C1  UNK     1      31.566  -8.545  32.381  1.00  0.00     0.138 A 
HETATM    8  C2  UNK     1      30.389  -8.203  33.274  1.00  0.00    -0.003 A 
HETATM    9  C3  UNK     1      31.300  -9.692  31.394  1.00  0.00     0.023 A 
HETATM   10  C4  UNK     1      32.834  -8.755  33.217  1.00  0.00     0.095 A 
HETATM   11  C5  UNK     1      31.792  -7.206  31.616  1.00  0.00     0.245 A 
HETATM   12  C6  UNK     1      30.064  -6.853  33.117  1.00  0.00     0.043 A 
HETATM   13  C7  UNK     1      32.126 -10.761  31.407  1.00  0.00     0.162 A 
HETATM   14  C8  UNK     1      30.173  -9.709  30.421  1.00  0.00     0.009 A 
HETATM   15  C9  UNK     1      33.583  -9.870  33.119  1.00  0.00     0.156 A 
HETATM   16  C10 UNK     1      29.686  -8.994  34.166  1.00  0.00     0.030 A 
HETATM   17  C11 UNK     1      29.045  -6.247  33.823  1.00  0.00     0.031 A 
HETATM   18  C12 UNK     1      29.996 -10.837  29.614  1.00  0.00     0.090 A 
HETATM   19  C14 UNK     1      31.950 -11.937  30.527  1.00  0.00     0.323 A 
HETATM   20  C15 UNK     1      28.648  -8.403  34.891  1.00  0.00     0.011 A 
HETATM   21  C16 UNK     1      29.244  -8.677  30.224  1.00  0.00     0.015 A 
HETATM   22  C17 UNK     1      28.331  -7.042  34.722  1.00  0.00     0.021 A 
HETATM   23  C18 UNK     1      28.962 -10.960  28.677  1.00  0.00     0.038 A 
HETATM   24  C19 UNK     1      28.202  -8.779  29.290  1.00  0.00     0.001 A 
HETATM   25  C20 UNK     1      28.058  -9.922  28.517  1.00  0.00     0.003 A 
HETATM   26  H1  UNK     1      30.814  -5.305  31.864  1.00  0.00     0.169 HD
ENDROOT
BRANCH  10  27
HETATM   27  C13 UNK     1      33.256  -7.703  34.170  1.00  0.00     0.295 C 
HETATM   28  O5  UNK     1      33.719  -6.639  33.817  1.00  0.00    -0.259 OA
BRANCH  27  29
HETATM   29  O4  UNK     1      33.030  -8.157  35.423  1.00  0.00    -0.313 OA
BRANCH  29  30
HETATM   30  C21 UNK     1      33.240  -7.192  36.458  1.00  0.00     0.217 C 
BRANCH  30  31
HETATM   31  C22 UNK     1      31.910  -6.741  36.987  1.00  0.00    -0.034 A 
HETATM   32  C23 UNK     1      31.145  -7.609  37.757  1.00  0.00     0.009 A 
HETATM   33  C25 UNK     1      29.910  -7.188  38.250  1.00  0.00     0.001 A 
HETATM   34  C27 UNK     1      29.447  -5.904  37.968  1.00  0.00     0.000 A 
HETATM   35  C26 UNK     1      30.220  -5.038  37.194  1.00  0.00     0.001 A 
HETATM   36  C24 UNK     1      31.456  -5.458  36.702  1.00  0.00     0.009 A 
ENDBRANCH  30  31
ENDBRANCH  29  30
ENDBRANCH  27  29
ENDBRANCH  10  27
BRANCH  15  37
HETATM   37  N2  UNK     1      34.722 -10.163  33.814  1.00  0.00    -0.379 N 
HETATM   38  H7  UNK     1      35.541  -9.584  33.682  1.00  0.00     0.158 HD
HETATM   39  H8  UNK     1      34.750 -10.950  34.450  1.00  0.00     0.158 HD
ENDBRANCH  15  37
TORSDOF 5
ENDMDL
MODEL 10
REMARK VINA RESULT:      -8.5      3.033      6.889
REMARK  5 active torsions:
REMARK  status: ('A' for Active; 'I' for Inactive)
REMARK    1  A    between atoms: C13_22  and  O4_5 
REMARK    2  A    between atoms: C21_30  and  O4_5 
REMARK    3  A    between atoms: C9_18  and  N2_9 
REMARK    4  A    between atoms: C13_22  and  C4_13 
REMARK    5  A    between atoms: C21_30  and  C22_31 
ROOT
HETATM    1 Br1  UNK     1      32.437  -3.734  36.034  1.00  0.00    -0.051 Br
HETATM    2  O1  UNK     1      28.713  -8.969  33.435  1.00  0.00    -0.287 OA
HETATM    3  O2  UNK     1      29.820  -7.817  30.168  1.00  0.00    -0.273 OA
HETATM    4  O3  UNK     1      32.361 -11.046  33.573  1.00  0.00    -0.271 OA
HETATM    5  O6  UNK     1      27.789  -8.385  31.007  1.00  0.00    -0.257 OA
HETATM    6  N1  UNK     1      33.698  -9.465  34.691  1.00  0.00    -0.325 N 
HETATM    7  C1  UNK     1      31.490  -8.782  34.113  1.00  0.00     0.138 A 
HETATM    8  C2  UNK     1      32.293  -7.660  34.742  1.00  0.00    -0.003 A 
HETATM    9  C3  UNK     1      30.957  -8.467  32.708  1.00  0.00     0.023 A 
HETATM   10  C4  UNK     1      30.398  -9.267  35.074  1.00  0.00     0.095 A 
HETATM   11  C5  UNK     1      32.535  -9.937  34.057  1.00  0.00     0.245 A 
HETATM   12  C6  UNK     1      33.563  -8.134  35.084  1.00  0.00     0.043 A 
HETATM   13  C7  UNK     1      29.629  -8.571  32.480  1.00  0.00     0.162 A 
HETATM   14  C8  UNK     1      31.815  -8.040  31.567  1.00  0.00     0.009 A 
HETATM   15  C9  UNK     1      29.102  -9.340  34.712  1.00  0.00     0.156 A 
HETATM   16  C10 UNK     1      31.935  -6.352  35.018  1.00  0.00     0.030 A 
HETATM   17  C11 UNK     1      34.511  -7.342  35.700  1.00  0.00     0.031 A 
HETATM   18  C12 UNK     1      31.207  -7.721  30.349  1.00  0.00     0.090 A 
HETATM   19  C14 UNK     1      28.998  -8.262  31.178  1.00  0.00     0.323 A 
HETATM   20  C15 UNK     1      32.880  -5.530  35.640  1.00  0.00     0.011 A 
HETATM   21  C16 UNK     1      33.212  -7.922  31.592  1.00  0.00     0.015 A 
HETATM   22  C17 UNK     1      34.155  -6.021  35.978  1.00  0.00     0.021 A 
HETATM   23  C18 UNK     1      31.921  -7.298  29.220  1.00  0.00     0.038 A 
HETATM   24  C19 UNK     1      33.945  -7.501  30.473  1.00  0.00     0.001 A 
HETATM   25  C20 UNK     1      33.300  -7.185  29.286  1.00  0.00     0.003 A 
HETATM   26  H1  UNK     1      34.546 -10.003  34.819  1.00  0.00     0.169 HD
ENDROOT
BRANCH  10  27
HETATM   27  C13 UNK     1      30.769  -9.670  36.449  1.00  0.00     0.295 C 
HETATM   28  O5  UNK     1      31.557 -10.560  36.688  1.00  0.00    -0.259 OA
BRANCH  27  29
HETATM   29  O4  UNK     1      30.087  -8.885  37.314  1.00  0.00    -0.313 OA
BRANCH  29  30
HETATM   30  C21 UNK     1      30.897  -7.976  38.066  1.00  0.00     0.217 C 
BRANCH  30  31
HETATM   31  C22 UNK     1      30.111  -6.727  38.338  1.00  0.00    -0.034 A 
HETATM   32  C23 UNK     1      28.724  -6.757  38.263  1.00  0.00     0.009 A 
HETATM   33  C25 UNK     1      27.993  -5.596  38.518  1.00  0.00     0.001 A 
HETATM   34  C27 UNK     1      28.654  -4.413  38.844  1.00  0.00     0.000 A 
HETATM   35  C26 UNK     1      30.047  -4.390  38.916  1.00  0.00     0.001 A 
HETATM   36  C24 UNK     1      30.778  -5.551  38.662  1.00  0.00     0.009 A 
ENDBRANCH  30  31
ENDBRANCH  29  30
ENDBRANCH  27  29
ENDBRANCH  10  27
BRANCH  15  37
HETATM   37  N2  UNK     1      28.052  -9.750  35.482  1.00  0.00    -0.379 N 
HETATM   38  H7  UNK     1      27.370 -10.383  35.085  1.00  0.00     0.158 HD
HETATM   39  H8  UNK     1      27.953  -9.425  36.435  1.00  0.00     0.158 HD
ENDBRANCH  15  37
TORSDOF 5
ENDMDL
