MODEL 1
REMARK VINA RESULT:      -9.6      0.000      0.000
REMARK  2 active torsions:
REMARK  status: ('A' for Active; 'I' for Inactive)
REMARK    1  A    between atoms: C5_12  and  N1_7 
REMARK       I    between atoms: C6_13  and  N1_7 
REMARK    2  A    between atoms: C2_9  and  C6_13 
ROOT
HETATM    1  O2  UNK     1      17.635   3.079  33.080  1.00  0.00    -0.267 OA
HETATM    2  N1  UNK     1      18.506   4.653  31.560  1.00  0.00    -0.321 N 
HETATM    3  C6  UNK     1      18.213   3.382  32.038  1.00  0.00     0.262 C 
HETATM    4  H3  UNK     1      18.976   4.738  30.662  1.00  0.00     0.169 HD
ENDROOT
BRANCH   3   5
HETATM    5  C2  UNK     1      18.682   2.328  31.132  1.00  0.00     0.108 A 
HETATM    6  C4  UNK     1      19.078   1.186  31.708  1.00  0.00     0.037 A 
HETATM    7  C1  UNK     1      19.560   0.082  30.893  1.00  0.00    -0.001 A 
HETATM    8  C3  UNK     1      19.602   0.235  29.511  1.00  0.00     0.089 A 
HETATM    9  C7  UNK     1      19.984  -1.126  31.451  1.00  0.00     0.014 A 
HETATM   10  O1  UNK     1      19.184   1.438  28.910  1.00  0.00    -0.274 OA
HETATM   11  C9  UNK     1      20.053  -0.784  28.674  1.00  0.00     0.038 A 
HETATM   12  C8  UNK     1      18.718   2.512  29.664  1.00  0.00     0.304 A 
HETATM   13  O3  UNK     1      18.357   3.556  29.133  1.00  0.00    -0.259 OA
HETATM   14  C13 UNK     1      20.474  -1.986  29.240  1.00  0.00     0.003 A 
HETATM   15  C12 UNK     1      20.439  -2.157  30.625  1.00  0.00     0.001 A 
ENDBRANCH   3   5
BRANCH   2  16
HETATM   16  C5  UNK     1      18.203   5.896  32.167  1.00  0.00     0.058 A 
HETATM   17  C10 UNK     1      19.207   6.689  32.698  1.00  0.00     0.062 A 
HETATM   18 Cl1  UNK     1      20.870   6.221  32.652  1.00  0.00    -0.082 Cl
HETATM   19  C15 UNK     1      18.874   7.908  33.291  1.00  0.00     0.051 A 
HETATM   20  C16 UNK     1      17.542   8.316  33.345  1.00  0.00     0.057 A 
HETATM   21  C14 UNK     1      16.541   7.506  32.807  1.00  0.00     0.058 A 
HETATM   22 Cl3  UNK     1      17.193   9.834  34.096  1.00  0.00    -0.082 Cl
HETATM   23  C11 UNK     1      16.874   6.288  32.214  1.00  0.00     0.057 A 
HETATM   24 Cl2  UNK     1      14.873   7.955  32.847  1.00  0.00    -0.082 Cl
ENDBRANCH   2  16
TORSDOF 2
ENDMDL
MODEL 2
REMARK VINA RESULT:      -9.4      1.118      1.995
REMARK  2 active torsions:
REMARK  status: ('A' for Active; 'I' for Inactive)
REMARK    1  A    between atoms: C5_12  and  N1_7 
REMARK       I    between atoms: C6_13  and  N1_7 
REMARK    2  A    between atoms: C2_9  and  C6_13 
ROOT
HETATM    1  O2  UNK     1      18.294   4.657  30.332  1.00  0.00    -0.267 OA
HETATM    2  N1  UNK     1      18.220   4.673  32.686  1.00  0.00    -0.321 N 
HETATM    3  C6  UNK     1      18.375   4.105  31.428  1.00  0.00     0.262 C 
HETATM    4  H3  UNK     1      18.339   4.082  33.504  1.00  0.00     0.169 HD
ENDROOT
BRANCH   3   5
HETATM    5  C2  UNK     1      18.670   2.670  31.501  1.00  0.00     0.108 A 
HETATM    6  C4  UNK     1      19.225   2.124  30.413  1.00  0.00     0.037 A 
HETATM    7  C1  UNK     1      19.554   0.707  30.388  1.00  0.00    -0.001 A 
HETATM    8  C3  UNK     1      19.282  -0.065  31.513  1.00  0.00     0.089 A 
HETATM    9  C7  UNK     1      20.133   0.096  29.274  1.00  0.00     0.014 A 
HETATM   10  O1  UNK     1      18.699   0.514  32.656  1.00  0.00    -0.274 OA
HETATM   11  C9  UNK     1      19.573  -1.427  31.554  1.00  0.00     0.038 A 
HETATM   12  C8  UNK     1      18.373   1.867  32.708  1.00  0.00     0.304 A 
HETATM   13  O3  UNK     1      17.864   2.363  33.707  1.00  0.00    -0.259 OA
HETATM   14  C13 UNK     1      20.150  -2.029  30.438  1.00  0.00     0.003 A 
HETATM   15  C12 UNK     1      20.431  -1.269  29.301  1.00  0.00     0.001 A 
ENDBRANCH   3   5
BRANCH   2  16
HETATM   16  C5  UNK     1      17.932   6.025  32.994  1.00  0.00     0.058 A 
HETATM   17  C10 UNK     1      18.951   6.952  33.138  1.00  0.00     0.062 A 
HETATM   18 Cl1  UNK     1      20.615   6.525  32.951  1.00  0.00    -0.082 Cl
HETATM   19  C15 UNK     1      18.633   8.275  33.444  1.00  0.00     0.051 A 
HETATM   20  C16 UNK     1      17.301   8.655  33.601  1.00  0.00     0.057 A 
HETATM   21  C14 UNK     1      16.285   7.710  33.454  1.00  0.00     0.058 A 
HETATM   22 Cl3  UNK     1      16.971  10.308  33.983  1.00  0.00    -0.082 Cl
HETATM   23  C11 UNK     1      16.602   6.387  33.148  1.00  0.00     0.057 A 
HETATM   24 Cl2  UNK     1      14.615   8.116  33.641  1.00  0.00    -0.082 Cl
ENDBRANCH   2  16
TORSDOF 2
ENDMDL
MODEL 3
REMARK VINA RESULT:      -9.4      8.696     12.069
REMARK  2 active torsions:
REMARK  status: ('A' for Active; 'I' for Inactive)
REMARK    1  A    between atoms: C5_12  and  N1_7 
REMARK       I    between atoms: C6_13  and  N1_7 
REMARK    2  A    between atoms: C2_9  and  C6_13 
ROOT
HETATM    1  O2  UNK     1      21.413  -4.206  37.260  1.00  0.00    -0.267 OA
HETATM    2  N1  UNK     1      19.673  -5.301  36.112  1.00  0.00    -0.321 N 
HETATM    3  C6  UNK     1      20.396  -4.207  36.569  1.00  0.00     0.262 C 
HETATM    4  H3  UNK     1      18.857  -5.134  35.528  1.00  0.00     0.169 HD
ENDROOT
BRANCH   3   5
HETATM    5  C2  UNK     1      19.811  -2.935  36.133  1.00  0.00     0.108 A 
HETATM    6  C4  UNK     1      19.098  -2.267  37.047  1.00  0.00     0.037 A 
HETATM    7  C1  UNK     1      18.478  -0.995  36.709  1.00  0.00    -0.001 A 
HETATM    8  C3  UNK     1      18.640  -0.488  35.424  1.00  0.00     0.089 A 
HETATM    9  C7  UNK     1      17.724  -0.265  37.632  1.00  0.00     0.014 A 
HETATM   10  O1  UNK     1      19.393  -1.195  34.466  1.00  0.00    -0.274 OA
HETATM   11  C9  UNK     1      18.073   0.724  35.037  1.00  0.00     0.038 A 
HETATM   12  C8  UNK     1      19.998  -2.414  34.760  1.00  0.00     0.304 A 
HETATM   13  O3  UNK     1      20.650  -3.022  33.920  1.00  0.00    -0.259 OA
HETATM   14  C13 UNK     1      17.323   1.445  35.963  1.00  0.00     0.003 A 
HETATM   15  C12 UNK     1      17.149   0.953  37.258  1.00  0.00     0.001 A 
ENDBRANCH   3   5
BRANCH   2  16
HETATM   16  C5  UNK     1      19.944  -6.672  36.337  1.00  0.00     0.058 A 
HETATM   17  C10 UNK     1      20.371  -7.490  35.304  1.00  0.00     0.062 A 
HETATM   18 Cl1  UNK     1      20.597  -6.897  33.696  1.00  0.00    -0.082 Cl
HETATM   19  C15 UNK     1      20.628  -8.837  35.558  1.00  0.00     0.051 A 
HETATM   20  C16 UNK     1      20.456  -9.349  36.844  1.00  0.00     0.057 A 
HETATM   21  C14 UNK     1      20.025  -8.514  37.876  1.00  0.00     0.058 A 
HETATM   22 Cl3  UNK     1      20.787 -11.027  37.096  1.00  0.00    -0.082 Cl
HETATM   23  C11 UNK     1      19.768  -7.167  37.621  1.00  0.00     0.057 A 
HETATM   24 Cl2  UNK     1      19.789  -9.089  39.488  1.00  0.00    -0.082 Cl
ENDBRANCH   2  16
TORSDOF 2
ENDMDL
MODEL 4
REMARK VINA RESULT:      -9.0     14.569     16.073
REMARK  2 active torsions:
REMARK  status: ('A' for Active; 'I' for Inactive)
REMARK    1  A    between atoms: C5_12  and  N1_7 
REMARK       I    between atoms: C6_13  and  N1_7 
REMARK    2  A    between atoms: C2_9  and  C6_13 
ROOT
HETATM    1  O2  UNK     1      25.836  -9.116  39.449  1.00  0.00    -0.267 OA
HETATM    2  N1  UNK     1      24.561  -7.736  38.028  1.00  0.00    -0.321 N 
HETATM    3  C6  UNK     1      25.673  -8.098  38.778  1.00  0.00     0.262 C 
HETATM    4  H3  UNK     1      24.589  -6.863  37.508  1.00  0.00     0.169 HD
ENDROOT
BRANCH   3   5
HETATM    5  C2  UNK     1      26.738  -7.091  38.711  1.00  0.00     0.108 A 
HETATM    6  C4  UNK     1      27.985  -7.558  38.580  1.00  0.00     0.037 A 
HETATM    7  C1  UNK     1      29.109  -6.637  38.505  1.00  0.00    -0.001 A 
HETATM    8  C3  UNK     1      28.864  -5.270  38.571  1.00  0.00     0.089 A 
HETATM    9  C7  UNK     1      30.427  -7.080  38.370  1.00  0.00     0.014 A 
HETATM   10  O1  UNK     1      27.549  -4.784  38.707  1.00  0.00    -0.274 OA
HETATM   11  C9  UNK     1      29.895  -4.335  38.504  1.00  0.00     0.038 A 
HETATM   12  C8  UNK     1      26.453  -5.640  38.782  1.00  0.00     0.304 A 
HETATM   13  O3  UNK     1      25.312  -5.209  38.902  1.00  0.00    -0.259 OA
HETATM   14  C13 UNK     1      31.207  -4.786  38.370  1.00  0.00     0.003 A 
HETATM   15  C12 UNK     1      31.472  -6.155  38.302  1.00  0.00     0.001 A 
ENDBRANCH   3   5
BRANCH   2  16
HETATM   16  C5  UNK     1      23.357  -8.462  37.863  1.00  0.00     0.058 A 
HETATM   17  C10 UNK     1      22.329  -8.350  38.785  1.00  0.00     0.062 A 
HETATM   18 Cl1  UNK     1      22.449  -7.331  40.176  1.00  0.00    -0.082 Cl
HETATM   19  C15 UNK     1      21.156  -9.080  38.594  1.00  0.00     0.051 A 
HETATM   20  C16 UNK     1      21.025  -9.912  37.482  1.00  0.00     0.057 A 
HETATM   21  C14 UNK     1      22.069 -10.016  36.562  1.00  0.00     0.058 A 
HETATM   22 Cl3  UNK     1      19.549 -10.794  37.302  1.00  0.00    -0.082 Cl
HETATM   23  C11 UNK     1      23.242  -9.285  36.753  1.00  0.00     0.057 A 
HETATM   24 Cl2  UNK     1      21.970 -11.032  35.168  1.00  0.00    -0.082 Cl
ENDBRANCH   2  16
TORSDOF 2
ENDMDL
MODEL 5
REMARK VINA RESULT:      -8.9      8.296     10.144
REMARK  2 active torsions:
REMARK  status: ('A' for Active; 'I' for Inactive)
REMARK    1  A    between atoms: C5_12  and  N1_7 
REMARK       I    between atoms: C6_13  and  N1_7 
REMARK    2  A    between atoms: C2_9  and  C6_13 
ROOT
HETATM    1  O2  UNK     1      21.394  -3.885  37.242  1.00  0.00    -0.267 OA
HETATM    2  N1  UNK     1      19.258  -3.748  36.260  1.00  0.00    -0.321 N 
HETATM    3  C6  UNK     1      20.364  -4.391  36.801  1.00  0.00     0.262 C 
HETATM    4  H3  UNK     1      18.468  -4.312  35.955  1.00  0.00     0.169 HD
ENDROOT
BRANCH   3   5
HETATM    5  C2  UNK     1      20.206  -5.849  36.812  1.00  0.00     0.108 A 
HETATM    6  C4  UNK     1      20.083  -6.422  38.015  1.00  0.00     0.037 A 
HETATM    7  C1  UNK     1      19.923  -7.863  38.129  1.00  0.00    -0.001 A 
HETATM    8  C3  UNK     1      19.900  -8.631  36.969  1.00  0.00     0.089 A 
HETATM    9  C7  UNK     1      19.791  -8.503  39.364  1.00  0.00     0.014 A 
HETATM   10  O1  UNK     1      20.029  -8.023  35.705  1.00  0.00    -0.274 OA
HETATM   11  C9  UNK     1      19.749 -10.016  37.009  1.00  0.00     0.038 A 
HETATM   12  C8  UNK     1      20.184  -6.646  35.564  1.00  0.00     0.304 A 
HETATM   13  O3  UNK     1      20.297  -6.126  34.461  1.00  0.00    -0.259 OA
HETATM   14  C13 UNK     1      19.619 -10.645  38.245  1.00  0.00     0.003 A 
HETATM   15  C12 UNK     1      19.640  -9.891  39.420  1.00  0.00     0.001 A 
ENDBRANCH   3   5
BRANCH   2  16
HETATM   16  C5  UNK     1      19.063  -2.355  36.094  1.00  0.00     0.058 A 
HETATM   17  C10 UNK     1      19.464  -1.717  34.932  1.00  0.00     0.062 A 
HETATM   18 Cl1  UNK     1      20.215  -2.567  33.628  1.00  0.00    -0.082 Cl
HETATM   19  C15 UNK     1      19.259  -0.343  34.801  1.00  0.00     0.051 A 
HETATM   20  C16 UNK     1      18.656   0.374  35.833  1.00  0.00     0.057 A 
HETATM   21  C14 UNK     1      18.258  -0.282  36.998  1.00  0.00     0.058 A 
HETATM   22 Cl3  UNK     1      18.433   2.074  35.613  1.00  0.00    -0.082 Cl
HETATM   23  C11 UNK     1      18.463  -1.656  37.130  1.00  0.00     0.057 A 
HETATM   24 Cl2  UNK     1      17.509   0.551  38.314  1.00  0.00    -0.082 Cl
ENDBRANCH   2  16
TORSDOF 2
ENDMDL
MODEL 6
REMARK VINA RESULT:      -8.7     15.533     18.898
REMARK  2 active torsions:
REMARK  status: ('A' for Active; 'I' for Inactive)
REMARK    1  A    between atoms: C5_12  and  N1_7 
REMARK       I    between atoms: C6_13  and  N1_7 
REMARK    2  A    between atoms: C2_9  and  C6_13 
ROOT
HETATM    1  O2  UNK     1      17.664  -3.322  15.941  1.00  0.00    -0.267 OA
HETATM    2  N1  UNK     1      19.666  -3.199  14.706  1.00  0.00    -0.321 N 
HETATM    3  C6  UNK     1      18.647  -2.716  15.517  1.00  0.00     0.262 C 
HETATM    4  H3  UNK     1      20.427  -2.571  14.456  1.00  0.00     0.169 HD
ENDROOT
BRANCH   3   5
HETATM    5  C2  UNK     1      18.838  -1.304  15.866  1.00  0.00     0.108 A 
HETATM    6  C4  UNK     1      18.720  -0.994  17.162  1.00  0.00     0.037 A 
HETATM    7  C1  UNK     1      18.891   0.380  17.607  1.00  0.00    -0.001 A 
HETATM    8  C3  UNK     1      19.180   1.361  16.664  1.00  0.00     0.089 A 
HETATM    9  C7  UNK     1      18.776   0.748  18.950  1.00  0.00     0.014 A 
HETATM   10  O1  UNK     1      19.304   1.029  15.301  1.00  0.00    -0.274 OA
HETATM   11  C9  UNK     1      19.356   2.695  17.025  1.00  0.00     0.038 A 
HETATM   12  C8  UNK     1      19.145  -0.277  14.845  1.00  0.00     0.304 A 
HETATM   13  O3  UNK     1      19.254  -0.557  13.657  1.00  0.00    -0.259 OA
HETATM   14  C13 UNK     1      19.239   3.054  18.366  1.00  0.00     0.003 A 
HETATM   15  C12 UNK     1      18.950   2.083  19.327  1.00  0.00     0.001 A 
ENDBRANCH   3   5
BRANCH   2  16
HETATM   16  C5  UNK     1      19.807  -4.506  14.181  1.00  0.00     0.058 A 
HETATM   17  C10 UNK     1      20.729  -5.390  14.718  1.00  0.00     0.062 A 
HETATM   18 Cl1  UNK     1      21.750  -4.960  16.045  1.00  0.00    -0.082 Cl
HETATM   19  C15 UNK     1      20.844  -6.670  14.176  1.00  0.00     0.051 A 
HETATM   20  C16 UNK     1      20.037  -7.050  13.106  1.00  0.00     0.057 A 
HETATM   21  C14 UNK     1      19.113  -6.149  12.574  1.00  0.00     0.058 A 
HETATM   22 Cl3  UNK     1      20.229  -8.648  12.475  1.00  0.00    -0.082 Cl
HETATM   23  C11 UNK     1      18.997  -4.869  13.116  1.00  0.00     0.057 A 
HETATM   24 Cl2  UNK     1      18.087  -6.558  11.245  1.00  0.00    -0.082 Cl
ENDBRANCH   2  16
TORSDOF 2
ENDMDL
MODEL 7
REMARK VINA RESULT:      -8.7      7.821     10.958
REMARK  2 active torsions:
REMARK  status: ('A' for Active; 'I' for Inactive)
REMARK    1  A    between atoms: C5_12  and  N1_7 
REMARK       I    between atoms: C6_13  and  N1_7 
REMARK    2  A    between atoms: C2_9  and  C6_13 
ROOT
HETATM    1  O2  UNK     1      20.475  -2.838  37.198  1.00  0.00    -0.267 OA
HETATM    2  N1  UNK     1      19.701  -4.631  35.880  1.00  0.00    -0.321 N 
HETATM    3  C6  UNK     1      20.024  -3.308  36.154  1.00  0.00     0.262 C 
HETATM    4  H3  UNK     1      19.354  -4.864  34.953  1.00  0.00     0.169 HD
ENDROOT
BRANCH   3   5
HETATM    5  C2  UNK     1      19.769  -2.426  35.010  1.00  0.00     0.108 A 
HETATM    6  C4  UNK     1      20.341  -2.778  33.853  1.00  0.00     0.037 A 
HETATM    7  C1  UNK     1      20.147  -1.967  32.661  1.00  0.00    -0.001 A 
HETATM    8  C3  UNK     1      19.359  -0.824  32.747  1.00  0.00     0.089 A 
HETATM    9  C7  UNK     1      20.726  -2.296  31.433  1.00  0.00     0.014 A 
HETATM   10  O1  UNK     1      18.758  -0.459  33.967  1.00  0.00    -0.274 OA
HETATM   11  C9  UNK     1      19.133  -0.004  31.643  1.00  0.00     0.038 A 
HETATM   12  C8  UNK     1      18.925  -1.215  35.124  1.00  0.00     0.304 A 
HETATM   13  O3  UNK     1      18.399  -0.890  36.182  1.00  0.00    -0.259 OA
HETATM   14  C13 UNK     1      19.715  -0.339  30.423  1.00  0.00     0.003 A 
HETATM   15  C12 UNK     1      20.509  -1.483  30.317  1.00  0.00     0.001 A 
ENDBRANCH   3   5
BRANCH   2  16
HETATM   16  C5  UNK     1      19.818  -5.746  36.744  1.00  0.00     0.058 A 
HETATM   17  C10 UNK     1      18.719  -6.538  37.034  1.00  0.00     0.062 A 
HETATM   18 Cl1  UNK     1      17.156  -6.220  36.367  1.00  0.00    -0.082 Cl
HETATM   19  C15 UNK     1      18.868  -7.629  37.890  1.00  0.00     0.051 A 
HETATM   20  C16 UNK     1      20.115  -7.914  38.446  1.00  0.00     0.057 A 
HETATM   21  C14 UNK     1      21.213  -7.108  38.146  1.00  0.00     0.058 A 
HETATM   22 Cl3  UNK     1      20.235  -9.277  39.503  1.00  0.00    -0.082 Cl
HETATM   23  C11 UNK     1      21.064  -6.017  37.289  1.00  0.00     0.057 A 
HETATM   24 Cl2  UNK     1      22.782  -7.406  38.806  1.00  0.00    -0.082 Cl
ENDBRANCH   2  16
TORSDOF 2
ENDMDL
MODEL 8
REMARK VINA RESULT:      -8.6      2.841      4.175
REMARK  2 active torsions:
REMARK  status: ('A' for Active; 'I' for Inactive)
REMARK    1  A    between atoms: C5_12  and  N1_7 
REMARK       I    between atoms: C6_13  and  N1_7 
REMARK    2  A    between atoms: C2_9  and  C6_13 
ROOT
HETATM    1  O2  UNK     1      18.429   5.065  31.677  1.00  0.00    -0.267 OA
HETATM    2  N1  UNK     1      18.216   5.614  33.957  1.00  0.00    -0.321 N 
HETATM    3  C6  UNK     1      18.312   4.764  32.863  1.00  0.00     0.262 C 
HETATM    4  H3  UNK     1      18.143   5.205  34.886  1.00  0.00     0.169 HD
ENDROOT
BRANCH   3   5
HETATM    5  C2  UNK     1      18.258   3.351  33.253  1.00  0.00     0.108 A 
HETATM    6  C4  UNK     1      18.271   3.099  34.568  1.00  0.00     0.037 A 
HETATM    7  C1  UNK     1      18.222   1.728  35.053  1.00  0.00    -0.001 A 
HETATM    8  C3  UNK     1      18.160   0.690  34.129  1.00  0.00     0.089 A 
HETATM    9  C7  UNK     1      18.234   1.419  36.415  1.00  0.00     0.014 A 
HETATM   10  O1  UNK     1      18.145   0.961  32.747  1.00  0.00    -0.274 OA
HETATM   11  C9  UNK     1      18.110  -0.644  34.528  1.00  0.00     0.038 A 
HETATM   12  C8  UNK     1      18.192   2.262  32.253  1.00  0.00     0.304 A 
HETATM   13  O3  UNK     1      18.180   2.488  31.049  1.00  0.00    -0.259 OA
HETATM   14  C13 UNK     1      18.124  -0.943  35.889  1.00  0.00     0.003 A 
HETATM   15  C12 UNK     1      18.185   0.086  36.830  1.00  0.00     0.001 A 
ENDBRANCH   3   5
BRANCH   2  16
HETATM   16  C5  UNK     1      18.234   7.030  33.956  1.00  0.00     0.058 A 
HETATM   17  C10 UNK     1      17.090   7.753  33.660  1.00  0.00     0.062 A 
HETATM   18 Cl1  UNK     1      15.589   6.985  33.281  1.00  0.00    -0.082 Cl
HETATM   19  C15 UNK     1      17.142   9.147  33.666  1.00  0.00     0.051 A 
HETATM   20  C16 UNK     1      18.336   9.800  33.967  1.00  0.00     0.057 A 
HETATM   21  C14 UNK     1      19.481   9.058  34.263  1.00  0.00     0.058 A 
HETATM   22 Cl3  UNK     1      18.338  11.529  33.954  1.00  0.00    -0.082 Cl
HETATM   23  C11 UNK     1      19.429   7.664  34.257  1.00  0.00     0.057 A 
HETATM   24 Cl2  UNK     1      20.992   9.808  34.640  1.00  0.00    -0.082 Cl
ENDBRANCH   2  16
TORSDOF 2
ENDMDL
MODEL 9
REMARK VINA RESULT:      -8.5      0.974      2.005
REMARK  2 active torsions:
REMARK  status: ('A' for Active; 'I' for Inactive)
REMARK    1  A    between atoms: C5_12  and  N1_7 
REMARK       I    between atoms: C6_13  and  N1_7 
REMARK    2  A    between atoms: C2_9  and  C6_13 
ROOT
HETATM    1  O2  UNK     1      17.604   3.563  33.069  1.00  0.00    -0.267 OA
HETATM    2  N1  UNK     1      18.620   5.105  31.607  1.00  0.00    -0.321 N 
HETATM    3  C6  UNK     1      18.225   3.848  32.045  1.00  0.00     0.262 C 
HETATM    4  H3  UNK     1      19.113   5.177  30.720  1.00  0.00     0.169 HD
ENDROOT
BRANCH   3   5
HETATM    5  C2  UNK     1      18.634   2.784  31.122  1.00  0.00     0.108 A 
HETATM    6  C4  UNK     1      19.003   1.625  31.680  1.00  0.00     0.037 A 
HETATM    7  C1  UNK     1      19.426   0.511  30.847  1.00  0.00    -0.001 A 
HETATM    8  C3  UNK     1      19.439   0.672  29.465  1.00  0.00     0.089 A 
HETATM    9  C7  UNK     1      19.820  -0.716  31.387  1.00  0.00     0.014 A 
HETATM   10  O1  UNK     1      19.049   1.893  28.883  1.00  0.00    -0.274 OA
HETATM   11  C9  UNK     1      19.833  -0.357  28.611  1.00  0.00     0.038 A 
HETATM   12  C8  UNK     1      18.640   2.977  29.654  1.00  0.00     0.304 A 
HETATM   13  O3  UNK     1      18.302   4.037  29.139  1.00  0.00    -0.259 OA
HETATM   14  C13 UNK     1      20.225  -1.576  29.158  1.00  0.00     0.003 A 
HETATM   15  C12 UNK     1      20.218  -1.756  30.543  1.00  0.00     0.001 A 
ENDBRANCH   3   5
BRANCH   2  16
HETATM   16  C5  UNK     1      18.396   6.351  32.240  1.00  0.00     0.058 A 
HETATM   17  C10 UNK     1      17.146   6.947  32.211  1.00  0.00     0.062 A 
HETATM   18 Cl1  UNK     1      15.798   6.217  31.414  1.00  0.00    -0.082 Cl
HETATM   19  C15 UNK     1      16.960   8.177  32.843  1.00  0.00     0.051 A 
HETATM   20  C16 UNK     1      18.026   8.794  33.497  1.00  0.00     0.057 A 
HETATM   21  C14 UNK     1      19.280   8.182  33.517  1.00  0.00     0.058 A 
HETATM   22 Cl3  UNK     1      17.734  10.318  34.258  1.00  0.00    -0.082 Cl
HETATM   23  C11 UNK     1      19.467   6.953  32.884  1.00  0.00     0.057 A 
HETATM   24 Cl2  UNK     1      20.642   8.898  34.305  1.00  0.00    -0.082 Cl
ENDBRANCH   2  16
TORSDOF 2
ENDMDL
MODEL 10
REMARK VINA RESULT:      -8.4      2.853      3.859
REMARK  2 active torsions:
REMARK  status: ('A' for Active; 'I' for Inactive)
REMARK    1  A    between atoms: C5_12  and  N1_7 
REMARK       I    between atoms: C6_13  and  N1_7 
REMARK    2  A    between atoms: C2_9  and  C6_13 
ROOT
HETATM    1  O2  UNK     1      17.650   4.360  32.063  1.00  0.00    -0.267 OA
HETATM    2  N1  UNK     1      18.398   5.018  34.198  1.00  0.00    -0.321 N 
HETATM    3  C6  UNK     1      18.038   4.116  33.205  1.00  0.00     0.262 C 
HETATM    4  H3  UNK     1      18.720   4.654  35.091  1.00  0.00     0.169 HD
ENDROOT
BRANCH   3   5
HETATM    5  C2  UNK     1      18.164   2.723  33.649  1.00  0.00     0.108 A 
HETATM    6  C4  UNK     1      18.015   2.505  34.961  1.00  0.00     0.037 A 
HETATM    7  C1  UNK     1      18.123   1.157  35.497  1.00  0.00    -0.001 A 
HETATM    8  C3  UNK     1      18.383   0.105  34.625  1.00  0.00     0.089 A 
HETATM    9  C7  UNK     1      17.976   0.883  36.859  1.00  0.00     0.014 A 
HETATM   10  O1  UNK     1      18.537   0.340  33.245  1.00  0.00    -0.274 OA
HETATM   11  C9  UNK     1      18.497  -1.209  35.074  1.00  0.00     0.038 A 
HETATM   12  C8  UNK     1      18.440   1.619  32.702  1.00  0.00     0.304 A 
HETATM   13  O3  UNK     1      18.577   1.815  31.500  1.00  0.00    -0.259 OA
HETATM   14  C13 UNK     1      18.349  -1.473  36.434  1.00  0.00     0.003 A 
HETATM   15  C12 UNK     1      18.088  -0.430  37.325  1.00  0.00     0.001 A 
ENDBRANCH   3   5
BRANCH   2  16
HETATM   16  C5  UNK     1      18.400   6.431  34.121  1.00  0.00     0.058 A 
HETATM   17  C10 UNK     1      19.511   7.114  33.654  1.00  0.00     0.062 A 
HETATM   18 Cl1  UNK     1      20.944   6.297  33.139  1.00  0.00    -0.082 Cl
HETATM   19  C15 UNK     1      19.481   8.508  33.593  1.00  0.00     0.051 A 
HETATM   20  C16 UNK     1      18.341   9.200  34.000  1.00  0.00     0.057 A 
HETATM   21  C14 UNK     1      17.230   8.499  34.470  1.00  0.00     0.058 A 
HETATM   22 Cl3  UNK     1      18.367  10.926  33.905  1.00  0.00    -0.082 Cl
HETATM   23  C11 UNK     1      17.259   7.106  34.530  1.00  0.00     0.057 A 
HETATM   24 Cl2  UNK     1      15.790   9.299  34.993  1.00  0.00    -0.082 Cl
ENDBRANCH   2  16
TORSDOF 2
ENDMDL
