MODEL 1
REMARK VINA RESULT:      -6.7      0.000      0.000
REMARK  2 active torsions:
REMARK  status: ('A' for Active; 'I' for Inactive)
REMARK    1  A    between atoms: C2_6  and  O1_2 
REMARK    2  A    between atoms: C7_11  and  O1_2 
ROOT
HETATM    1  F1  UNK     1      20.766  -0.923  28.198  1.00  0.00    -0.206 F 
HETATM    2  O2  UNK     1      18.655   0.283  33.144  1.00  0.00    -0.275 OA
HETATM    3  O3  UNK     1      17.765   1.780  34.628  1.00  0.00    -0.260 OA
HETATM    4  C1  UNK     1      19.233   1.022  30.884  1.00  0.00     0.034 A 
HETATM    5  C2  UNK     1      18.725   2.350  31.241  1.00  0.00     0.087 A 
HETATM    6  C3  UNK     1      19.174   0.021  31.857  1.00  0.00     0.092 A 
HETATM    7  C4  UNK     1      19.785   0.681  29.642  1.00  0.00     0.059 A 
HETATM    8  C5  UNK     1      19.628  -1.279  31.625  1.00  0.00     0.041 A 
HETATM    9  C6  UNK     1      18.251   2.584  32.468  1.00  0.00     0.120 A 
HETATM   10  C8  UNK     1      20.245  -0.620  29.394  1.00  0.00     0.117 A 
HETATM   11  C9  UNK     1      20.163  -1.598  30.383  1.00  0.00     0.045 A 
HETATM   12  C10 UNK     1      18.199   1.542  33.506  1.00  0.00     0.290 A 
ENDROOT
BRANCH   5  13
HETATM   13  O1  UNK     1      18.727   3.368  30.307  1.00  0.00    -0.350 OA
BRANCH  13  14
HETATM   14  C7  UNK     1      18.797   4.630  30.942  1.00  0.00     0.171 C 
HETATM   15  C11 UNK     1      19.529   5.597  30.037  1.00  0.00     0.034 C 
ENDBRANCH  13  14
ENDBRANCH   5  13
TORSDOF 2
ENDMDL
MODEL 2
REMARK VINA RESULT:      -6.7      1.766      3.457
REMARK  2 active torsions:
REMARK  status: ('A' for Active; 'I' for Inactive)
REMARK    1  A    between atoms: C2_6  and  O1_2 
REMARK    2  A    between atoms: C7_11  and  O1_2 
ROOT
HETATM    1  F1  UNK     1      20.892  -3.124  31.612  1.00  0.00    -0.206 F 
HETATM    2  O2  UNK     1      19.272   1.329  28.800  1.00  0.00    -0.275 OA
HETATM    3  O3  UNK     1      18.195   3.346  28.693  1.00  0.00    -0.260 OA
HETATM    4  C1  UNK     1      19.400   0.141  30.935  1.00  0.00     0.034 A 
HETATM    5  C2  UNK     1      18.683   1.263  31.547  1.00  0.00     0.087 A 
HETATM    6  C3  UNK     1      19.678   0.217  29.567  1.00  0.00     0.092 A 
HETATM    7  C4  UNK     1      19.819  -1.011  31.614  1.00  0.00     0.059 A 
HETATM    8  C5  UNK     1      20.356  -0.794  28.882  1.00  0.00     0.041 A 
HETATM    9  C6  UNK     1      18.294   2.303  30.802  1.00  0.00     0.120 A 
HETATM   10  C8  UNK     1      20.500  -2.034  30.941  1.00  0.00     0.117 A 
HETATM   11  C9  UNK     1      20.770  -1.924  29.578  1.00  0.00     0.045 A 
HETATM   12  C10 UNK     1      18.568   2.385  29.359  1.00  0.00     0.290 A 
ENDROOT
BRANCH   5  13
HETATM   13  O1  UNK     1      18.411   1.258  32.901  1.00  0.00    -0.350 OA
BRANCH  13  14
HETATM   14  C7  UNK     1      18.172   2.570  33.369  1.00  0.00     0.171 C 
HETATM   15  C11 UNK     1      18.388   2.606  34.867  1.00  0.00     0.034 C 
ENDBRANCH  13  14
ENDBRANCH   5  13
TORSDOF 2
ENDMDL
MODEL 3
REMARK VINA RESULT:      -6.7      1.584      3.679
REMARK  2 active torsions:
REMARK  status: ('A' for Active; 'I' for Inactive)
REMARK    1  A    between atoms: C2_6  and  O1_2 
REMARK    2  A    between atoms: C7_11  and  O1_2 
ROOT
HETATM    1  F1  UNK     1      20.907  -3.111  30.383  1.00  0.00    -0.206 F 
HETATM    2  O2  UNK     1      18.876   2.012  30.421  1.00  0.00    -0.275 OA
HETATM    3  O3  UNK     1      17.812   3.735  31.487  1.00  0.00    -0.260 OA
HETATM    4  C1  UNK     1      19.347  -0.056  31.641  1.00  0.00     0.034 A 
HETATM    5  C2  UNK     1      18.750   0.566  32.827  1.00  0.00     0.087 A 
HETATM    6  C3  UNK     1      19.395   0.701  30.466  1.00  0.00     0.092 A 
HETATM    7  C4  UNK     1      19.864  -1.357  31.590  1.00  0.00     0.059 A 
HETATM    8  C5  UNK     1      19.943   0.209  29.279  1.00  0.00     0.041 A 
HETATM    9  C6  UNK     1      18.251   1.804  32.761  1.00  0.00     0.120 A 
HETATM   10  C8  UNK     1      20.416  -1.865  30.406  1.00  0.00     0.117 A 
HETATM   11  C9  UNK     1      20.458  -1.082  29.254  1.00  0.00     0.045 A 
HETATM   12  C10 UNK     1      18.282   2.603  31.526  1.00  0.00     0.290 A 
ENDROOT
BRANCH   5  13
HETATM   13  O1  UNK     1      18.707  -0.122  34.023  1.00  0.00    -0.350 OA
BRANCH  13  14
HETATM   14  C7  UNK     1      17.643   0.343  34.830  1.00  0.00     0.171 C 
HETATM   15  C11 UNK     1      16.595  -0.744  34.939  1.00  0.00     0.034 C 
ENDBRANCH  13  14
ENDBRANCH   5  13
TORSDOF 2
ENDMDL
MODEL 4
REMARK VINA RESULT:      -6.6      9.142     11.155
REMARK  2 active torsions:
REMARK  status: ('A' for Active; 'I' for Inactive)
REMARK    1  A    between atoms: C2_6  and  O1_2 
REMARK    2  A    between atoms: C7_11  and  O1_2 
ROOT
HETATM    1  F1  UNK     1      19.733 -10.154  39.595  1.00  0.00    -0.206 F 
HETATM    2  O2  UNK     1      21.072  -8.700  34.450  1.00  0.00    -0.275 OA
HETATM    3  O3  UNK     1      21.030  -7.204  32.719  1.00  0.00    -0.260 OA
HETATM    4  C1  UNK     1      20.033  -8.105  36.585  1.00  0.00     0.034 A 
HETATM    5  C2  UNK     1      19.705  -6.799  36.006  1.00  0.00     0.087 A 
HETATM    6  C3  UNK     1      20.719  -9.019  35.779  1.00  0.00     0.092 A 
HETATM    7  C4  UNK     1      19.701  -8.514  37.883  1.00  0.00     0.059 A 
HETATM    8  C5  UNK     1      21.082 -10.290  36.228  1.00  0.00     0.041 A 
HETATM    9  C6  UNK     1      20.035  -6.519  34.741  1.00  0.00     0.120 A 
HETATM   10  C8  UNK     1      20.059  -9.787  38.348  1.00  0.00     0.117 A 
HETATM   11  C9  UNK     1      20.751 -10.671  37.524  1.00  0.00     0.045 A 
HETATM   12  C10 UNK     1      20.743  -7.480  33.879  1.00  0.00     0.290 A 
ENDROOT
BRANCH   5  13
HETATM   13  O1  UNK     1      19.059  -5.845  36.766  1.00  0.00    -0.350 OA
BRANCH  13  14
HETATM   14  C7  UNK     1      19.729  -4.602  36.685  1.00  0.00     0.171 C 
HETATM   15  C11 UNK     1      20.885  -4.600  37.663  1.00  0.00     0.034 C 
ENDBRANCH  13  14
ENDBRANCH   5  13
TORSDOF 2
ENDMDL
MODEL 5
REMARK VINA RESULT:      -6.5      2.412      4.064
REMARK  2 active torsions:
REMARK  status: ('A' for Active; 'I' for Inactive)
REMARK    1  A    between atoms: C2_6  and  O1_2 
REMARK    2  A    between atoms: C7_11  and  O1_2 
ROOT
HETATM    1  F1  UNK     1      18.930   1.833  28.680  1.00  0.00    -0.206 F 
HETATM    2  O2  UNK     1      20.617  -2.210  32.023  1.00  0.00    -0.275 OA
HETATM    3  O3  UNK     1      20.637  -3.238  34.068  1.00  0.00    -0.260 OA
HETATM    4  C1  UNK     1      19.230  -0.223  31.685  1.00  0.00     0.034 A 
HETATM    5  C2  UNK     1      18.771  -0.368  33.070  1.00  0.00     0.087 A 
HETATM    6  C3  UNK     1      20.143  -1.164  31.203  1.00  0.00     0.092 A 
HETATM    7  C4  UNK     1      18.832   0.796  30.809  1.00  0.00     0.059 A 
HETATM    8  C5  UNK     1      20.646  -1.123  29.900  1.00  0.00     0.041 A 
HETATM    9  C6  UNK     1      19.241  -1.356  33.837  1.00  0.00     0.120 A 
HETATM   10  C8  UNK     1      19.328   0.851  29.500  1.00  0.00     0.117 A 
HETATM   11  C9  UNK     1      20.230  -0.109  29.045  1.00  0.00     0.045 A 
HETATM   12  C10 UNK     1      20.214  -2.343  33.344  1.00  0.00     0.290 A 
ENDROOT
BRANCH   5  13
HETATM   13  O1  UNK     1      17.843   0.513  33.589  1.00  0.00    -0.350 OA
BRANCH  13  14
HETATM   14  C7  UNK     1      17.520   0.173  34.922  1.00  0.00     0.171 C 
HETATM   15  C11 UNK     1      16.014   0.099  35.062  1.00  0.00     0.034 C 
ENDBRANCH  13  14
ENDBRANCH   5  13
TORSDOF 2
ENDMDL
MODEL 6
REMARK VINA RESULT:      -6.3     11.798     13.941
REMARK  2 active torsions:
REMARK  status: ('A' for Active; 'I' for Inactive)
REMARK    1  A    between atoms: C2_6  and  O1_2 
REMARK    2  A    between atoms: C7_11  and  O1_2 
ROOT
HETATM    1  F1  UNK     1      19.407  -0.361  22.178  1.00  0.00    -0.206 F 
HETATM    2  O2  UNK     1      19.447   2.773  17.645  1.00  0.00    -0.275 OA
HETATM    3  O3  UNK     1      19.336   3.003  15.370  1.00  0.00    -0.260 OA
HETATM    4  C1  UNK     1      19.200   0.555  18.647  1.00  0.00     0.034 A 
HETATM    5  C2  UNK     1      18.999   0.020  17.297  1.00  0.00     0.087 A 
HETATM    6  C3  UNK     1      19.414   1.930  18.776  1.00  0.00     0.092 A 
HETATM    7  C4  UNK     1      19.207  -0.211  19.820  1.00  0.00     0.059 A 
HETATM    8  C5  UNK     1      19.616   2.545  20.014  1.00  0.00     0.041 A 
HETATM    9  C6  UNK     1      19.048   0.832  16.236  1.00  0.00     0.120 A 
HETATM   10  C8  UNK     1      19.408   0.392  21.070  1.00  0.00     0.117 A 
HETATM   11  C9  UNK     1      19.609   1.767  21.166  1.00  0.00     0.045 A 
HETATM   12  C10 UNK     1      19.288   2.279  16.359  1.00  0.00     0.290 A 
ENDROOT
BRANCH   5  13
HETATM   13  O1  UNK     1      18.750  -1.325  17.113  1.00  0.00    -0.350 OA
BRANCH  13  14
HETATM   14  C7  UNK     1      18.837  -1.668  15.744  1.00  0.00     0.171 C 
HETATM   15  C11 UNK     1      17.931  -2.850  15.473  1.00  0.00     0.034 C 
ENDBRANCH  13  14
ENDBRANCH   5  13
TORSDOF 2
ENDMDL
MODEL 7
REMARK VINA RESULT:      -6.3      5.388      8.041
REMARK  2 active torsions:
REMARK  status: ('A' for Active; 'I' for Inactive)
REMARK    1  A    between atoms: C2_6  and  O1_2 
REMARK    2  A    between atoms: C7_11  and  O1_2 
ROOT
HETATM    1  F1  UNK     1      21.237   9.570  34.704  1.00  0.00    -0.206 F 
HETATM    2  O2  UNK     1      16.149   8.443  32.912  1.00  0.00    -0.275 OA
HETATM    3  O3  UNK     1      14.644   7.034  31.917  1.00  0.00    -0.260 OA
HETATM    4  C1  UNK     1      18.449   7.691  33.275  1.00  0.00     0.034 A 
HETATM    5  C2  UNK     1      18.067   6.400  32.695  1.00  0.00     0.087 A 
HETATM    6  C3  UNK     1      17.463   8.677  33.370  1.00  0.00     0.092 A 
HETATM    7  C4  UNK     1      19.733   8.018  33.731  1.00  0.00     0.059 A 
HETATM    8  C5  UNK     1      17.716   9.942  33.906  1.00  0.00     0.041 A 
HETATM    9  C6  UNK     1      16.821   6.201  32.254  1.00  0.00     0.120 A 
HETATM   10  C8  UNK     1      20.002   9.282  34.271  1.00  0.00     0.117 A 
HETATM   11  C9  UNK     1      18.995  10.241  34.361  1.00  0.00     0.045 A 
HETATM   12  C10 UNK     1      15.780   7.237  32.334  1.00  0.00     0.290 A 
ENDROOT
BRANCH   5  13
HETATM   13  O1  UNK     1      18.991   5.378  32.607  1.00  0.00    -0.350 OA
BRANCH  13  14
HETATM   14  C7  UNK     1      19.083   4.898  31.281  1.00  0.00     0.171 C 
HETATM   15  C11 UNK     1      20.086   5.739  30.521  1.00  0.00     0.034 C 
ENDBRANCH  13  14
ENDBRANCH   5  13
TORSDOF 2
ENDMDL
MODEL 8
REMARK VINA RESULT:      -6.3     13.378     15.264
REMARK  2 active torsions:
REMARK  status: ('A' for Active; 'I' for Inactive)
REMARK    1  A    between atoms: C2_6  and  O1_2 
REMARK    2  A    between atoms: C7_11  and  O1_2 
ROOT
HETATM    1  F1  UNK     1      33.002  -7.026  38.100  1.00  0.00    -0.206 F 
HETATM    2  O2  UNK     1      27.995  -4.831  38.798  1.00  0.00    -0.275 OA
HETATM    3  O3  UNK     1      25.715  -5.024  38.849  1.00  0.00    -0.260 OA
HETATM    4  C1  UNK     1      29.366  -6.816  38.387  1.00  0.00     0.034 A 
HETATM    5  C2  UNK     1      28.128  -7.600  38.333  1.00  0.00     0.087 A 
HETATM    6  C3  UNK     1      29.255  -5.444  38.627  1.00  0.00     0.092 A 
HETATM    7  C4  UNK     1      30.654  -7.336  38.205  1.00  0.00     0.059 A 
HETATM    8  C5  UNK     1      30.368  -4.602  38.700  1.00  0.00     0.041 A 
HETATM    9  C6  UNK     1      26.942  -7.001  38.484  1.00  0.00     0.120 A 
HETATM   10  C8  UNK     1      31.780  -6.505  38.274  1.00  0.00     0.117 A 
HETATM   11  C9  UNK     1      31.637  -5.142  38.525  1.00  0.00     0.045 A 
HETATM   12  C10 UNK     1      26.814  -5.554  38.721  1.00  0.00     0.290 A 
ENDROOT
BRANCH   5  13
HETATM   13  O1  UNK     1      28.179  -8.965  38.133  1.00  0.00    -0.350 OA
BRANCH  13  14
HETATM   14  C7  UNK     1      27.187  -9.621  38.899  1.00  0.00     0.171 C 
HETATM   15  C11 UNK     1      27.799 -10.087  40.202  1.00  0.00     0.034 C 
ENDBRANCH  13  14
ENDBRANCH   5  13
TORSDOF 2
ENDMDL
MODEL 9
REMARK VINA RESULT:      -6.3      5.603      7.921
REMARK  2 active torsions:
REMARK  status: ('A' for Active; 'I' for Inactive)
REMARK    1  A    between atoms: C2_6  and  O1_2 
REMARK    2  A    between atoms: C7_11  and  O1_2 
ROOT
HETATM    1  F1  UNK     1      14.098   6.878  31.690  1.00  0.00    -0.206 F 
HETATM    2  O2  UNK     1      18.393   9.386  34.062  1.00  0.00    -0.275 OA
HETATM    3  O3  UNK     1      20.588   9.410  34.710  1.00  0.00    -0.260 OA
HETATM    4  C1  UNK     1      17.516   7.455  32.842  1.00  0.00     0.034 A 
HETATM    5  C2  UNK     1      18.861   6.873  32.894  1.00  0.00     0.087 A 
HETATM    6  C3  UNK     1      17.329   8.709  33.430  1.00  0.00     0.092 A 
HETATM    7  C4  UNK     1      16.399   6.844  32.257  1.00  0.00     0.059 A 
HETATM    8  C5  UNK     1      16.091   9.356  33.437  1.00  0.00     0.041 A 
HETATM    9  C6  UNK     1      19.854   7.522  33.509  1.00  0.00     0.120 A 
HETATM   10  C8  UNK     1      15.151   7.481  32.257  1.00  0.00     0.117 A 
HETATM   11  C9  UNK     1      14.998   8.736  32.843  1.00  0.00     0.045 A 
HETATM   12  C10 UNK     1      19.664   8.835  34.145  1.00  0.00     0.290 A 
ENDROOT
BRANCH   5  13
HETATM   13  O1  UNK     1      19.112   5.652  32.300  1.00  0.00    -0.350 OA
BRANCH  13  14
HETATM   14  C7  UNK     1      20.161   5.759  31.357  1.00  0.00     0.171 C 
HETATM   15  C11 UNK     1      19.566   5.921  29.975  1.00  0.00     0.034 C 
ENDBRANCH  13  14
ENDBRANCH   5  13
TORSDOF 2
ENDMDL
MODEL 10
REMARK VINA RESULT:      -6.2      6.081      7.718
REMARK  2 active torsions:
REMARK  status: ('A' for Active; 'I' for Inactive)
REMARK    1  A    between atoms: C2_6  and  O1_2 
REMARK    2  A    between atoms: C7_11  and  O1_2 
ROOT
HETATM    1  F1  UNK     1      20.870   7.430  33.393  1.00  0.00    -0.206 F 
HETATM    2  O2  UNK     1      15.644   6.586  31.859  1.00  0.00    -0.275 OA
HETATM    3  O3  UNK     1      13.397   6.916  32.144  1.00  0.00    -0.260 OA
HETATM    4  C1  UNK     1      17.227   7.705  33.352  1.00  0.00     0.034 A 
HETATM    5  C2  UNK     1      16.082   8.338  34.013  1.00  0.00     0.087 A 
HETATM    6  C3  UNK     1      16.965   6.846  32.281  1.00  0.00     0.092 A 
HETATM    7  C4  UNK     1      18.567   7.887  33.719  1.00  0.00     0.059 A 
HETATM    8  C5  UNK     1      17.980   6.192  31.579  1.00  0.00     0.041 A 
HETATM    9  C6  UNK     1      14.836   8.069  33.609  1.00  0.00     0.120 A 
HETATM   10  C8  UNK     1      19.596   7.238  33.025  1.00  0.00     0.117 A 
HETATM   11  C9  UNK     1      19.303   6.394  31.955  1.00  0.00     0.045 A 
HETATM   12  C10 UNK     1      14.549   7.153  32.493  1.00  0.00     0.290 A 
ENDROOT
BRANCH   5  13
HETATM   13  O1  UNK     1      16.283   9.222  35.055  1.00  0.00    -0.350 OA
BRANCH  13  14
HETATM   14  C7  UNK     1      15.829  10.516  34.707  1.00  0.00     0.171 C 
HETATM   15  C11 UNK     1      17.014  11.354  34.278  1.00  0.00     0.034 C 
ENDBRANCH  13  14
ENDBRANCH   5  13
TORSDOF 2
ENDMDL
