MODEL 1
REMARK VINA RESULT:      -8.0      0.000      0.000
REMARK  3 active torsions:
REMARK  status: ('A' for Active; 'I' for Inactive)
REMARK    1  A    between atoms: C7_11  and  O2_2 
REMARK    2  A    between atoms: C8_12  and  O3_3 
REMARK    3  A    between atoms: C10_14  and  C3_7 
ROOT
HETATM    1  O1  UNK     1      20.494  -1.806  17.664  1.00  0.00    -0.309 OA
HETATM    2  O4  UNK     1      17.764  -2.939  14.859  1.00  0.00    -0.287 OA
HETATM    3  C1  UNK     1      19.844  -3.348  15.903  1.00  0.00     0.051 A 
HETATM    4  C2  UNK     1      20.736  -2.905  16.878  1.00  0.00     0.093 A 
HETATM    5  C3  UNK     1      19.307  -1.113  17.483  1.00  0.00     0.090 A 
HETATM    6  C4  UNK     1      20.144  -4.473  15.131  1.00  0.00     0.058 A 
HETATM    7  C5  UNK     1      18.589  -2.609  15.700  1.00  0.00     0.187 A 
HETATM    8  C6  UNK     1      21.935  -3.587  17.088  1.00  0.00     0.077 A 
HETATM    9  C7  UNK     1      21.343  -5.153  15.344  1.00  0.00     0.102 A 
HETATM   10  C8  UNK     1      22.237  -4.712  16.320  1.00  0.00     0.104 A 
HETATM   11  C9  UNK     1      18.374  -1.436  16.572  1.00  0.00     0.093 A 
ENDROOT
BRANCH   5  12
HETATM   12  C10 UNK     1      19.151   0.053  18.375  1.00  0.00    -0.002 A 
HETATM   13  C11 UNK     1      19.126  -0.122  19.761  1.00  0.00     0.014 A 
HETATM   14  C13 UNK     1      18.980   0.980  20.604  1.00  0.00     0.001 A 
HETATM   15  C15 UNK     1      18.857   2.260  20.063  1.00  0.00     0.000 A 
HETATM   16  C14 UNK     1      18.882   2.438  18.680  1.00  0.00     0.001 A 
HETATM   17  C12 UNK     1      19.028   1.337  17.837  1.00  0.00     0.014 A 
ENDBRANCH   5  12
BRANCH  10  18
HETATM   18  O3  UNK     1      23.411  -5.370  16.533  1.00  0.00    -0.353 OA
HETATM   19  C17 UNK     1      24.415  -4.681  17.275  1.00  0.00     0.210 C 
ENDBRANCH  10  18
BRANCH   9  20
HETATM   20  O2  UNK     1      21.632  -6.251  14.590  1.00  0.00    -0.353 OA
HETATM   21  C16 UNK     1      20.594  -6.750  13.749  1.00  0.00     0.210 C 
ENDBRANCH   9  20
TORSDOF 3
ENDMDL
MODEL 2
REMARK VINA RESULT:      -7.7     14.190     17.479
REMARK  3 active torsions:
REMARK  status: ('A' for Active; 'I' for Inactive)
REMARK    1  A    between atoms: C7_11  and  O2_2 
REMARK    2  A    between atoms: C8_12  and  O3_3 
REMARK    3  A    between atoms: C10_14  and  C3_7 
ROOT
HETATM    1  O1  UNK     1      18.836  -0.189  33.206  1.00  0.00    -0.309 OA
HETATM    2  O4  UNK     1      21.328  -3.367  32.666  1.00  0.00    -0.287 OA
HETATM    3  C1  UNK     1      19.965  -2.124  34.143  1.00  0.00     0.051 A 
HETATM    4  C2  UNK     1      19.124  -1.019  34.260  1.00  0.00     0.093 A 
HETATM    5  C3  UNK     1      19.402  -0.467  31.972  1.00  0.00     0.090 A 
HETATM    6  C4  UNK     1      20.223  -2.935  35.251  1.00  0.00     0.058 A 
HETATM    7  C5  UNK     1      20.576  -2.417  32.838  1.00  0.00     0.187 A 
HETATM    8  C6  UNK     1      18.533  -0.718  35.487  1.00  0.00     0.077 A 
HETATM    9  C7  UNK     1      19.631  -2.632  36.478  1.00  0.00     0.102 A 
HETATM   10  C8  UNK     1      18.788  -1.527  36.596  1.00  0.00     0.104 A 
HETATM   11  C9  UNK     1      20.233  -1.496  31.736  1.00  0.00     0.093 A 
ENDROOT
BRANCH   5  12
HETATM   12  C10 UNK     1      19.031   0.491  30.911  1.00  0.00    -0.002 A 
HETATM   13  C11 UNK     1      19.091   0.110  29.569  1.00  0.00     0.014 A 
HETATM   14  C13 UNK     1      18.740   1.015  28.566  1.00  0.00     0.001 A 
HETATM   15  C15 UNK     1      18.328   2.305  28.905  1.00  0.00     0.000 A 
HETATM   16  C14 UNK     1      18.267   2.688  30.244  1.00  0.00     0.001 A 
HETATM   17  C12 UNK     1      18.618   1.784  31.246  1.00  0.00     0.014 A 
ENDBRANCH   5  12
BRANCH  10  18
HETATM   18  O3  UNK     1      18.206  -1.224  37.791  1.00  0.00    -0.353 OA
HETATM   19  C17 UNK     1      17.688   0.096  37.943  1.00  0.00     0.210 C 
ENDBRANCH  10  18
BRANCH   9  20
HETATM   20  O2  UNK     1      19.884  -3.425  37.556  1.00  0.00    -0.353 OA
HETATM   21  C16 UNK     1      20.655  -4.603  37.328  1.00  0.00     0.210 C 
ENDBRANCH   9  20
TORSDOF 3
ENDMDL
MODEL 3
REMARK VINA RESULT:      -7.5     15.431     17.874
REMARK  3 active torsions:
REMARK  status: ('A' for Active; 'I' for Inactive)
REMARK    1  A    between atoms: C7_11  and  O2_2 
REMARK    2  A    between atoms: C8_12  and  O3_3 
REMARK    3  A    between atoms: C10_14  and  C3_7 
ROOT
HETATM    1  O1  UNK     1      18.182   2.847  33.710  1.00  0.00    -0.309 OA
HETATM    2  O4  UNK     1      18.985  -0.400  31.383  1.00  0.00    -0.287 OA
HETATM    3  C1  UNK     1      18.525   0.449  33.540  1.00  0.00     0.051 A 
HETATM    4  C2  UNK     1      18.256   1.600  34.278  1.00  0.00     0.093 A 
HETATM    5  C3  UNK     1      18.374   2.962  32.342  1.00  0.00     0.090 A 
HETATM    6  C4  UNK     1      18.589  -0.795  34.173  1.00  0.00     0.058 A 
HETATM    7  C5  UNK     1      18.740   0.568  32.090  1.00  0.00     0.187 A 
HETATM    8  C6  UNK     1      18.050   1.515  35.655  1.00  0.00     0.077 A 
HETATM    9  C7  UNK     1      18.383  -0.878  35.550  1.00  0.00     0.102 A 
HETATM   10  C8  UNK     1      18.113   0.274  36.290  1.00  0.00     0.104 A 
HETATM   11  C9  UNK     1      18.646   1.930  31.527  1.00  0.00     0.093 A 
ENDROOT
BRANCH   5  12
HETATM   12  C10 UNK     1      18.278   4.346  31.837  1.00  0.00    -0.002 A 
HETATM   13  C11 UNK     1      18.957   4.718  30.674  1.00  0.00     0.014 A 
HETATM   14  C13 UNK     1      18.865   6.026  30.196  1.00  0.00     0.001 A 
HETATM   15  C15 UNK     1      18.094   6.966  30.881  1.00  0.00     0.000 A 
HETATM   16  C14 UNK     1      17.415   6.598  32.042  1.00  0.00     0.001 A 
HETATM   17  C12 UNK     1      17.507   5.292  32.520  1.00  0.00     0.014 A 
ENDBRANCH   5  12
BRANCH  10  18
HETATM   18  O3  UNK     1      17.911   0.201  37.635  1.00  0.00    -0.353 OA
HETATM   19  C17 UNK     1      17.527   1.403  38.299  1.00  0.00     0.210 C 
ENDBRANCH  10  18
BRANCH   9  20
HETATM   20  O2  UNK     1      18.446  -2.093  36.163  1.00  0.00    -0.353 OA
HETATM   21  C16 UNK     1      19.740  -2.568  36.528  1.00  0.00     0.210 C 
ENDBRANCH   9  20
TORSDOF 3
ENDMDL
MODEL 4
REMARK VINA RESULT:      -7.5     16.735     21.129
REMARK  3 active torsions:
REMARK  status: ('A' for Active; 'I' for Inactive)
REMARK    1  A    between atoms: C7_11  and  O2_2 
REMARK    2  A    between atoms: C8_12  and  O3_3 
REMARK    3  A    between atoms: C10_14  and  C3_7 
ROOT
HETATM    1  O1  UNK     1      17.542   8.678  33.082  1.00  0.00    -0.309 OA
HETATM    2  O4  UNK     1      13.759   7.227  32.653  1.00  0.00    -0.287 OA
HETATM    3  C1  UNK     1      15.167   8.905  33.539  1.00  0.00     0.051 A 
HETATM    4  C2  UNK     1      16.485   9.345  33.649  1.00  0.00     0.093 A 
HETATM    5  C3  UNK     1      17.284   7.522  32.362  1.00  0.00     0.090 A 
HETATM    6  C4  UNK     1      14.131   9.624  34.138  1.00  0.00     0.058 A 
HETATM    7  C5  UNK     1      14.890   7.672  32.785  1.00  0.00     0.187 A 
HETATM    8  C6  UNK     1      16.775  10.509  34.361  1.00  0.00     0.077 A 
HETATM    9  C7  UNK     1      14.423  10.788  34.849  1.00  0.00     0.102 A 
HETATM   10  C8  UNK     1      15.742  11.231  34.960  1.00  0.00     0.104 A 
HETATM   11  C9  UNK     1      16.061   6.994  32.192  1.00  0.00     0.093 A 
ENDROOT
BRANCH   5  12
HETATM   12  C10 UNK     1      18.491   6.883  31.800  1.00  0.00    -0.002 A 
HETATM   13  C11 UNK     1      18.494   6.429  30.479  1.00  0.00     0.014 A 
HETATM   14  C13 UNK     1      19.635   5.826  29.948  1.00  0.00     0.001 A 
HETATM   15  C15 UNK     1      20.776   5.675  30.737  1.00  0.00     0.000 A 
HETATM   16  C14 UNK     1      20.775   6.126  32.057  1.00  0.00     0.001 A 
HETATM   17  C12 UNK     1      19.636   6.729  32.588  1.00  0.00     0.014 A 
ENDBRANCH   5  12
BRANCH  10  18
HETATM   18  O3  UNK     1      16.035  12.367  35.653  1.00  0.00    -0.353 OA
HETATM   19  C17 UNK     1      17.271  13.009  35.350  1.00  0.00     0.210 C 
ENDBRANCH  10  18
BRANCH   9  20
HETATM   20  O2  UNK     1      13.409  11.488  35.432  1.00  0.00    -0.353 OA
HETATM   21  C16 UNK     1      12.632  12.331  34.584  1.00  0.00     0.210 C 
ENDBRANCH   9  20
TORSDOF 3
ENDMDL
MODEL 5
REMARK VINA RESULT:      -7.4     14.439     16.786
REMARK  3 active torsions:
REMARK  status: ('A' for Active; 'I' for Inactive)
REMARK    1  A    between atoms: C7_11  and  O2_2 
REMARK    2  A    between atoms: C8_12  and  O3_3 
REMARK    3  A    between atoms: C10_14  and  C3_7 
ROOT
HETATM    1  O1  UNK     1      17.988   3.475  33.241  1.00  0.00    -0.309 OA
HETATM    2  O4  UNK     1      19.043   2.530  29.421  1.00  0.00    -0.287 OA
HETATM    3  C1  UNK     1      18.673   1.788  31.634  1.00  0.00     0.051 A 
HETATM    4  C2  UNK     1      18.306   2.180  32.921  1.00  0.00     0.093 A 
HETATM    5  C3  UNK     1      18.026   4.433  32.239  1.00  0.00     0.090 A 
HETATM    6  C4  UNK     1      18.987   0.454  31.365  1.00  0.00     0.058 A 
HETATM    7  C5  UNK     1      18.725   2.803  30.570  1.00  0.00     0.187 A 
HETATM    8  C6  UNK     1      18.252   1.237  33.947  1.00  0.00     0.077 A 
HETATM    9  C7  UNK     1      18.932  -0.486  32.394  1.00  0.00     0.102 A 
HETATM   10  C8  UNK     1      18.564  -0.096  33.682  1.00  0.00     0.104 A 
HETATM   11  C9  UNK     1      18.371   4.181  30.966  1.00  0.00     0.093 A 
ENDROOT
BRANCH   5  12
HETATM   12  C10 UNK     1      17.672   5.792  32.694  1.00  0.00    -0.002 A 
HETATM   13  C11 UNK     1      17.713   6.109  34.054  1.00  0.00     0.014 A 
HETATM   14  C13 UNK     1      17.378   7.394  34.485  1.00  0.00     0.001 A 
HETATM   15  C15 UNK     1      17.001   8.364  33.555  1.00  0.00     0.000 A 
HETATM   16  C14 UNK     1      16.959   8.051  32.197  1.00  0.00     0.001 A 
HETATM   17  C12 UNK     1      17.293   6.767  31.767  1.00  0.00     0.014 A 
ENDBRANCH   5  12
BRANCH  10  18
HETATM   18  O3  UNK     1      18.508  -1.009  34.693  1.00  0.00    -0.353 OA
HETATM   19  C17 UNK     1      18.619  -0.510  36.023  1.00  0.00     0.210 C 
ENDBRANCH  10  18
BRANCH   9  20
HETATM   20  O2  UNK     1      19.239  -1.787  32.128  1.00  0.00    -0.353 OA
HETATM   21  C16 UNK     1      20.379  -2.029  31.306  1.00  0.00     0.210 C 
ENDBRANCH   9  20
TORSDOF 3
ENDMDL
MODEL 6
REMARK VINA RESULT:      -7.4     16.148     18.355
REMARK  3 active torsions:
REMARK  status: ('A' for Active; 'I' for Inactive)
REMARK    1  A    between atoms: C7_11  and  O2_2 
REMARK    2  A    between atoms: C8_12  and  O3_3 
REMARK    3  A    between atoms: C10_14  and  C3_7 
ROOT
HETATM    1  O1  UNK     1      18.287   4.134  34.454  1.00  0.00    -0.309 OA
HETATM    2  O4  UNK     1      18.256   2.115  30.915  1.00  0.00    -0.287 OA
HETATM    3  C1  UNK     1      18.302   2.010  33.275  1.00  0.00     0.051 A 
HETATM    4  C2  UNK     1      18.313   2.762  34.449  1.00  0.00     0.093 A 
HETATM    5  C3  UNK     1      18.240   4.798  33.238  1.00  0.00     0.090 A 
HETATM    6  C4  UNK     1      18.331   0.615  33.331  1.00  0.00     0.058 A 
HETATM    7  C5  UNK     1      18.263   2.711  31.983  1.00  0.00     0.187 A 
HETATM    8  C6  UNK     1      18.353   2.121  35.687  1.00  0.00     0.077 A 
HETATM    9  C7  UNK     1      18.370  -0.023  34.571  1.00  0.00     0.102 A 
HETATM   10  C8  UNK     1      18.380   0.728  35.746  1.00  0.00     0.104 A 
HETATM   11  C9  UNK     1      18.233   4.187  32.042  1.00  0.00     0.093 A 
ENDROOT
BRANCH   5  12
HETATM   12  C10 UNK     1      18.220   6.270  33.358  1.00  0.00    -0.002 A 
HETATM   13  C11 UNK     1      17.165   7.005  32.811  1.00  0.00     0.014 A 
HETATM   14  C13 UNK     1      17.146   8.395  32.926  1.00  0.00     0.001 A 
HETATM   15  C15 UNK     1      18.183   9.055  33.587  1.00  0.00     0.000 A 
HETATM   16  C14 UNK     1      19.237   8.324  34.135  1.00  0.00     0.001 A 
HETATM   17  C12 UNK     1      19.257   6.934  34.020  1.00  0.00     0.014 A 
ENDBRANCH   5  12
BRANCH  10  18
HETATM   18  O3  UNK     1      18.419   0.111  36.961  1.00  0.00    -0.353 OA
HETATM   19  C17 UNK     1      17.631   0.683  38.003  1.00  0.00     0.210 C 
ENDBRANCH  10  18
BRANCH   9  20
HETATM   20  O2  UNK     1      18.398  -1.385  34.621  1.00  0.00    -0.353 OA
HETATM   21  C16 UNK     1      19.674  -2.011  34.518  1.00  0.00     0.210 C 
ENDBRANCH   9  20
TORSDOF 3
ENDMDL
MODEL 7
REMARK VINA RESULT:      -7.4     15.929     19.336
REMARK  3 active torsions:
REMARK  status: ('A' for Active; 'I' for Inactive)
REMARK    1  A    between atoms: C7_11  and  O2_2 
REMARK    2  A    between atoms: C8_12  and  O3_3 
REMARK    3  A    between atoms: C10_14  and  C3_7 
ROOT
HETATM    1  O1  UNK     1      19.684  -2.797  35.020  1.00  0.00    -0.309 OA
HETATM    2  O4  UNK     1      17.950  -0.355  37.783  1.00  0.00    -0.287 OA
HETATM    3  C1  UNK     1      18.554  -0.707  35.525  1.00  0.00     0.051 A 
HETATM    4  C2  UNK     1      19.162  -1.588  34.633  1.00  0.00     0.093 A 
HETATM    5  C3  UNK     1      19.593  -3.159  36.355  1.00  0.00     0.090 A 
HETATM    6  C4  UNK     1      18.041   0.511  35.075  1.00  0.00     0.058 A 
HETATM    7  C5  UNK     1      18.466  -1.082  36.945  1.00  0.00     0.187 A 
HETATM    8  C6  UNK     1      19.261  -1.255  33.282  1.00  0.00     0.077 A 
HETATM    9  C7  UNK     1      18.141   0.842  33.723  1.00  0.00     0.102 A 
HETATM   10  C8  UNK     1      18.749  -0.039  32.828  1.00  0.00     0.104 A 
HETATM   11  C9  UNK     1      19.039  -2.394  37.310  1.00  0.00     0.093 A 
ENDROOT
BRANCH   5  12
HETATM   12  C10 UNK     1      20.189  -4.474  36.662  1.00  0.00    -0.002 A 
HETATM   13  C11 UNK     1      19.876  -5.587  35.877  1.00  0.00     0.014 A 
HETATM   14  C13 UNK     1      20.440  -6.830  36.167  1.00  0.00     0.001 A 
HETATM   15  C15 UNK     1      21.318  -6.964  37.243  1.00  0.00     0.000 A 
HETATM   16  C14 UNK     1      21.633  -5.855  38.028  1.00  0.00     0.001 A 
HETATM   17  C12 UNK     1      21.069  -4.613  37.739  1.00  0.00     0.014 A 
ENDBRANCH   5  12
BRANCH  10  18
HETATM   18  O3  UNK     1      18.850   0.277  31.507  1.00  0.00    -0.353 OA
HETATM   19  C17 UNK     1      20.077  -0.047  30.856  1.00  0.00     0.210 C 
ENDBRANCH  10  18
BRANCH   9  20
HETATM   20  O2  UNK     1      17.639   2.032  33.287  1.00  0.00    -0.353 OA
HETATM   21  C16 UNK     1      18.265   3.217  33.775  1.00  0.00     0.210 C 
ENDBRANCH   9  20
TORSDOF 3
ENDMDL
MODEL 8
REMARK VINA RESULT:      -7.3     15.455     18.499
REMARK  3 active torsions:
REMARK  status: ('A' for Active; 'I' for Inactive)
REMARK    1  A    between atoms: C7_11  and  O2_2 
REMARK    2  A    between atoms: C8_12  and  O3_3 
REMARK    3  A    between atoms: C10_14  and  C3_7 
ROOT
HETATM    1  O1  UNK     1      18.235   2.517  34.690  1.00  0.00    -0.309 OA
HETATM    2  O4  UNK     1      18.612   1.000  30.928  1.00  0.00    -0.287 OA
HETATM    3  C1  UNK     1      18.448   2.914  32.304  1.00  0.00     0.051 A 
HETATM    4  C2  UNK     1      18.316   3.366  33.616  1.00  0.00     0.093 A 
HETATM    5  C3  UNK     1      18.296   1.151  34.460  1.00  0.00     0.090 A 
HETATM    6  C4  UNK     1      18.525   3.825  31.248  1.00  0.00     0.058 A 
HETATM    7  C5  UNK     1      18.502   1.465  32.053  1.00  0.00     0.187 A 
HETATM    8  C6  UNK     1      18.261   4.734  33.880  1.00  0.00     0.077 A 
HETATM    9  C7  UNK     1      18.469   5.193  31.515  1.00  0.00     0.102 A 
HETATM   10  C8  UNK     1      18.338   5.647  32.827  1.00  0.00     0.104 A 
HETATM   11  C9  UNK     1      18.414   0.594  33.243  1.00  0.00     0.093 A 
ENDROOT
BRANCH   5  12
HETATM   12  C10 UNK     1      18.194   0.331  35.683  1.00  0.00    -0.002 A 
HETATM   13  C11 UNK     1      18.476  -1.037  35.636  1.00  0.00     0.014 A 
HETATM   14  C13 UNK     1      18.381  -1.812  36.792  1.00  0.00     0.001 A 
HETATM   15  C15 UNK     1      18.003  -1.222  37.999  1.00  0.00     0.000 A 
HETATM   16  C14 UNK     1      17.722   0.144  38.049  1.00  0.00     0.001 A 
HETATM   17  C12 UNK     1      17.816   0.918  36.894  1.00  0.00     0.014 A 
ENDBRANCH   5  12
BRANCH  10  18
HETATM   18  O3  UNK     1      18.283   6.982  33.096  1.00  0.00    -0.353 OA
HETATM   19  C17 UNK     1      19.453   7.581  33.648  1.00  0.00     0.210 C 
ENDBRANCH  10  18
BRANCH   9  20
HETATM   20  O2  UNK     1      18.545   6.079  30.482  1.00  0.00    -0.353 OA
HETATM   21  C16 UNK     1      19.736   6.060  29.698  1.00  0.00     0.210 C 
ENDBRANCH   9  20
TORSDOF 3
ENDMDL
MODEL 9
REMARK VINA RESULT:      -7.2     16.469     17.428
REMARK  3 active torsions:
REMARK  status: ('A' for Active; 'I' for Inactive)
REMARK    1  A    between atoms: C7_11  and  O2_2 
REMARK    2  A    between atoms: C8_12  and  O3_3 
REMARK    3  A    between atoms: C10_14  and  C3_7 
ROOT
HETATM    1  O1  UNK     1       7.805   4.688   8.888  1.00  0.00    -0.309 OA
HETATM    2  O4  UNK     1       6.504   7.284  11.747  1.00  0.00    -0.287 OA
HETATM    3  C1  UNK     1       6.381   5.119  10.808  1.00  0.00     0.051 A 
HETATM    4  C2  UNK     1       6.866   4.283   9.804  1.00  0.00     0.093 A 
HETATM    5  C3  UNK     1       8.294   5.982   8.973  1.00  0.00     0.090 A 
HETATM    6  C4  UNK     1       5.425   4.652  11.713  1.00  0.00     0.058 A 
HETATM    7  C5  UNK     1       6.890   6.496  10.895  1.00  0.00     0.187 A 
HETATM    8  C6  UNK     1       6.398   2.973   9.699  1.00  0.00     0.077 A 
HETATM    9  C7  UNK     1       4.958   3.342  11.606  1.00  0.00     0.102 A 
HETATM   10  C8  UNK     1       5.444   2.504  10.602  1.00  0.00     0.104 A 
HETATM   11  C9  UNK     1       7.900   6.882   9.888  1.00  0.00     0.093 A 
ENDROOT
BRANCH   5  12
HETATM   12  C10 UNK     1       9.293   6.314   7.937  1.00  0.00    -0.002 A 
HETATM   13  C11 UNK     1      10.509   6.902   8.297  1.00  0.00     0.014 A 
HETATM   14  C13 UNK     1      11.453   7.215   7.319  1.00  0.00     0.001 A 
HETATM   15  C15 UNK     1      11.184   6.942   5.977  1.00  0.00     0.000 A 
HETATM   16  C14 UNK     1       9.972   6.355   5.615  1.00  0.00     0.001 A 
HETATM   17  C12 UNK     1       9.028   6.042   6.592  1.00  0.00     0.014 A 
ENDBRANCH   5  12
BRANCH  10  18
HETATM   18  O3  UNK     1       4.992   1.223  10.491  1.00  0.00    -0.353 OA
HETATM   19  C17 UNK     1       4.884   0.686   9.175  1.00  0.00     0.210 C 
ENDBRANCH  10  18
BRANCH   9  20
HETATM   20  O2  UNK     1       4.026   2.890  12.492  1.00  0.00    -0.353 OA
HETATM   21  C16 UNK     1       4.501   2.434  13.757  1.00  0.00     0.210 C 
ENDBRANCH   9  20
TORSDOF 3
ENDMDL
MODEL 10
REMARK VINA RESULT:      -7.2     13.058     17.695
REMARK  3 active torsions:
REMARK  status: ('A' for Active; 'I' for Inactive)
REMARK    1  A    between atoms: C7_11  and  O2_2 
REMARK    2  A    between atoms: C8_12  and  O3_3 
REMARK    3  A    between atoms: C10_14  and  C3_7 
ROOT
HETATM    1  O1  UNK     1      18.541   3.364  30.959  1.00  0.00    -0.309 OA
HETATM    2  O4  UNK     1      18.245   2.460  34.921  1.00  0.00    -0.287 OA
HETATM    3  C1  UNK     1      18.086   4.101  33.228  1.00  0.00     0.051 A 
HETATM    4  C2  UNK     1      18.207   4.343  31.860  1.00  0.00     0.093 A 
HETATM    5  C3  UNK     1      18.761   2.079  31.430  1.00  0.00     0.090 A 
HETATM    6  C4  UNK     1      17.743   5.137  34.100  1.00  0.00     0.058 A 
HETATM    7  C5  UNK     1      18.328   2.742  33.733  1.00  0.00     0.187 A 
HETATM    8  C6  UNK     1      17.984   5.624  31.356  1.00  0.00     0.077 A 
HETATM    9  C7  UNK     1      17.521   6.418  33.593  1.00  0.00     0.102 A 
HETATM   10  C8  UNK     1      17.641   6.661  32.224  1.00  0.00     0.104 A 
HETATM   11  C9  UNK     1      18.682   1.724  32.723  1.00  0.00     0.093 A 
ENDROOT
BRANCH   5  12
HETATM   12  C10 UNK     1      19.119   1.107  30.378  1.00  0.00    -0.002 A 
HETATM   13  C11 UNK     1      20.131   0.170  30.603  1.00  0.00     0.014 A 
HETATM   14  C13 UNK     1      20.469  -0.749  29.609  1.00  0.00     0.001 A 
HETATM   15  C15 UNK     1      19.797  -0.732  28.386  1.00  0.00     0.000 A 
HETATM   16  C14 UNK     1      18.787   0.202  28.158  1.00  0.00     0.001 A 
HETATM   17  C12 UNK     1      18.449   1.120  29.151  1.00  0.00     0.014 A 
ENDBRANCH   5  12
BRANCH  10  18
HETATM   18  O3  UNK     1      17.426   7.910  31.721  1.00  0.00    -0.353 OA
HETATM   19  C17 UNK     1      16.075   8.275  31.450  1.00  0.00     0.210 C 
ENDBRANCH  10  18
BRANCH   9  20
HETATM   20  O2  UNK     1      17.186   7.426  34.446  1.00  0.00    -0.353 OA
HETATM   21  C16 UNK     1      18.252   8.062  35.148  1.00  0.00     0.210 C 
ENDBRANCH   9  20
TORSDOF 3
ENDMDL
