MODEL 1
REMARK VINA RESULT:      -7.7      0.000      0.000
REMARK  7 active torsions:
REMARK  status: ('A' for Active; 'I' for Inactive)
REMARK    1  A    between atoms: C13_18  and  O2_2 
REMARK    2  A    between atoms: C7_12  and  O2_2 
REMARK    3  A    between atoms: C17_22  and  O4_4 
REMARK    4  A    between atoms: C18_23  and  O4_4 
REMARK    5  A    between atoms: C3_8  and  C9_14 
REMARK    6  A    between atoms: C10_15  and  C6_11 
REMARK    7  A    between atoms: C13_18  and  C17_22 
ROOT
HETATM    1  O1  UNK     1      18.225   0.913  33.304  1.00  0.00    -0.274 OA
HETATM    2  O3  UNK     1      18.462  -1.285  33.816  1.00  0.00    -0.259 OA
HETATM    3  C1  UNK     1      18.983   1.762  31.155  1.00  0.00     0.005 A 
HETATM    4  C2  UNK     1      19.414   0.398  30.788  1.00  0.00    -0.037 A 
HETATM    5  C3  UNK     1      18.704   4.151  30.732  1.00  0.00    -0.024 A 
HETATM    6  C4  UNK     1      18.401   1.973  32.402  1.00  0.00     0.093 A 
HETATM    7  C5  UNK     1      19.133   2.882  30.322  1.00  0.00     0.024 A 
HETATM    8  C6  UNK     1      19.269  -0.606  31.679  1.00  0.00     0.024 A 
HETATM    9  C7  UNK     1      18.119   4.324  31.983  1.00  0.00     0.079 A 
HETATM   10  C8  UNK     1      17.967   3.230  32.826  1.00  0.00     0.075 A 
HETATM   11  C11 UNK     1      18.633  -0.377  33.009  1.00  0.00     0.295 A 
HETATM   12  C12 UNK     1      19.984   0.209  29.403  1.00  0.00     0.050 C 
ENDROOT
BRANCH   9  13
HETATM   13  O2  UNK     1      17.696   5.551  32.394  1.00  0.00    -0.336 OA
BRANCH  13  14
HETATM   14  C13 UNK     1      18.032   5.941  33.726  1.00  0.00     0.224 C 
HETATM   15  C16 UNK     1      19.433   6.526  33.707  1.00  0.00     0.051 C 
BRANCH  14  16
HETATM   16  C17 UNK     1      17.014   6.956  34.204  1.00  0.00     0.288 C 
HETATM   17  O5  UNK     1      17.014   7.468  35.316  1.00  0.00    -0.262 OA
BRANCH  16  18
HETATM   18  O4  UNK     1      16.127   7.225  33.201  1.00  0.00    -0.320 OA
BRANCH  18  19
HETATM   19  C18 UNK     1      14.794   7.533  33.622  1.00  0.00     0.174 C 
HETATM   20  C19 UNK     1      13.841   7.267  32.477  1.00  0.00     0.034 C 
ENDBRANCH  18  19
ENDBRANCH  16  18
ENDBRANCH  14  16
ENDBRANCH  13  14
ENDBRANCH   9  13
BRANCH   5  21
HETATM   21  C9  UNK     1      18.883   5.311  29.809  1.00  0.00     0.037 C 
HETATM   22  C14 UNK     1      20.238   5.989  29.988  1.00  0.00     0.010 C 
ENDBRANCH   5  21
BRANCH   8  23
HETATM   23  C10 UNK     1      19.722  -2.027  31.459  1.00  0.00     0.041 C 
HETATM   24  C15 UNK     1      21.023  -2.309  32.180  1.00  0.00     0.010 C 
ENDBRANCH   8  23
TORSDOF 7
ENDMDL
MODEL 2
REMARK VINA RESULT:      -7.6      2.068      2.998
REMARK  7 active torsions:
REMARK  status: ('A' for Active; 'I' for Inactive)
REMARK    1  A    between atoms: C13_18  and  O2_2 
REMARK    2  A    between atoms: C7_12  and  O2_2 
REMARK    3  A    between atoms: C17_22  and  O4_4 
REMARK    4  A    between atoms: C18_23  and  O4_4 
REMARK    5  A    between atoms: C3_8  and  C9_14 
REMARK    6  A    between atoms: C10_15  and  C6_11 
REMARK    7  A    between atoms: C13_18  and  C17_22 
ROOT
HETATM    1  O1  UNK     1      18.246   2.795  35.447  1.00  0.00    -0.274 OA
HETATM    2  O3  UNK     1      18.347   1.518  37.321  1.00  0.00    -0.259 OA
HETATM    3  C1  UNK     1      18.409   1.764  33.250  1.00  0.00     0.005 A 
HETATM    4  C2  UNK     1      18.528   0.442  33.899  1.00  0.00    -0.037 A 
HETATM    5  C3  UNK     1      18.319   3.243  31.309  1.00  0.00    -0.024 A 
HETATM    6  C4  UNK     1      18.270   2.896  34.048  1.00  0.00     0.093 A 
HETATM    7  C5  UNK     1      18.437   1.961  31.860  1.00  0.00     0.024 A 
HETATM    8  C6  UNK     1      18.538   0.363  35.246  1.00  0.00     0.024 A 
HETATM    9  C7  UNK     1      18.175   4.354  32.137  1.00  0.00     0.079 A 
HETATM   10  C8  UNK     1      18.151   4.182  33.516  1.00  0.00     0.075 A 
HETATM   11  C11 UNK     1      18.376   1.578  36.096  1.00  0.00     0.295 A 
HETATM   12  C12 UNK     1      18.616  -0.760  32.990  1.00  0.00     0.050 C 
ENDROOT
BRANCH   9  13
HETATM   13  O2  UNK     1      18.059   5.605  31.615  1.00  0.00    -0.336 OA
BRANCH  13  14
HETATM   14  C13 UNK     1      17.474   6.605  32.450  1.00  0.00     0.224 C 
HETATM   15  C16 UNK     1      18.559   7.598  32.828  1.00  0.00     0.051 C 
BRANCH  14  16
HETATM   16  C17 UNK     1      16.351   7.276  31.686  1.00  0.00     0.288 C 
HETATM   17  O5  UNK     1      16.496   8.234  30.937  1.00  0.00    -0.262 OA
BRANCH  16  18
HETATM   18  O4  UNK     1      15.173   6.635  31.943  1.00  0.00    -0.320 OA
BRANCH  18  19
HETATM   19  C18 UNK     1      14.116   7.461  32.442  1.00  0.00     0.174 C 
HETATM   20  C19 UNK     1      14.409   7.820  33.883  1.00  0.00     0.034 C 
ENDBRANCH  18  19
ENDBRANCH  16  18
ENDBRANCH  14  16
ENDBRANCH  13  14
ENDBRANCH   9  13
BRANCH   5  21
HETATM   21  C9  UNK     1      18.353   3.402  29.825  1.00  0.00     0.037 C 
HETATM   22  C14 UNK     1      18.120   2.081  29.096  1.00  0.00     0.010 C 
ENDBRANCH   5  21
BRANCH   8  23
HETATM   23  C10 UNK     1      18.716  -0.910  36.034  1.00  0.00     0.041 C 
HETATM   24  C15 UNK     1      17.384  -1.553  36.354  1.00  0.00     0.010 C 
ENDBRANCH   8  23
TORSDOF 7
ENDMDL
MODEL 3
REMARK VINA RESULT:      -7.5      2.782      7.480
REMARK  7 active torsions:
REMARK  status: ('A' for Active; 'I' for Inactive)
REMARK    1  A    between atoms: C13_18  and  O2_2 
REMARK    2  A    between atoms: C7_12  and  O2_2 
REMARK    3  A    between atoms: C17_22  and  O4_4 
REMARK    4  A    between atoms: C18_23  and  O4_4 
REMARK    5  A    between atoms: C3_8  and  C9_14 
REMARK    6  A    between atoms: C10_15  and  C6_11 
REMARK    7  A    between atoms: C13_18  and  C17_22 
ROOT
HETATM    1  O1  UNK     1      18.502   1.707  31.303  1.00  0.00    -0.274 OA
HETATM    2  O3  UNK     1      18.621   2.983  29.430  1.00  0.00    -0.259 OA
HETATM    3  C1  UNK     1      18.300   2.753  33.490  1.00  0.00     0.005 A 
HETATM    4  C2  UNK     1      18.306   4.078  32.837  1.00  0.00    -0.037 A 
HETATM    5  C3  UNK     1      18.213   1.278  35.434  1.00  0.00    -0.024 A 
HETATM    6  C4  UNK     1      18.397   1.612  32.699  1.00  0.00     0.093 A 
HETATM    7  C5  UNK     1      18.213   2.563  34.879  1.00  0.00     0.024 A 
HETATM    8  C6  UNK     1      18.442   4.156  31.497  1.00  0.00     0.024 A 
HETATM    9  C7  UNK     1      18.304   0.157  34.613  1.00  0.00     0.079 A 
HETATM   10  C8  UNK     1      18.398   0.322  33.236  1.00  0.00     0.075 A 
HETATM   11  C11 UNK     1      18.533   2.930  30.653  1.00  0.00     0.295 A 
HETATM   12  C12 UNK     1      18.139   5.282  33.732  1.00  0.00     0.050 C 
ENDROOT
BRANCH   9  13
HETATM   13  O2  UNK     1      18.305  -1.098  35.139  1.00  0.00    -0.336 OA
BRANCH  13  14
HETATM   14  C13 UNK     1      19.518  -1.550  35.740  1.00  0.00     0.224 C 
HETATM   15  C16 UNK     1      19.175  -2.182  37.078  1.00  0.00     0.051 C 
BRANCH  14  16
HETATM   16  C17 UNK     1      20.178  -2.546  34.809  1.00  0.00     0.288 C 
HETATM   17  O5  UNK     1      20.201  -3.757  34.992  1.00  0.00    -0.262 OA
BRANCH  16  18
HETATM   18  O4  UNK     1      20.711  -1.890  33.736  1.00  0.00    -0.320 OA
BRANCH  18  19
HETATM   19  C18 UNK     1      20.901  -2.683  32.560  1.00  0.00     0.174 C 
HETATM   20  C19 UNK     1      20.495  -1.872  31.348  1.00  0.00     0.034 C 
ENDBRANCH  18  19
ENDBRANCH  16  18
ENDBRANCH  14  16
ENDBRANCH  13  14
ENDBRANCH   9  13
BRANCH   5  21
HETATM   21  C9  UNK     1      18.116   1.127  36.916  1.00  0.00     0.037 C 
HETATM   22  C14 UNK     1      16.691   1.321  37.426  1.00  0.00     0.010 C 
ENDBRANCH   5  21
BRANCH   8  23
HETATM   23  C10 UNK     1      18.528   5.441  30.712  1.00  0.00     0.041 C 
HETATM   24  C15 UNK     1      19.966   5.834  30.451  1.00  0.00     0.010 C 
ENDBRANCH   8  23
TORSDOF 7
ENDMDL
MODEL 4
REMARK VINA RESULT:      -7.5      1.919      7.573
REMARK  7 active torsions:
REMARK  status: ('A' for Active; 'I' for Inactive)
REMARK    1  A    between atoms: C13_18  and  O2_2 
REMARK    2  A    between atoms: C7_12  and  O2_2 
REMARK    3  A    between atoms: C17_22  and  O4_4 
REMARK    4  A    between atoms: C18_23  and  O4_4 
REMARK    5  A    between atoms: C3_8  and  C9_14 
REMARK    6  A    between atoms: C10_15  and  C6_11 
REMARK    7  A    between atoms: C13_18  and  C17_22 
ROOT
HETATM    1  O1  UNK     1      15.857   6.220  32.695  1.00  0.00    -0.274 OA
HETATM    2  O3  UNK     1      14.206   7.339  33.780  1.00  0.00    -0.259 OA
HETATM    3  C1  UNK     1      18.146   7.038  32.767  1.00  0.00     0.005 A 
HETATM    4  C2  UNK     1      17.700   8.158  33.620  1.00  0.00    -0.037 A 
HETATM    5  C3  UNK     1      19.829   5.768  31.536  1.00  0.00    -0.024 A 
HETATM    6  C4  UNK     1      17.208   6.106  32.334  1.00  0.00     0.093 A 
HETATM    7  C5  UNK     1      19.473   6.853  32.347  1.00  0.00     0.024 A 
HETATM    8  C6  UNK     1      16.392   8.275  33.932  1.00  0.00     0.024 A 
HETATM    9  C7  UNK     1      18.866   4.849  31.127  1.00  0.00     0.079 A 
HETATM   10  C8  UNK     1      17.546   5.018  31.526  1.00  0.00     0.075 A 
HETATM   11  C11 UNK     1      15.393   7.266  33.476  1.00  0.00     0.295 A 
HETATM   12  C12 UNK     1      18.764   9.109  34.113  1.00  0.00     0.050 C 
ENDROOT
BRANCH   9  13
HETATM   13  O2  UNK     1      19.198   3.790  30.340  1.00  0.00    -0.336 OA
BRANCH  13  14
HETATM   14  C13 UNK     1      18.285   2.694  30.307  1.00  0.00     0.224 C 
HETATM   15  C16 UNK     1      17.955   2.398  28.854  1.00  0.00     0.051 C 
BRANCH  14  16
HETATM   16  C17 UNK     1      18.935   1.502  30.980  1.00  0.00     0.288 C 
HETATM   17  O5  UNK     1      18.646   1.094  32.098  1.00  0.00    -0.262 OA
BRANCH  16  18
HETATM   18  O4  UNK     1      19.862   0.950  30.143  1.00  0.00    -0.320 OA
BRANCH  18  19
HETATM   19  C18 UNK     1      20.574  -0.176  30.667  1.00  0.00     0.174 C 
HETATM   20  C19 UNK     1      20.334  -1.371  29.770  1.00  0.00     0.034 C 
ENDBRANCH  18  19
ENDBRANCH  16  18
ENDBRANCH  14  16
ENDBRANCH  13  14
ENDBRANCH   9  13
BRANCH   5  21
HETATM   21  C9  UNK     1      21.254   5.612  31.116  1.00  0.00     0.037 C 
HETATM   22  C14 UNK     1      22.230   5.997  32.224  1.00  0.00     0.010 C 
ENDBRANCH   5  21
BRANCH   8  23
HETATM   23  C10 UNK     1      15.794   9.401  34.738  1.00  0.00     0.041 C 
HETATM   24  C15 UNK     1      15.419  10.572  33.856  1.00  0.00     0.010 C 
ENDBRANCH   8  23
TORSDOF 7
ENDMDL
MODEL 5
REMARK VINA RESULT:      -7.3      1.996      3.165
REMARK  7 active torsions:
REMARK  status: ('A' for Active; 'I' for Inactive)
REMARK    1  A    between atoms: C13_18  and  O2_2 
REMARK    2  A    between atoms: C7_12  and  O2_2 
REMARK    3  A    between atoms: C17_22  and  O4_4 
REMARK    4  A    between atoms: C18_23  and  O4_4 
REMARK    5  A    between atoms: C3_8  and  C9_14 
REMARK    6  A    between atoms: C10_15  and  C6_11 
REMARK    7  A    between atoms: C13_18  and  C17_22 
ROOT
HETATM    1  O1  UNK     1      18.197   2.192  35.181  1.00  0.00    -0.274 OA
HETATM    2  O3  UNK     1      18.291   0.968  37.089  1.00  0.00    -0.259 OA
HETATM    3  C1  UNK     1      18.479   1.117  33.017  1.00  0.00     0.005 A 
HETATM    4  C2  UNK     1      18.635  -0.182  33.704  1.00  0.00    -0.037 A 
HETATM    5  C3  UNK     1      18.390   2.542  31.037  1.00  0.00    -0.024 A 
HETATM    6  C4  UNK     1      18.264   2.260  33.781  1.00  0.00     0.093 A 
HETATM    7  C5  UNK     1      18.545   1.281  31.624  1.00  0.00     0.024 A 
HETATM    8  C6  UNK     1      18.602  -0.228  35.052  1.00  0.00     0.024 A 
HETATM    9  C7  UNK     1      18.169   3.665  31.830  1.00  0.00     0.079 A 
HETATM   10  C8  UNK     1      18.107   3.526  33.211  1.00  0.00     0.075 A 
HETATM   11  C11 UNK     1      18.359   0.999  35.864  1.00  0.00     0.295 A 
HETATM   12  C12 UNK     1      18.806  -1.401  32.830  1.00  0.00     0.050 C 
ENDROOT
BRANCH   9  13
HETATM   13  O2  UNK     1      18.016   4.897  31.273  1.00  0.00    -0.336 OA
BRANCH  13  14
HETATM   14  C13 UNK     1      18.678   5.987  31.914  1.00  0.00     0.224 C 
HETATM   15  C16 UNK     1      20.022   6.186  31.236  1.00  0.00     0.051 C 
BRANCH  14  16
HETATM   16  C17 UNK     1      17.808   7.221  31.793  1.00  0.00     0.288 C 
HETATM   17  O5  UNK     1      17.063   7.455  30.849  1.00  0.00    -0.262 OA
BRANCH  16  18
HETATM   18  O4  UNK     1      17.965   8.004  32.900  1.00  0.00    -0.320 OA
BRANCH  18  19
HETATM   19  C18 UNK     1      18.063   7.303  34.144  1.00  0.00     0.174 C 
HETATM   20  C19 UNK     1      19.220   7.867  34.939  1.00  0.00     0.034 C 
ENDBRANCH  18  19
ENDBRANCH  16  18
ENDBRANCH  14  16
ENDBRANCH  13  14
ENDBRANCH   9  13
BRANCH   5  21
HETATM   21  C9  UNK     1      18.467   2.665  29.551  1.00  0.00     0.037 C 
HETATM   22  C14 UNK     1      18.454   1.307  28.855  1.00  0.00     0.010 C 
ENDBRANCH   5  21
BRANCH   8  23
HETATM   23  C10 UNK     1      18.810  -1.472  35.879  1.00  0.00     0.041 C 
HETATM   24  C15 UNK     1      20.269  -1.874  35.913  1.00  0.00     0.010 C 
ENDBRANCH   8  23
TORSDOF 7
ENDMDL
MODEL 6
REMARK VINA RESULT:      -7.2      2.227      3.138
REMARK  7 active torsions:
REMARK  status: ('A' for Active; 'I' for Inactive)
REMARK    1  A    between atoms: C13_18  and  O2_2 
REMARK    2  A    between atoms: C7_12  and  O2_2 
REMARK    3  A    between atoms: C17_22  and  O4_4 
REMARK    4  A    between atoms: C18_23  and  O4_4 
REMARK    5  A    between atoms: C3_8  and  C9_14 
REMARK    6  A    between atoms: C10_15  and  C6_11 
REMARK    7  A    between atoms: C13_18  and  C17_22 
ROOT
HETATM    1  O1  UNK     1      18.158   2.361  35.741  1.00  0.00    -0.274 OA
HETATM    2  O3  UNK     1      18.134   0.892  37.471  1.00  0.00    -0.259 OA
HETATM    3  C1  UNK     1      18.352   1.559  33.453  1.00  0.00     0.005 A 
HETATM    4  C2  UNK     1      18.389   0.172  33.961  1.00  0.00    -0.037 A 
HETATM    5  C3  UNK     1      18.399   3.235  31.678  1.00  0.00    -0.024 A 
HETATM    6  C4  UNK     1      18.237   2.606  34.362  1.00  0.00     0.093 A 
HETATM    7  C5  UNK     1      18.439   1.898  32.093  1.00  0.00     0.024 A 
HETATM    8  C6  UNK     1      18.346  -0.048  35.292  1.00  0.00     0.024 A 
HETATM    9  C7  UNK     1      18.275   4.258  32.614  1.00  0.00     0.079 A 
HETATM   10  C8  UNK     1      18.195   3.945  33.965  1.00  0.00     0.075 A 
HETATM   11  C11 UNK     1      18.209   1.078  36.260  1.00  0.00     0.295 A 
HETATM   12  C12 UNK     1      18.455  -0.931  32.933  1.00  0.00     0.050 C 
ENDROOT
BRANCH   9  13
HETATM   13  O2  UNK     1      18.235   5.562  32.224  1.00  0.00    -0.336 OA
BRANCH  13  14
HETATM   14  C13 UNK     1      18.704   6.534  33.159  1.00  0.00     0.224 C 
HETATM   15  C16 UNK     1      20.183   6.760  32.901  1.00  0.00     0.051 C 
BRANCH  14  16
HETATM   16  C17 UNK     1      17.907   7.809  32.972  1.00  0.00     0.288 C 
HETATM   17  O5  UNK     1      17.247   8.075  31.976  1.00  0.00    -0.262 OA
BRANCH  16  18
HETATM   18  O4  UNK     1      18.021   8.589  34.087  1.00  0.00    -0.320 OA
BRANCH  18  19
HETATM   19  C18 UNK     1      17.616   9.953  33.930  1.00  0.00     0.174 C 
HETATM   20  C19 UNK     1      18.841  10.840  33.981  1.00  0.00     0.034 C 
ENDBRANCH  18  19
ENDBRANCH  16  18
ENDBRANCH  14  16
ENDBRANCH  13  14
ENDBRANCH   9  13
BRANCH   5  21
HETATM   21  C9  UNK     1      18.493   3.546  30.220  1.00  0.00     0.037 C 
HETATM   22  C14 UNK     1      18.353   2.299  29.352  1.00  0.00     0.010 C 
ENDBRANCH   5  21
BRANCH   8  23
HETATM   23  C10 UNK     1      18.439  -1.404  35.946  1.00  0.00     0.041 C 
HETATM   24  C15 UNK     1      19.875  -1.874  36.040  1.00  0.00     0.010 C 
ENDBRANCH   8  23
TORSDOF 7
ENDMDL
MODEL 7
REMARK VINA RESULT:      -7.1     14.802     18.177
REMARK  7 active torsions:
REMARK  status: ('A' for Active; 'I' for Inactive)
REMARK    1  A    between atoms: C13_18  and  O2_2 
REMARK    2  A    between atoms: C7_12  and  O2_2 
REMARK    3  A    between atoms: C17_22  and  O4_4 
REMARK    4  A    between atoms: C18_23  and  O4_4 
REMARK    5  A    between atoms: C3_8  and  C9_14 
REMARK    6  A    between atoms: C10_15  and  C6_11 
REMARK    7  A    between atoms: C13_18  and  C17_22 
ROOT
HETATM    1  O1  UNK     1      18.429  -1.034  18.313  1.00  0.00    -0.274 OA
HETATM    2  O3  UNK     1      18.308   0.175  20.229  1.00  0.00    -0.259 OA
HETATM    3  C1  UNK     1      19.040   0.042  16.219  1.00  0.00     0.005 A 
HETATM    4  C2  UNK     1      19.174   1.325  16.938  1.00  0.00    -0.037 A 
HETATM    5  C3  UNK     1      19.106  -1.356  14.218  1.00  0.00    -0.024 A 
HETATM    6  C4  UNK     1      18.673  -1.095  16.932  1.00  0.00     0.093 A 
HETATM    7  C5  UNK     1      19.251  -0.109  14.839  1.00  0.00     0.024 A 
HETATM    8  C6  UNK     1      18.903   1.377  18.259  1.00  0.00     0.024 A 
HETATM    9  C7  UNK     1      18.745  -2.475  14.963  1.00  0.00     0.079 A 
HETATM   10  C8  UNK     1      18.525  -2.346  16.329  1.00  0.00     0.075 A 
HETATM   11  C11 UNK     1      18.522   0.152  19.021  1.00  0.00     0.295 A 
HETATM   12  C12 UNK     1      19.632   2.517  16.132  1.00  0.00     0.050 C 
ENDROOT
BRANCH   9  13
HETATM   13  O2  UNK     1      18.601  -3.692  14.373  1.00  0.00    -0.336 OA
BRANCH  13  14
HETATM   14  C13 UNK     1      19.273  -4.794  14.983  1.00  0.00     0.224 C 
HETATM   15  C16 UNK     1      18.395  -6.024  14.834  1.00  0.00     0.051 C 
BRANCH  14  16
HETATM   16  C17 UNK     1      20.612  -4.982  14.300  1.00  0.00     0.288 C 
HETATM   17  O5  UNK     1      20.763  -5.118  13.093  1.00  0.00    -0.262 OA
BRANCH  16  18
HETATM   18  O4  UNK     1      21.612  -4.949  15.231  1.00  0.00    -0.320 OA
BRANCH  18  19
HETATM   19  C18 UNK     1      22.050  -3.644  15.620  1.00  0.00     0.174 C 
HETATM   20  C19 UNK     1      21.979  -3.528  17.127  1.00  0.00     0.034 C 
ENDBRANCH  18  19
ENDBRANCH  16  18
ENDBRANCH  14  16
ENDBRANCH  13  14
ENDBRANCH   9  13
BRANCH   5  21
HETATM   21  C9  UNK     1      19.343  -1.467  12.747  1.00  0.00     0.037 C 
HETATM   22  C14 UNK     1      20.827  -1.563  12.406  1.00  0.00     0.010 C 
ENDBRANCH   5  21
BRANCH   8  23
HETATM   23  C10 UNK     1      18.938   2.629  19.100  1.00  0.00     0.041 C 
HETATM   24  C15 UNK     1      20.298   2.829  19.734  1.00  0.00     0.010 C 
ENDBRANCH   8  23
TORSDOF 7
ENDMDL
MODEL 8
REMARK VINA RESULT:      -7.1      2.503      7.481
REMARK  7 active torsions:
REMARK  status: ('A' for Active; 'I' for Inactive)
REMARK    1  A    between atoms: C13_18  and  O2_2 
REMARK    2  A    between atoms: C7_12  and  O2_2 
REMARK    3  A    between atoms: C17_22  and  O4_4 
REMARK    4  A    between atoms: C18_23  and  O4_4 
REMARK    5  A    between atoms: C3_8  and  C9_14 
REMARK    6  A    between atoms: C10_15  and  C6_11 
REMARK    7  A    between atoms: C13_18  and  C17_22 
ROOT
HETATM    1  O1  UNK     1      18.016   3.327  33.914  1.00  0.00    -0.274 OA
HETATM    2  O3  UNK     1      17.723   5.556  33.604  1.00  0.00    -0.259 OA
HETATM    3  C1  UNK     1      18.611   1.894  32.041  1.00  0.00     0.005 A 
HETATM    4  C2  UNK     1      18.610   3.078  31.158  1.00  0.00    -0.037 A 
HETATM    5  C3  UNK     1      18.868  -0.492  32.492  1.00  0.00    -0.024 A 
HETATM    6  C4  UNK     1      18.315   2.060  33.391  1.00  0.00     0.093 A 
HETATM    7  C5  UNK     1      18.884   0.589  31.602  1.00  0.00     0.024 A 
HETATM    8  C6  UNK     1      18.288   4.286  31.668  1.00  0.00     0.024 A 
HETATM    9  C7  UNK     1      18.575  -0.289  33.838  1.00  0.00     0.079 A 
HETATM   10  C8  UNK     1      18.294   0.993  34.293  1.00  0.00     0.075 A 
HETATM   11  C11 UNK     1      17.984   4.459  33.118  1.00  0.00     0.295 A 
HETATM   12  C12 UNK     1      18.996   2.857  29.716  1.00  0.00     0.050 C 
ENDROOT
BRANCH   9  13
HETATM   13  O2  UNK     1      18.555  -1.330  34.714  1.00  0.00    -0.336 OA
BRANCH  13  14
HETATM   14  C13 UNK     1      19.164  -1.119  35.988  1.00  0.00     0.224 C 
HETATM   15  C16 UNK     1      18.128  -1.408  37.060  1.00  0.00     0.051 C 
BRANCH  14  16
HETATM   16  C17 UNK     1      20.361  -2.038  36.111  1.00  0.00     0.288 C 
HETATM   17  O5  UNK     1      21.243  -2.147  35.268  1.00  0.00    -0.262 OA
BRANCH  16  18
HETATM   18  O4  UNK     1      20.314  -2.697  37.307  1.00  0.00    -0.320 OA
BRANCH  18  19
HETATM   19  C18 UNK     1      20.681  -4.080  37.265  1.00  0.00     0.174 C 
HETATM   20  C19 UNK     1      19.564  -4.866  36.613  1.00  0.00     0.034 C 
ENDBRANCH  18  19
ENDBRANCH  16  18
ENDBRANCH  14  16
ENDBRANCH  13  14
ENDBRANCH   9  13
BRANCH   5  21
HETATM   21  C9  UNK     1      19.167  -1.862  31.978  1.00  0.00     0.037 C 
HETATM   22  C14 UNK     1      20.125  -1.837  30.790  1.00  0.00     0.010 C 
ENDBRANCH   5  21
BRANCH   8  23
HETATM   23  C10 UNK     1      18.186   5.561  30.870  1.00  0.00     0.041 C 
HETATM   24  C15 UNK     1      19.554   6.142  30.582  1.00  0.00     0.010 C 
ENDBRANCH   8  23
TORSDOF 7
ENDMDL
MODEL 9
REMARK VINA RESULT:      -7.0      2.278      7.881
REMARK  7 active torsions:
REMARK  status: ('A' for Active; 'I' for Inactive)
REMARK    1  A    between atoms: C13_18  and  O2_2 
REMARK    2  A    between atoms: C7_12  and  O2_2 
REMARK    3  A    between atoms: C17_22  and  O4_4 
REMARK    4  A    between atoms: C18_23  and  O4_4 
REMARK    5  A    between atoms: C3_8  and  C9_14 
REMARK    6  A    between atoms: C10_15  and  C6_11 
REMARK    7  A    between atoms: C13_18  and  C17_22 
ROOT
HETATM    1  O1  UNK     1      15.545   7.614  33.128  1.00  0.00    -0.274 OA
HETATM    2  O3  UNK     1      13.849   9.096  33.407  1.00  0.00    -0.259 OA
HETATM    3  C1  UNK     1      17.855   8.328  33.391  1.00  0.00     0.005 A 
HETATM    4  C2  UNK     1      17.379   9.691  33.705  1.00  0.00    -0.037 A 
HETATM    5  C3  UNK     1      19.594   6.651  33.036  1.00  0.00    -0.024 A 
HETATM    6  C4  UNK     1      16.920   7.335  33.115  1.00  0.00     0.093 A 
HETATM    7  C5  UNK     1      19.210   7.963  33.341  1.00  0.00     0.024 A 
HETATM    8  C6  UNK     1      16.055   9.953  33.681  1.00  0.00     0.024 A 
HETATM    9  C7  UNK     1      18.632   5.680  32.772  1.00  0.00     0.079 A 
HETATM   10  C8  UNK     1      17.285   6.022  32.809  1.00  0.00     0.075 A 
HETATM   11  C11 UNK     1      15.057   8.882  33.397  1.00  0.00     0.295 A 
HETATM   12  C12 UNK     1      18.428  10.718  34.056  1.00  0.00     0.050 C 
ENDROOT
BRANCH   9  13
HETATM   13  O2  UNK     1      18.990   4.402  32.475  1.00  0.00    -0.336 OA
BRANCH  13  14
HETATM   14  C13 UNK     1      18.213   3.721  31.489  1.00  0.00     0.224 C 
HETATM   15  C16 UNK     1      18.861   3.952  30.135  1.00  0.00     0.051 C 
BRANCH  14  16
HETATM   16  C17 UNK     1      18.170   2.248  31.840  1.00  0.00     0.288 C 
HETATM   17  O5  UNK     1      18.659   1.357  31.156  1.00  0.00    -0.262 OA
BRANCH  16  18
HETATM   18  O4  UNK     1      17.531   2.078  33.035  1.00  0.00    -0.320 OA
BRANCH  18  19
HETATM   19  C18 UNK     1      18.249   1.324  34.017  1.00  0.00     0.174 C 
HETATM   20  C19 UNK     1      18.540   2.214  35.206  1.00  0.00     0.034 C 
ENDBRANCH  18  19
ENDBRANCH  16  18
ENDBRANCH  14  16
ENDBRANCH  13  14
ENDBRANCH   9  13
BRANCH   5  21
HETATM   21  C9  UNK     1      21.047   6.310  32.997  1.00  0.00     0.037 C 
HETATM   22  C14 UNK     1      21.552   6.088  31.574  1.00  0.00     0.010 C 
ENDBRANCH   5  21
BRANCH   8  23
HETATM   23  C10 UNK     1      15.440  11.310  33.918  1.00  0.00     0.041 C 
HETATM   24  C15 UNK     1      15.157  11.538  35.388  1.00  0.00     0.010 C 
ENDBRANCH   8  23
TORSDOF 7
ENDMDL
MODEL 10
REMARK VINA RESULT:      -6.9     22.661     24.672
REMARK  7 active torsions:
REMARK  status: ('A' for Active; 'I' for Inactive)
REMARK    1  A    between atoms: C13_18  and  O2_2 
REMARK    2  A    between atoms: C7_12  and  O2_2 
REMARK    3  A    between atoms: C17_22  and  O4_4 
REMARK    4  A    between atoms: C18_23  and  O4_4 
REMARK    5  A    between atoms: C3_8  and  C9_14 
REMARK    6  A    between atoms: C10_15  and  C6_11 
REMARK    7  A    between atoms: C13_18  and  C17_22 
ROOT
HETATM    1  O1  UNK     1      13.141   4.920   9.206  1.00  0.00    -0.274 OA
HETATM    2  O3  UNK     1      15.387   4.699   9.451  1.00  0.00    -0.259 OA
HETATM    3  C1  UNK     1      12.116   7.125   9.219  1.00  0.00     0.005 A 
HETATM    4  C2  UNK     1      13.454   7.727   9.395  1.00  0.00    -0.037 A 
HETATM    5  C3  UNK     1       9.689   7.235   8.980  1.00  0.00    -0.024 A 
HETATM    6  C4  UNK     1      12.006   5.741   9.129  1.00  0.00     0.093 A 
HETATM    7  C5  UNK     1      10.926   7.868   9.146  1.00  0.00     0.024 A 
HETATM    8  C6  UNK     1      14.534   6.923   9.501  1.00  0.00     0.024 A 
HETATM    9  C7  UNK     1       9.616   5.847   8.886  1.00  0.00     0.079 A 
HETATM   10  C8  UNK     1      10.780   5.093   8.962  1.00  0.00     0.075 A 
HETATM   11  C11 UNK     1      14.411   5.441   9.391  1.00  0.00     0.295 A 
HETATM   12  C12 UNK     1      13.528   9.234   9.427  1.00  0.00     0.050 C 
ENDROOT
BRANCH   9  13
HETATM   13  O2  UNK     1       8.420   5.219   8.723  1.00  0.00    -0.336 OA
BRANCH  13  14
HETATM   14  C13 UNK     1       7.984   4.366   9.782  1.00  0.00     0.224 C 
HETATM   15  C16 UNK     1       7.566   5.241  10.950  1.00  0.00     0.051 C 
BRANCH  14  16
HETATM   16  C17 UNK     1       6.831   3.522   9.281  1.00  0.00     0.288 C 
HETATM   17  O5  UNK     1       6.815   2.937   8.205  1.00  0.00    -0.262 OA
BRANCH  16  18
HETATM   18  O4  UNK     1       5.839   3.496  10.219  1.00  0.00    -0.320 OA
BRANCH  18  19
HETATM   19  C18 UNK     1       5.543   2.208  10.769  1.00  0.00     0.174 C 
HETATM   20  C19 UNK     1       5.283   2.353  12.253  1.00  0.00     0.034 C 
ENDBRANCH  18  19
ENDBRANCH  16  18
ENDBRANCH  14  16
ENDBRANCH  13  14
ENDBRANCH   9  13
BRANCH   5  21
HETATM   21  C9  UNK     1       8.451   8.067   8.906  1.00  0.00     0.037 C 
HETATM   22  C14 UNK     1       8.218   8.872  10.181  1.00  0.00     0.010 C 
ENDBRANCH   5  21
BRANCH   8  23
HETATM   23  C10 UNK     1      15.943   7.400   9.746  1.00  0.00     0.041 C 
HETATM   24  C15 UNK     1      16.177   7.701  11.211  1.00  0.00     0.010 C 
ENDBRANCH   8  23
TORSDOF 7
ENDMDL
