MODEL 1
REMARK VINA RESULT:      -8.6      0.000      0.000
REMARK  4 active torsions:
REMARK  status: ('A' for Active; 'I' for Inactive)
REMARK    1  A    between atoms: C7_12  and  O2_2 
REMARK    2  A    between atoms: C9_14  and  O4_4 
REMARK    3  A    between atoms: C11_16  and  O5_5 
REMARK    4  A    between atoms: C3_8  and  C4_9 
ROOT
HETATM    1  O1  UNK     1      18.029  -0.355  33.277  1.00  0.00    -0.309 OA
HETATM    2  O3  UNK     1      20.105  -2.526  36.030  1.00  0.00    -0.287 OA
HETATM    3  C1  UNK     1      18.260  -1.123  35.570  1.00  0.00     0.081 A 
HETATM    4  C2  UNK     1      17.596  -0.402  34.578  1.00  0.00     0.095 A 
HETATM    5  C3  UNK     1      19.179  -1.051  32.938  1.00  0.00     0.093 A 
HETATM    6  C5  UNK     1      19.475  -1.870  35.212  1.00  0.00     0.190 A 
HETATM    7  C6  UNK     1      19.900  -1.785  33.800  1.00  0.00     0.094 A 
HETATM    8  C7  UNK     1      17.773  -1.135  36.879  1.00  0.00     0.085 A 
HETATM    9  C8  UNK     1      16.440   0.313  34.890  1.00  0.00     0.075 A 
HETATM   10  C9  UNK     1      15.951   0.303  36.197  1.00  0.00     0.071 A 
HETATM   11  C10 UNK     1      16.616  -0.419  37.189  1.00  0.00     0.074 A 
ENDROOT
BRANCH   5  12
HETATM   12  C4  UNK     1      19.551  -0.937  31.513  1.00  0.00     0.031 A 
HETATM   13  C11 UNK     1      19.361   0.253  30.805  1.00  0.00     0.078 A 
HETATM   14  C13 UNK     1      19.721   0.335  29.459  1.00  0.00     0.037 A 
HETATM   15  C15 UNK     1      20.273  -0.773  28.816  1.00  0.00     0.003 A 
HETATM   16  C14 UNK     1      20.466  -1.963  29.518  1.00  0.00     0.001 A 
HETATM   17  C12 UNK     1      20.106  -2.045  30.864  1.00  0.00     0.017 A 
BRANCH  13  18
HETATM   18  O5  UNK     1      18.822   1.351  31.409  1.00  0.00    -0.360 OA
HETATM   19  H10 UNK     1      18.943   1.277  32.370  1.00  0.00     0.217 HD
ENDBRANCH  13  18
ENDBRANCH   5  12
BRANCH   8  20
HETATM   20  O2  UNK     1      18.384  -1.824  37.882  1.00  0.00    -0.360 OA
HETATM   21  H8  UNK     1      17.751  -2.405  38.331  1.00  0.00     0.217 HD
ENDBRANCH   8  20
BRANCH  10  22
HETATM   22  O4  UNK     1      14.822   0.999  36.505  1.00  0.00    -0.361 OA
HETATM   23  H9  UNK     1      14.156   0.383  36.853  1.00  0.00     0.217 HD
ENDBRANCH  10  22
TORSDOF 4
ENDMDL
MODEL 2
REMARK VINA RESULT:      -8.6     13.594     17.112
REMARK  4 active torsions:
REMARK  status: ('A' for Active; 'I' for Inactive)
REMARK    1  A    between atoms: C7_12  and  O2_2 
REMARK    2  A    between atoms: C9_14  and  O4_4 
REMARK    3  A    between atoms: C11_16  and  O5_5 
REMARK    4  A    between atoms: C3_8  and  C4_9 
ROOT
HETATM    1  O1  UNK     1      19.180  -1.101  17.598  1.00  0.00    -0.309 OA
HETATM    2  O3  UNK     1      19.151   2.312  15.372  1.00  0.00    -0.287 OA
HETATM    3  C1  UNK     1      19.131   1.327  17.519  1.00  0.00     0.081 A 
HETATM    4  C2  UNK     1      19.145   0.122  18.220  1.00  0.00     0.095 A 
HETATM    5  C3  UNK     1      19.198  -1.135  16.212  1.00  0.00     0.093 A 
HETATM    6  C5  UNK     1      19.158   1.294  16.050  1.00  0.00     0.190 A 
HETATM    7  C6  UNK     1      19.194  -0.046  15.428  1.00  0.00     0.094 A 
HETATM    8  C7  UNK     1      19.095   2.543  18.207  1.00  0.00     0.085 A 
HETATM    9  C8  UNK     1      19.121   0.125  19.615  1.00  0.00     0.075 A 
HETATM   10  C9  UNK     1      19.084   1.338  20.304  1.00  0.00     0.071 A 
HETATM   11  C10 UNK     1      19.071   2.543  19.602  1.00  0.00     0.074 A 
ENDROOT
BRANCH   5  12
HETATM   12  C4  UNK     1      19.242  -2.499  15.647  1.00  0.00     0.031 A 
HETATM   13  C11 UNK     1      20.314  -3.359  15.905  1.00  0.00     0.078 A 
HETATM   14  C13 UNK     1      20.333  -4.643  15.359  1.00  0.00     0.037 A 
HETATM   15  C15 UNK     1      19.278  -5.073  14.553  1.00  0.00     0.003 A 
HETATM   16  C14 UNK     1      18.206  -4.220  14.293  1.00  0.00     0.001 A 
HETATM   17  C12 UNK     1      18.187  -2.936  14.839  1.00  0.00     0.017 A 
BRANCH  13  18
HETATM   18  O5  UNK     1      21.358  -2.963  16.688  1.00  0.00    -0.360 OA
HETATM   19  H10 UNK     1      21.683  -3.726  17.195  1.00  0.00     0.217 HD
ENDBRANCH  13  18
ENDBRANCH   5  12
BRANCH   8  20
HETATM   20  O2  UNK     1      19.081   3.746  17.568  1.00  0.00    -0.360 OA
HETATM   21  H8  UNK     1      19.612   4.395  18.054  1.00  0.00     0.217 HD
ENDBRANCH   8  20
BRANCH  10  22
HETATM   22  O4  UNK     1      19.063   1.344  21.666  1.00  0.00    -0.361 OA
HETATM   23  H9  UNK     1      18.395   0.708  21.974  1.00  0.00     0.217 HD
ENDBRANCH  10  22
TORSDOF 4
ENDMDL
MODEL 3
REMARK VINA RESULT:      -8.5     25.249     27.211
REMARK  4 active torsions:
REMARK  status: ('A' for Active; 'I' for Inactive)
REMARK    1  A    between atoms: C7_12  and  O2_2 
REMARK    2  A    between atoms: C9_14  and  O4_4 
REMARK    3  A    between atoms: C11_16  and  O5_5 
REMARK    4  A    between atoms: C3_8  and  C4_9 
ROOT
HETATM    1  O1  UNK     1      13.093   7.805   8.428  1.00  0.00    -0.309 OA
HETATM    2  O3  UNK     1      15.502   4.705   9.516  1.00  0.00    -0.287 OA
HETATM    3  C1  UNK     1      15.207   7.043   9.351  1.00  0.00     0.081 A 
HETATM    4  C2  UNK     1      14.333   8.057   8.960  1.00  0.00     0.095 A 
HETATM    5  C3  UNK     1      12.698   6.486   8.269  1.00  0.00     0.093 A 
HETATM    6  C5  UNK     1      14.788   5.643   9.192  1.00  0.00     0.190 A 
HETATM    7  C6  UNK     1      13.446   5.426   8.612  1.00  0.00     0.094 A 
HETATM    8  C7  UNK     1      16.458   7.359   9.887  1.00  0.00     0.085 A 
HETATM    9  C8  UNK     1      14.706   9.394   9.103  1.00  0.00     0.075 A 
HETATM   10  C9  UNK     1      15.955   9.711   9.637  1.00  0.00     0.071 A 
HETATM   11  C10 UNK     1      16.828   8.697  10.029  1.00  0.00     0.074 A 
ENDROOT
BRANCH   5  12
HETATM   12  C4  UNK     1      11.347   6.330   7.694  1.00  0.00     0.031 A 
HETATM   13  C11 UNK     1      11.152   6.210   6.315  1.00  0.00     0.078 A 
HETATM   14  C13 UNK     1       9.865   6.064   5.796  1.00  0.00     0.037 A 
HETATM   15  C15 UNK     1       8.767   6.036   6.656  1.00  0.00     0.003 A 
HETATM   16  C14 UNK     1       8.954   6.155   8.033  1.00  0.00     0.001 A 
HETATM   17  C12 UNK     1      10.242   6.301   8.551  1.00  0.00     0.017 A 
BRANCH  13  18
HETATM   18  O5  UNK     1      12.209   6.235   5.452  1.00  0.00    -0.360 OA
HETATM   19  H10 UNK     1      12.571   5.337   5.366  1.00  0.00     0.217 HD
ENDBRANCH  13  18
ENDBRANCH   5  12
BRANCH   8  20
HETATM   20  O2  UNK     1      17.346   6.406  10.285  1.00  0.00    -0.360 OA
HETATM   21  H8  UNK     1      18.254   6.740  10.224  1.00  0.00     0.217 HD
ENDBRANCH   8  20
BRANCH  10  22
HETATM   22  O4  UNK     1      16.320  11.015   9.779  1.00  0.00    -0.361 OA
HETATM   23  H9  UNK     1      15.835  11.551   9.129  1.00  0.00     0.217 HD
ENDBRANCH  10  22
TORSDOF 4
ENDMDL
MODEL 4
REMARK VINA RESULT:      -8.4      2.027      6.715
REMARK  4 active torsions:
REMARK  status: ('A' for Active; 'I' for Inactive)
REMARK    1  A    between atoms: C7_12  and  O2_2 
REMARK    2  A    between atoms: C9_14  and  O4_4 
REMARK    3  A    between atoms: C11_16  and  O5_5 
REMARK    4  A    between atoms: C3_8  and  C4_9 
ROOT
HETATM    1  O1  UNK     1      18.893  -0.291  33.244  1.00  0.00    -0.309 OA
HETATM    2  O3  UNK     1      18.629   2.750  30.545  1.00  0.00    -0.287 OA
HETATM    3  C1  UNK     1      19.287   0.524  30.989  1.00  0.00     0.081 A 
HETATM    4  C2  UNK     1      19.345  -0.474  31.961  1.00  0.00     0.095 A 
HETATM    5  C3  UNK     1      18.360   0.942  33.586  1.00  0.00     0.093 A 
HETATM    6  C5  UNK     1      18.714   1.830  31.347  1.00  0.00     0.190 A 
HETATM    7  C6  UNK     1      18.244   1.977  32.740  1.00  0.00     0.094 A 
HETATM    8  C7  UNK     1      19.763   0.281  29.699  1.00  0.00     0.085 A 
HETATM    9  C8  UNK     1      19.881  -1.723  31.647  1.00  0.00     0.075 A 
HETATM   10  C9  UNK     1      20.358  -1.968  30.359  1.00  0.00     0.071 A 
HETATM   11  C10 UNK     1      20.299  -0.969  29.387  1.00  0.00     0.074 A 
ENDROOT
BRANCH   5  12
HETATM   12  C4  UNK     1      17.899   1.027  34.986  1.00  0.00     0.031 A 
HETATM   13  C11 UNK     1      16.733   0.381  35.409  1.00  0.00     0.078 A 
HETATM   14  C13 UNK     1      16.317   0.478  36.738  1.00  0.00     0.037 A 
HETATM   15  C15 UNK     1      17.067   1.220  37.650  1.00  0.00     0.003 A 
HETATM   16  C14 UNK     1      18.231   1.867  37.234  1.00  0.00     0.001 A 
HETATM   17  C12 UNK     1      18.646   1.770  35.906  1.00  0.00     0.017 A 
BRANCH  13  18
HETATM   18  O5  UNK     1      15.981  -0.351  34.537  1.00  0.00    -0.360 OA
HETATM   19  H10 UNK     1      16.375  -1.234  34.440  1.00  0.00     0.217 HD
ENDBRANCH  13  18
ENDBRANCH   5  12
BRANCH   8  20
HETATM   20  O2  UNK     1      19.727   1.223  28.715  1.00  0.00    -0.360 OA
HETATM   21  H8  UNK     1      20.382   1.023  28.029  1.00  0.00     0.217 HD
ENDBRANCH   8  20
BRANCH  10  22
HETATM   22  O4  UNK     1      20.881  -3.187  30.050  1.00  0.00    -0.361 OA
HETATM   23  H9  UNK     1      20.953  -3.715  30.863  1.00  0.00     0.217 HD
ENDBRANCH  10  22
TORSDOF 4
ENDMDL
MODEL 5
REMARK VINA RESULT:      -8.1     25.206     27.067
REMARK  4 active torsions:
REMARK  status: ('A' for Active; 'I' for Inactive)
REMARK    1  A    between atoms: C7_12  and  O2_2 
REMARK    2  A    between atoms: C9_14  and  O4_4 
REMARK    3  A    between atoms: C11_16  and  O5_5 
REMARK    4  A    between atoms: C3_8  and  C4_9 
ROOT
HETATM    1  O1  UNK     1      13.151   8.026   8.555  1.00  0.00    -0.309 OA
HETATM    2  O3  UNK     1      15.673   4.899   9.235  1.00  0.00    -0.287 OA
HETATM    3  C1  UNK     1      15.280   7.223   9.406  1.00  0.00     0.081 A 
HETATM    4  C2  UNK     1      14.369   8.246   9.147  1.00  0.00     0.095 A 
HETATM    5  C3  UNK     1      12.816   6.729   8.196  1.00  0.00     0.093 A 
HETATM    6  C5  UNK     1      14.924   5.845   9.034  1.00  0.00     0.190 A 
HETATM    7  C6  UNK     1      13.604   5.662   8.399  1.00  0.00     0.094 A 
HETATM    8  C7  UNK     1      16.507   7.506  10.011  1.00  0.00     0.085 A 
HETATM    9  C8  UNK     1      14.681   9.562   9.491  1.00  0.00     0.075 A 
HETATM   10  C9  UNK     1      15.906   9.848  10.095  1.00  0.00     0.071 A 
HETATM   11  C10 UNK     1      16.816   8.823  10.355  1.00  0.00     0.074 A 
ENDROOT
BRANCH   5  12
HETATM   12  C4  UNK     1      11.483   6.605   7.574  1.00  0.00     0.031 A 
HETATM   13  C11 UNK     1      10.316   6.889   8.291  1.00  0.00     0.078 A 
HETATM   14  C13 UNK     1       9.068   6.763   7.681  1.00  0.00     0.037 A 
HETATM   15  C15 UNK     1       8.980   6.353   6.351  1.00  0.00     0.003 A 
HETATM   16  C14 UNK     1      10.140   6.069   5.630  1.00  0.00     0.001 A 
HETATM   17  C12 UNK     1      11.389   6.195   6.240  1.00  0.00     0.017 A 
BRANCH  13  18
HETATM   18  O5  UNK     1      10.373   7.290   9.594  1.00  0.00    -0.360 OA
HETATM   19  H10 UNK     1      11.040   6.761  10.062  1.00  0.00     0.217 HD
ENDBRANCH  13  18
ENDBRANCH   5  12
BRANCH   8  20
HETATM   20  O2  UNK     1      17.429   6.542  10.285  1.00  0.00    -0.360 OA
HETATM   21  H8  UNK     1      17.152   6.015  11.050  1.00  0.00     0.217 HD
ENDBRANCH   8  20
BRANCH  10  22
HETATM   22  O4  UNK     1      16.212  11.131  10.433  1.00  0.00    -0.361 OA
HETATM   23  H9  UNK     1      17.177  11.247  10.391  1.00  0.00     0.217 HD
ENDBRANCH  10  22
TORSDOF 4
ENDMDL
MODEL 6
REMARK VINA RESULT:      -8.1     15.795     19.275
REMARK  4 active torsions:
REMARK  status: ('A' for Active; 'I' for Inactive)
REMARK    1  A    between atoms: C7_12  and  O2_2 
REMARK    2  A    between atoms: C9_14  and  O4_4 
REMARK    3  A    between atoms: C11_16  and  O5_5 
REMARK    4  A    between atoms: C3_8  and  C4_9 
ROOT
HETATM    1  O1  UNK     1      19.450  -0.319  15.006  1.00  0.00    -0.309 OA
HETATM    2  O3  UNK     1      17.599  -3.844  15.872  1.00  0.00    -0.287 OA
HETATM    3  C1  UNK     1      18.757  -2.532  14.284  1.00  0.00     0.081 A 
HETATM    4  C2  UNK     1      19.378  -1.305  14.054  1.00  0.00     0.095 A 
HETATM    5  C3  UNK     1      18.878  -0.555  16.246  1.00  0.00     0.093 A 
HETATM    6  C5  UNK     1      18.156  -2.789  15.601  1.00  0.00     0.190 A 
HETATM    7  C6  UNK     1      18.260  -1.696  16.589  1.00  0.00     0.094 A 
HETATM    8  C7  UNK     1      18.713  -3.500  13.277  1.00  0.00     0.085 A 
HETATM    9  C8  UNK     1      19.957  -1.037  12.814  1.00  0.00     0.075 A 
HETATM   10  C9  UNK     1      19.914  -2.001  11.807  1.00  0.00     0.071 A 
HETATM   11  C10 UNK     1      19.294  -3.230  12.037  1.00  0.00     0.074 A 
ENDROOT
BRANCH   5  12
HETATM   12  C4  UNK     1      19.019   0.568  17.195  1.00  0.00     0.031 A 
HETATM   13  C11 UNK     1      19.124   1.889  16.749  1.00  0.00     0.078 A 
HETATM   14  C13 UNK     1      19.257   2.933  17.665  1.00  0.00     0.037 A 
HETATM   15  C15 UNK     1      19.285   2.660  19.033  1.00  0.00     0.003 A 
HETATM   16  C14 UNK     1      19.180   1.344  19.484  1.00  0.00     0.001 A 
HETATM   17  C12 UNK     1      19.047   0.300  18.568  1.00  0.00     0.017 A 
BRANCH  13  18
HETATM   18  O5  UNK     1      19.100   2.184  15.417  1.00  0.00    -0.360 OA
HETATM   19  H10 UNK     1      19.781   2.851  15.226  1.00  0.00     0.217 HD
ENDBRANCH  13  18
ENDBRANCH   5  12
BRANCH   8  20
HETATM   20  O2  UNK     1      18.120  -4.714  13.452  1.00  0.00    -0.360 OA
HETATM   21  H8  UNK     1      17.561  -4.708  14.244  1.00  0.00     0.217 HD
ENDBRANCH   8  20
BRANCH  10  22
HETATM   22  O4  UNK     1      20.480  -1.743  10.596  1.00  0.00    -0.361 OA
HETATM   23  H9  UNK     1      20.383  -2.527  10.028  1.00  0.00     0.217 HD
ENDBRANCH  10  22
TORSDOF 4
ENDMDL
MODEL 7
REMARK VINA RESULT:      -8.1     25.752     27.827
REMARK  4 active torsions:
REMARK  status: ('A' for Active; 'I' for Inactive)
REMARK    1  A    between atoms: C7_12  and  O2_2 
REMARK    2  A    between atoms: C9_14  and  O4_4 
REMARK    3  A    between atoms: C11_16  and  O5_5 
REMARK    4  A    between atoms: C3_8  and  C4_9 
ROOT
HETATM    1  O1  UNK     1       9.704   5.612   9.706  1.00  0.00    -0.309 OA
HETATM    2  O3  UNK     1       9.380   6.472   5.737  1.00  0.00    -0.287 OA
HETATM    3  C1  UNK     1      10.789   5.939   7.558  1.00  0.00     0.081 A 
HETATM    4  C2  UNK     1      10.828   5.649   8.921  1.00  0.00     0.095 A 
HETATM    5  C3  UNK     1       8.478   5.880   9.117  1.00  0.00     0.093 A 
HETATM    6  C5  UNK     1       9.489   6.214   6.928  1.00  0.00     0.190 A 
HETATM    7  C6  UNK     1       8.310   6.164   7.816  1.00  0.00     0.094 A 
HETATM    8  C7  UNK     1      11.967   5.963   6.807  1.00  0.00     0.085 A 
HETATM    9  C8  UNK     1      12.048   5.382   9.542  1.00  0.00     0.075 A 
HETATM   10  C9  UNK     1      13.226   5.406   8.795  1.00  0.00     0.071 A 
HETATM   11  C10 UNK     1      13.186   5.695   7.431  1.00  0.00     0.074 A 
ENDROOT
BRANCH   5  12
HETATM   12  C4  UNK     1       7.335   5.807  10.050  1.00  0.00     0.031 A 
HETATM   13  C11 UNK     1       7.015   4.620  10.716  1.00  0.00     0.078 A 
HETATM   14  C13 UNK     1       5.930   4.576  11.593  1.00  0.00     0.037 A 
HETATM   15  C15 UNK     1       5.162   5.720  11.808  1.00  0.00     0.003 A 
HETATM   16  C14 UNK     1       5.477   6.907  11.147  1.00  0.00     0.001 A 
HETATM   17  C12 UNK     1       6.562   6.951  10.270  1.00  0.00     0.017 A 
BRANCH  13  18
HETATM   18  O5  UNK     1       7.749   3.486  10.523  1.00  0.00    -0.360 OA
HETATM   19  H10 UNK     1       8.373   3.381  11.260  1.00  0.00     0.217 HD
ENDBRANCH  13  18
ENDBRANCH   5  12
BRANCH   8  20
HETATM   20  O2  UNK     1      11.980   6.239   5.473  1.00  0.00    -0.360 OA
HETATM   21  H8  UNK     1      12.821   5.965   5.077  1.00  0.00     0.217 HD
ENDBRANCH   8  20
BRANCH  10  22
HETATM   22  O4  UNK     1      14.418   5.145   9.399  1.00  0.00    -0.361 OA
HETATM   23  H9  UNK     1      14.298   5.181  10.364  1.00  0.00     0.217 HD
ENDBRANCH  10  22
TORSDOF 4
ENDMDL
MODEL 8
REMARK VINA RESULT:      -8.0      1.966      6.805
REMARK  4 active torsions:
REMARK  status: ('A' for Active; 'I' for Inactive)
REMARK    1  A    between atoms: C7_12  and  O2_2 
REMARK    2  A    between atoms: C9_14  and  O4_4 
REMARK    3  A    between atoms: C11_16  and  O5_5 
REMARK    4  A    between atoms: C3_8  and  C4_9 
ROOT
HETATM    1  O1  UNK     1      18.972   0.021  33.249  1.00  0.00    -0.309 OA
HETATM    2  O3  UNK     1      17.818   3.500  31.469  1.00  0.00    -0.287 OA
HETATM    3  C1  UNK     1      18.843   1.383  31.241  1.00  0.00     0.081 A 
HETATM    4  C2  UNK     1      19.209   0.217  31.911  1.00  0.00     0.095 A 
HETATM    5  C3  UNK     1      18.345   1.031  33.962  1.00  0.00     0.093 A 
HETATM    6  C5  UNK     1      18.170   2.452  31.993  1.00  0.00     0.190 A 
HETATM    7  C6  UNK     1      17.939   2.194  33.429  1.00  0.00     0.094 A 
HETATM    8  C7  UNK     1      19.110   1.527  29.877  1.00  0.00     0.085 A 
HETATM    9  C8  UNK     1      19.847  -0.814  31.221  1.00  0.00     0.075 A 
HETATM   10  C9  UNK     1      20.116  -0.673  29.859  1.00  0.00     0.071 A 
HETATM   11  C10 UNK     1      19.749   0.494  29.189  1.00  0.00     0.074 A 
ENDROOT
BRANCH   5  12
HETATM   12  C4  UNK     1      18.132   0.714  35.389  1.00  0.00     0.031 A 
HETATM   13  C11 UNK     1      18.072  -0.608  35.839  1.00  0.00     0.078 A 
HETATM   14  C13 UNK     1      17.871  -0.882  37.193  1.00  0.00     0.037 A 
HETATM   15  C15 UNK     1      17.729   0.166  38.102  1.00  0.00     0.003 A 
HETATM   16  C14 UNK     1      17.788   1.488  37.659  1.00  0.00     0.001 A 
HETATM   17  C12 UNK     1      17.990   1.761  36.305  1.00  0.00     0.017 A 
BRANCH  13  18
HETATM   18  O5  UNK     1      18.207  -1.652  34.971  1.00  0.00    -0.360 OA
HETATM   19  H10 UNK     1      17.705  -1.460  34.161  1.00  0.00     0.217 HD
ENDBRANCH  13  18
ENDBRANCH   5  12
BRANCH   8  20
HETATM   20  O2  UNK     1      18.772   2.646  29.178  1.00  0.00    -0.360 OA
HETATM   21  H8  UNK     1      18.137   3.180  29.678  1.00  0.00     0.217 HD
ENDBRANCH   8  20
BRANCH  10  22
HETATM   22  O4  UNK     1      20.738  -1.678  29.182  1.00  0.00    -0.361 OA
HETATM   23  H9  UNK     1      20.269  -2.512  29.356  1.00  0.00     0.217 HD
ENDBRANCH  10  22
TORSDOF 4
ENDMDL
MODEL 9
REMARK VINA RESULT:      -8.0      2.053      6.032
REMARK  4 active torsions:
REMARK  status: ('A' for Active; 'I' for Inactive)
REMARK    1  A    between atoms: C7_12  and  O2_2 
REMARK    2  A    between atoms: C9_14  and  O4_4 
REMARK    3  A    between atoms: C11_16  and  O5_5 
REMARK    4  A    between atoms: C3_8  and  C4_9 
ROOT
HETATM    1  O1  UNK     1      18.883  -0.037  33.129  1.00  0.00    -0.309 OA
HETATM    2  O3  UNK     1      20.904  -3.556  32.757  1.00  0.00    -0.287 OA
HETATM    3  C1  UNK     1      20.027  -1.633  31.699  1.00  0.00     0.081 A 
HETATM    4  C2  UNK     1      19.332  -0.441  31.897  1.00  0.00     0.095 A 
HETATM    5  C3  UNK     1      19.129  -0.855  34.222  1.00  0.00     0.093 A 
HETATM    6  C5  UNK     1      20.297  -2.498  32.857  1.00  0.00     0.190 A 
HETATM    7  C6  UNK     1      19.791  -2.020  34.160  1.00  0.00     0.094 A 
HETATM    8  C7  UNK     1      20.461  -1.994  30.421  1.00  0.00     0.085 A 
HETATM    9  C8  UNK     1      19.065   0.399  30.816  1.00  0.00     0.075 A 
HETATM   10  C9  UNK     1      19.496   0.041  29.538  1.00  0.00     0.071 A 
HETATM   11  C10 UNK     1      20.193  -1.152  29.341  1.00  0.00     0.074 A 
ENDROOT
BRANCH   5  12
HETATM   12  C4  UNK     1      18.609  -0.323  35.498  1.00  0.00     0.031 A 
HETATM   13  C11 UNK     1      18.573   1.052  35.752  1.00  0.00     0.078 A 
HETATM   14  C13 UNK     1      18.077   1.529  36.965  1.00  0.00     0.037 A 
HETATM   15  C15 UNK     1      17.614   0.635  37.930  1.00  0.00     0.003 A 
HETATM   16  C14 UNK     1      17.647  -0.738  37.682  1.00  0.00     0.001 A 
HETATM   17  C12 UNK     1      18.142  -1.216  36.468  1.00  0.00     0.017 A 
BRANCH  13  18
HETATM   18  O5  UNK     1      19.020   1.948  34.826  1.00  0.00    -0.360 OA
HETATM   19  H10 UNK     1      19.852   1.624  34.444  1.00  0.00     0.217 HD
ENDBRANCH  13  18
ENDBRANCH   5  12
BRANCH   8  20
HETATM   20  O2  UNK     1      21.144  -3.146  30.177  1.00  0.00    -0.360 OA
HETATM   21  H8  UNK     1      22.006  -2.953  29.778  1.00  0.00     0.217 HD
ENDBRANCH   8  20
BRANCH  10  22
HETATM   22  O4  UNK     1      19.238   0.859  28.481  1.00  0.00    -0.361 OA
HETATM   23  H9  UNK     1      19.998   0.842  27.875  1.00  0.00     0.217 HD
ENDBRANCH  10  22
TORSDOF 4
ENDMDL
MODEL 10
REMARK VINA RESULT:      -7.9      4.324      6.510
REMARK  4 active torsions:
REMARK  status: ('A' for Active; 'I' for Inactive)
REMARK    1  A    between atoms: C7_12  and  O2_2 
REMARK    2  A    between atoms: C9_14  and  O4_4 
REMARK    3  A    between atoms: C11_16  and  O5_5 
REMARK    4  A    between atoms: C3_8  and  C4_9 
ROOT
HETATM    1  O1  UNK     1      18.035   3.049  33.391  1.00  0.00    -0.309 OA
HETATM    2  O3  UNK     1      19.131   2.030  29.602  1.00  0.00    -0.287 OA
HETATM    3  C1  UNK     1      18.691   1.323  31.813  1.00  0.00     0.081 A 
HETATM    4  C2  UNK     1      18.309   1.739  33.088  1.00  0.00     0.095 A 
HETATM    5  C3  UNK     1      18.148   3.998  32.387  1.00  0.00     0.093 A 
HETATM    6  C5  UNK     1      18.804   2.325  30.743  1.00  0.00     0.190 A 
HETATM    7  C6  UNK     1      18.501   3.720  31.122  1.00  0.00     0.094 A 
HETATM    8  C7  UNK     1      18.959  -0.025  31.562  1.00  0.00     0.085 A 
HETATM    9  C8  UNK     1      18.192   0.808  34.120  1.00  0.00     0.075 A 
HETATM   10  C9  UNK     1      18.459  -0.538  33.872  1.00  0.00     0.071 A 
HETATM   11  C10 UNK     1      18.841  -0.954  32.596  1.00  0.00     0.074 A 
ENDROOT
BRANCH   5  12
HETATM   12  C4  UNK     1      17.824   5.372  32.820  1.00  0.00     0.031 A 
HETATM   13  C11 UNK     1      18.524   5.990  33.861  1.00  0.00     0.078 A 
HETATM   14  C13 UNK     1      18.198   7.289  34.252  1.00  0.00     0.037 A 
HETATM   15  C15 UNK     1      17.173   7.976  33.603  1.00  0.00     0.003 A 
HETATM   16  C14 UNK     1      16.472   7.365  32.563  1.00  0.00     0.001 A 
HETATM   17  C12 UNK     1      16.797   6.066  32.172  1.00  0.00     0.017 A 
BRANCH  13  18
HETATM   18  O5  UNK     1      19.530   5.340  34.513  1.00  0.00    -0.360 OA
HETATM   19  H10 UNK     1      20.366   5.493  34.041  1.00  0.00     0.217 HD
ENDBRANCH  13  18
ENDBRANCH   5  12
BRANCH   8  20
HETATM   20  O2  UNK     1      19.334  -0.481  30.335  1.00  0.00    -0.360 OA
HETATM   21  H8  UNK     1      18.735  -0.148  29.650  1.00  0.00     0.217 HD
ENDBRANCH   8  20
BRANCH  10  22
HETATM   22  O4  UNK     1      18.345  -1.449  34.878  1.00  0.00    -0.361 OA
HETATM   23  H9  UNK     1      17.404  -1.567  35.092  1.00  0.00     0.217 HD
ENDBRANCH  10  22
TORSDOF 4
ENDMDL
