MODEL 1
REMARK VINA RESULT:      -7.4      0.000      0.000
REMARK  3 active torsions:
REMARK  status: ('A' for Active; 'I' for Inactive)
REMARK    1  A    between atoms: C5_8  and  N1_2 
REMARK    2  A    between atoms: C12_15  and  C9_12 
REMARK    3  A    between atoms: C13_16  and  C14_17 
ROOT
HETATM    1  N2  UNK     1      29.386  -3.677  39.953  1.00  0.00    -0.191 NA
HETATM    2  C12 UNK     1      31.907  -4.877  37.958  1.00  0.00     0.035 C 
HETATM    3  C13 UNK     1      30.634  -5.176  38.247  1.00  0.00     0.055 C 
HETATM    4  C17 UNK     1      29.946  -4.347  39.188  1.00  0.00     0.100 C 
ENDROOT
BRANCH   3   5
HETATM    5  C14 UNK     1      29.889  -6.296  37.637  1.00  0.00    -0.015 A 
HETATM    6  C15 UNK     1      29.354  -6.141  36.370  1.00  0.00     0.014 A 
HETATM    7  C18 UNK     1      28.650  -7.199  35.796  1.00  0.00     0.024 A 
HETATM    8  C20 UNK     1      28.493  -8.395  36.495  1.00  0.00     0.034 A 
HETATM    9  C19 UNK     1      29.039  -8.533  37.771  1.00  0.00     0.024 A 
HETATM   10 Cl1  UNK     1      27.624  -9.700  35.785  1.00  0.00    -0.084 Cl
HETATM   11  C16 UNK     1      29.743  -7.475  38.347  1.00  0.00     0.014 A 
ENDBRANCH   3   5
BRANCH   2  12
HETATM   12  C9  UNK     1      32.801  -5.586  37.052  1.00  0.00    -0.029 A 
HETATM   13  C10 UNK     1      33.489  -6.702  37.528  1.00  0.00     0.014 A 
HETATM   14  C7  UNK     1      34.352  -7.401  36.685  1.00  0.00     0.030 A 
HETATM   15  C5  UNK     1      34.562  -7.012  35.331  1.00  0.00     0.030 A 
HETATM   16  C6  UNK     1      33.839  -5.869  34.889  1.00  0.00     0.037 A 
HETATM   17  C8  UNK     1      32.975  -5.169  35.732  1.00  0.00    -0.050 A 
HETATM   18  C11 UNK     1      32.255  -3.978  35.188  1.00  0.00     0.049 C 
BRANCH  15  19
HETATM   19  N1  UNK     1      35.416  -7.703  34.499  1.00  0.00    -0.381 N 
HETATM   20  C3  UNK     1      34.980  -8.678  33.502  1.00  0.00     0.123 C 
HETATM   21  C1  UNK     1      36.230  -8.918  32.657  1.00  0.00     0.021 C 
HETATM   22  C2  UNK     1      37.361  -8.715  33.651  1.00  0.00     0.021 C 
HETATM   23  C4  UNK     1      36.869  -7.549  34.504  1.00  0.00     0.123 C 
ENDBRANCH  15  19
ENDBRANCH   2  12
TORSDOF 3
ENDMDL
MODEL 2
REMARK VINA RESULT:      -7.3      4.097      7.245
REMARK  3 active torsions:
REMARK  status: ('A' for Active; 'I' for Inactive)
REMARK    1  A    between atoms: C5_8  and  N1_2 
REMARK    2  A    between atoms: C12_15  and  C9_12 
REMARK    3  A    between atoms: C13_16  and  C14_17 
ROOT
HETATM    1  N2  UNK     1      32.530  -9.517  28.983  1.00  0.00    -0.191 NA
HETATM    2  C12 UNK     1      31.956  -8.242  32.116  1.00  0.00     0.035 C 
HETATM    3  C13 UNK     1      31.304  -8.363  30.953  1.00  0.00     0.055 C 
HETATM    4  C17 UNK     1      31.982  -9.001  29.867  1.00  0.00     0.100 C 
ENDROOT
BRANCH   3   5
HETATM    5  C14 UNK     1      29.920  -7.898  30.728  1.00  0.00    -0.015 A 
HETATM    6  C15 UNK     1      29.694  -6.563  30.447  1.00  0.00     0.014 A 
HETATM    7  C18 UNK     1      28.386  -6.124  30.236  1.00  0.00     0.024 A 
HETATM    8  C20 UNK     1      27.327  -7.027  30.311  1.00  0.00     0.034 A 
HETATM    9  C19 UNK     1      27.574  -8.370  30.597  1.00  0.00     0.024 A 
HETATM   10 Cl1  UNK     1      25.714  -6.486  30.051  1.00  0.00    -0.084 Cl
HETATM   11  C16 UNK     1      28.882  -8.809  30.808  1.00  0.00     0.014 A 
ENDBRANCH   3   5
BRANCH   2  12
HETATM   12  C9  UNK     1      31.474  -7.617  33.341  1.00  0.00    -0.029 A 
HETATM   13  C10 UNK     1      31.745  -6.265  33.553  1.00  0.00     0.014 A 
HETATM   14  C7  UNK     1      31.298  -5.639  34.717  1.00  0.00     0.030 A 
HETATM   15  C5  UNK     1      30.563  -6.340  35.715  1.00  0.00     0.030 A 
HETATM   16  C6  UNK     1      30.311  -7.716  35.456  1.00  0.00     0.037 A 
HETATM   17  C8  UNK     1      30.757  -8.342  34.292  1.00  0.00    -0.050 A 
HETATM   18  C11 UNK     1      30.450  -9.792  34.099  1.00  0.00     0.049 C 
BRANCH  15  19
HETATM   19  N1  UNK     1      30.122  -5.720  36.865  1.00  0.00    -0.381 N 
HETATM   20  C3  UNK     1      28.971  -6.164  37.646  1.00  0.00     0.123 C 
HETATM   21  C1  UNK     1      29.084  -5.366  38.945  1.00  0.00     0.021 C 
HETATM   22  C2  UNK     1      29.742  -4.072  38.498  1.00  0.00     0.021 C 
HETATM   23  C4  UNK     1      30.750  -4.539  37.451  1.00  0.00     0.123 C 
ENDBRANCH  15  19
ENDBRANCH   2  12
TORSDOF 3
ENDMDL
MODEL 3
REMARK VINA RESULT:      -7.1      3.931      7.144
REMARK  3 active torsions:
REMARK  status: ('A' for Active; 'I' for Inactive)
REMARK    1  A    between atoms: C5_8  and  N1_2 
REMARK    2  A    between atoms: C12_15  and  C9_12 
REMARK    3  A    between atoms: C13_16  and  C14_17 
ROOT
HETATM    1  N2  UNK     1      33.439  -8.451  29.033  1.00  0.00    -0.191 NA
HETATM    2  C12 UNK     1      32.621  -7.528  32.235  1.00  0.00     0.035 C 
HETATM    3  C13 UNK     1      32.013  -7.670  31.050  1.00  0.00     0.055 C 
HETATM    4  C17 UNK     1      32.802  -8.102  29.938  1.00  0.00     0.100 C 
ENDROOT
BRANCH   3   5
HETATM    5  C14 UNK     1      30.573  -7.430  30.827  1.00  0.00    -0.015 A 
HETATM    6  C15 UNK     1      29.704  -8.507  30.803  1.00  0.00     0.014 A 
HETATM    7  C18 UNK     1      28.345  -8.279  30.591  1.00  0.00     0.024 A 
HETATM    8  C20 UNK     1      27.875  -6.980  30.407  1.00  0.00     0.034 A 
HETATM    9  C19 UNK     1      28.765  -5.907  30.433  1.00  0.00     0.024 A 
HETATM   10 Cl1  UNK     1      26.197  -6.699  30.145  1.00  0.00    -0.084 Cl
HETATM   11  C16 UNK     1      30.126  -6.133  30.645  1.00  0.00     0.014 A 
ENDBRANCH   3   5
BRANCH   2  12
HETATM   12  C9  UNK     1      32.027  -7.085  33.490  1.00  0.00    -0.029 A 
HETATM   13  C10 UNK     1      32.067  -5.728  33.808  1.00  0.00     0.014 A 
HETATM   14  C7  UNK     1      31.508  -5.274  35.002  1.00  0.00     0.030 A 
HETATM   15  C5  UNK     1      30.885  -6.161  35.926  1.00  0.00     0.030 A 
HETATM   16  C6  UNK     1      30.867  -7.535  35.561  1.00  0.00     0.037 A 
HETATM   17  C8  UNK     1      31.427  -7.989  34.366  1.00  0.00    -0.050 A 
HETATM   18  C11 UNK     1      31.366  -9.451  34.058  1.00  0.00     0.049 C 
BRANCH  15  19
HETATM   19  N1  UNK     1      30.333  -5.711  37.107  1.00  0.00    -0.381 N 
HETATM   20  C3  UNK     1      30.966  -4.736  37.990  1.00  0.00     0.123 C 
HETATM   21  C1  UNK     1      29.854  -4.352  38.964  1.00  0.00     0.021 C 
HETATM   22  C2  UNK     1      29.024  -5.621  39.058  1.00  0.00     0.021 C 
HETATM   23  C4  UNK     1      29.041  -6.153  37.627  1.00  0.00     0.123 C 
ENDBRANCH  15  19
ENDBRANCH   2  12
TORSDOF 3
ENDMDL
MODEL 4
REMARK VINA RESULT:      -7.0      4.209      7.536
REMARK  3 active torsions:
REMARK  status: ('A' for Active; 'I' for Inactive)
REMARK    1  A    between atoms: C5_8  and  N1_2 
REMARK    2  A    between atoms: C12_15  and  C9_12 
REMARK    3  A    between atoms: C13_16  and  C14_17 
ROOT
HETATM    1  N2  UNK     1      32.567  -9.590  29.016  1.00  0.00    -0.191 NA
HETATM    2  C12 UNK     1      31.579  -9.206  32.280  1.00  0.00     0.035 C 
HETATM    3  C13 UNK     1      31.107  -8.938  31.055  1.00  0.00     0.055 C 
HETATM    4  C17 UNK     1      31.914  -9.299  29.931  1.00  0.00     0.100 C 
ENDROOT
BRANCH   3   5
HETATM    5  C14 UNK     1      29.795  -8.313  30.795  1.00  0.00    -0.015 A 
HETATM    6  C15 UNK     1      28.684  -9.120  30.621  1.00  0.00     0.014 A 
HETATM    7  C18 UNK     1      27.446  -8.529  30.374  1.00  0.00     0.024 A 
HETATM    8  C20 UNK     1      27.336  -7.141  30.304  1.00  0.00     0.034 A 
HETATM    9  C19 UNK     1      28.467  -6.343  30.480  1.00  0.00     0.024 A 
HETATM   10 Cl1  UNK     1      25.808  -6.411  29.999  1.00  0.00    -0.084 Cl
HETATM   11  C16 UNK     1      29.706  -6.934  30.727  1.00  0.00     0.014 A 
ENDBRANCH   3   5
BRANCH   2  12
HETATM   12  C9  UNK     1      30.945  -8.913  33.558  1.00  0.00    -0.029 A 
HETATM   13  C10 UNK     1      30.079  -9.859  34.108  1.00  0.00     0.014 A 
HETATM   14  C7  UNK     1      29.457  -9.606  35.331  1.00  0.00     0.030 A 
HETATM   15  C5  UNK     1      29.675  -8.398  36.052  1.00  0.00     0.030 A 
HETATM   16  C6  UNK     1      30.565  -7.464  35.454  1.00  0.00     0.037 A 
HETATM   17  C8  UNK     1      31.189  -7.716  34.231  1.00  0.00    -0.050 A 
HETATM   18  C11 UNK     1      32.110  -6.680  33.671  1.00  0.00     0.049 C 
BRANCH  15  19
HETATM   19  N1  UNK     1      29.059  -8.150  37.260  1.00  0.00    -0.381 N 
HETATM   20  C3  UNK     1      29.402  -7.038  38.143  1.00  0.00     0.123 C 
HETATM   21  C1  UNK     1      28.265  -7.018  39.162  1.00  0.00     0.021 C 
HETATM   22  C2  UNK     1      27.860  -8.480  39.255  1.00  0.00     0.021 C 
HETATM   23  C4  UNK     1      27.981  -8.966  37.813  1.00  0.00     0.123 C 
ENDBRANCH  15  19
ENDBRANCH   2  12
TORSDOF 3
ENDMDL
MODEL 5
REMARK VINA RESULT:      -6.9      3.862      7.115
REMARK  3 active torsions:
REMARK  status: ('A' for Active; 'I' for Inactive)
REMARK    1  A    between atoms: C5_8  and  N1_2 
REMARK    2  A    between atoms: C12_15  and  C9_12 
REMARK    3  A    between atoms: C13_16  and  C14_17 
ROOT
HETATM    1  N2  UNK     1      33.441  -7.478  29.496  1.00  0.00    -0.191 NA
HETATM    2  C12 UNK     1      32.197  -7.528  32.693  1.00  0.00     0.035 C 
HETATM    3  C13 UNK     1      31.735  -7.383  31.444  1.00  0.00     0.055 C 
HETATM    4  C17 UNK     1      32.678  -7.436  30.370  1.00  0.00     0.100 C 
ENDROOT
BRANCH   3   5
HETATM    5  C14 UNK     1      30.310  -7.195  31.107  1.00  0.00    -0.015 A 
HETATM    6  C15 UNK     1      29.509  -8.306  30.910  1.00  0.00     0.014 A 
HETATM    7  C18 UNK     1      28.164  -8.126  30.590  1.00  0.00     0.024 A 
HETATM    8  C20 UNK     1      27.640  -6.840  30.472  1.00  0.00     0.034 A 
HETATM    9  C19 UNK     1      28.462  -5.731  30.673  1.00  0.00     0.024 A 
HETATM   10 Cl1  UNK     1      25.979  -6.618  30.078  1.00  0.00    -0.084 Cl
HETATM   11  C16 UNK     1      29.809  -5.910  30.993  1.00  0.00     0.014 A 
ENDBRANCH   3   5
BRANCH   2  12
HETATM   12  C9  UNK     1      31.430  -7.490  33.932  1.00  0.00    -0.029 A 
HETATM   13  C10 UNK     1      30.834  -8.667  34.386  1.00  0.00     0.014 A 
HETATM   14  C7  UNK     1      30.094  -8.662  35.568  1.00  0.00     0.030 A 
HETATM   15  C5  UNK     1      29.919  -7.480  36.342  1.00  0.00     0.030 A 
HETATM   16  C6  UNK     1      30.545  -6.304  35.841  1.00  0.00     0.037 A 
HETATM   17  C8  UNK     1      31.286  -6.309  34.659  1.00  0.00    -0.050 A 
HETATM   18  C11 UNK     1      31.910  -5.030  34.202  1.00  0.00     0.049 C 
BRANCH  15  19
HETATM   19  N1  UNK     1      29.187  -7.476  37.510  1.00  0.00    -0.381 N 
HETATM   20  C3  UNK     1      29.340  -6.485  38.572  1.00  0.00     0.123 C 
HETATM   21  C1  UNK     1      28.130  -6.725  39.472  1.00  0.00     0.021 C 
HETATM   22  C2  UNK     1      27.875  -8.214  39.316  1.00  0.00     0.021 C 
HETATM   23  C4  UNK     1      28.160  -8.462  37.837  1.00  0.00     0.123 C 
ENDBRANCH  15  19
ENDBRANCH   2  12
TORSDOF 3
ENDMDL
MODEL 6
REMARK VINA RESULT:      -6.9      3.413      5.340
REMARK  3 active torsions:
REMARK  status: ('A' for Active; 'I' for Inactive)
REMARK    1  A    between atoms: C5_8  and  N1_2 
REMARK    2  A    between atoms: C12_15  and  C9_12 
REMARK    3  A    between atoms: C13_16  and  C14_17 
ROOT
HETATM    1  N2  UNK     1      29.432  -3.776  39.828  1.00  0.00    -0.191 NA
HETATM    2  C12 UNK     1      29.184  -6.176  37.388  1.00  0.00     0.035 C 
HETATM    3  C13 UNK     1      30.130  -5.398  37.932  1.00  0.00     0.055 C 
HETATM    4  C17 UNK     1      29.743  -4.503  38.979  1.00  0.00     0.100 C 
ENDROOT
BRANCH   3   5
HETATM    5  C14 UNK     1      31.550  -5.422  37.531  1.00  0.00    -0.015 A 
HETATM    6  C15 UNK     1      31.984  -4.575  36.526  1.00  0.00     0.014 A 
HETATM    7  C18 UNK     1      33.326  -4.600  36.148  1.00  0.00     0.024 A 
HETATM    8  C20 UNK     1      34.213  -5.471  36.779  1.00  0.00     0.034 A 
HETATM    9  C19 UNK     1      33.758  -6.318  37.789  1.00  0.00     0.024 A 
HETATM   10 Cl1  UNK     1      35.869  -5.501  36.311  1.00  0.00    -0.084 Cl
HETATM   11  C16 UNK     1      32.416  -6.294  38.168  1.00  0.00     0.014 A 
ENDBRANCH   3   5
BRANCH   2  12
HETATM   12  C9  UNK     1      29.342  -7.139  36.307  1.00  0.00    -0.029 A 
HETATM   13  C10 UNK     1      29.205  -6.697  34.991  1.00  0.00     0.014 A 
HETATM   14  C7  UNK     1      29.350  -7.595  33.935  1.00  0.00     0.030 A 
HETATM   15  C5  UNK     1      29.638  -8.973  34.152  1.00  0.00     0.030 A 
HETATM   16  C6  UNK     1      29.769  -9.379  35.509  1.00  0.00     0.037 A 
HETATM   17  C8  UNK     1      29.624  -8.480  36.566  1.00  0.00    -0.050 A 
HETATM   18  C11 UNK     1      29.777  -8.990  37.963  1.00  0.00     0.049 C 
BRANCH  15  19
HETATM   19  N1  UNK     1      29.780  -9.861  33.106  1.00  0.00    -0.381 N 
HETATM   20  C3  UNK     1      30.461 -11.148  33.211  1.00  0.00     0.123 C 
HETATM   21  C1  UNK     1      30.087 -11.864  31.914  1.00  0.00     0.021 C 
HETATM   22  C2  UNK     1      29.929 -10.722  30.924  1.00  0.00     0.021 C 
HETATM   23  C4  UNK     1      29.267  -9.628  31.758  1.00  0.00     0.123 C 
ENDBRANCH  15  19
ENDBRANCH   2  12
TORSDOF 3
ENDMDL
MODEL 7
REMARK VINA RESULT:      -6.9      2.752      6.487
REMARK  3 active torsions:
REMARK  status: ('A' for Active; 'I' for Inactive)
REMARK    1  A    between atoms: C5_8  and  N1_2 
REMARK    2  A    between atoms: C12_15  and  C9_12 
REMARK    3  A    between atoms: C13_16  and  C14_17 
ROOT
HETATM    1  N2  UNK     1      34.677  -3.193  34.506  1.00  0.00    -0.191 NA
HETATM    2  C12 UNK     1      32.496  -4.971  36.470  1.00  0.00     0.035 C 
HETATM    3  C13 UNK     1      32.858  -4.911  35.181  1.00  0.00     0.055 C 
HETATM    4  C17 UNK     1      33.863  -3.962  34.810  1.00  0.00     0.100 C 
ENDROOT
BRANCH   3   5
HETATM    5  C14 UNK     1      32.300  -5.778  34.125  1.00  0.00    -0.015 A 
HETATM    6  C15 UNK     1      32.993  -6.913  33.746  1.00  0.00     0.014 A 
HETATM    7  C18 UNK     1      32.465  -7.731  32.747  1.00  0.00     0.024 A 
HETATM    8  C20 UNK     1      31.253  -7.401  32.143  1.00  0.00     0.034 A 
HETATM    9  C19 UNK     1      30.568  -6.252  32.538  1.00  0.00     0.024 A 
HETATM   10 Cl1  UNK     1      30.601  -8.411  30.911  1.00  0.00    -0.084 Cl
HETATM   11  C16 UNK     1      31.095  -5.433  33.537  1.00  0.00     0.014 A 
ENDBRANCH   3   5
BRANCH   2  12
HETATM   12  C9  UNK     1      31.490  -5.838  37.068  1.00  0.00    -0.029 A 
HETATM   13  C10 UNK     1      30.177  -5.376  37.159  1.00  0.00     0.014 A 
HETATM   14  C7  UNK     1      29.191  -6.182  37.727  1.00  0.00     0.030 A 
HETATM   15  C5  UNK     1      29.480  -7.483  38.229  1.00  0.00     0.030 A 
HETATM   16  C6  UNK     1      30.831  -7.913  38.115  1.00  0.00     0.037 A 
HETATM   17  C8  UNK     1      31.817  -7.106  37.546  1.00  0.00    -0.050 A 
HETATM   18  C11 UNK     1      33.213  -7.634  37.466  1.00  0.00     0.049 C 
BRANCH  15  19
HETATM   19  N1  UNK     1      28.505  -8.280  38.791  1.00  0.00    -0.381 N 
HETATM   20  C3  UNK     1      28.673  -9.701  39.080  1.00  0.00     0.123 C 
HETATM   21  C1  UNK     1      27.466 -10.040  39.953  1.00  0.00     0.021 C 
HETATM   22  C2  UNK     1      26.396  -9.087  39.448  1.00  0.00     0.021 C 
HETATM   23  C4  UNK     1      27.177  -7.804  39.172  1.00  0.00     0.123 C 
ENDBRANCH  15  19
ENDBRANCH   2  12
TORSDOF 3
ENDMDL
MODEL 8
REMARK VINA RESULT:      -6.8      4.905      8.183
REMARK  3 active torsions:
REMARK  status: ('A' for Active; 'I' for Inactive)
REMARK    1  A    between atoms: C5_8  and  N1_2 
REMARK    2  A    between atoms: C12_15  and  C9_12 
REMARK    3  A    between atoms: C13_16  and  C14_17 
ROOT
HETATM    1  N2  UNK     1      28.028 -10.194  28.001  1.00  0.00    -0.191 NA
HETATM    2  C12 UNK     1      28.206  -8.818  31.139  1.00  0.00     0.035 C 
HETATM    3  C13 UNK     1      28.991  -8.953  30.062  1.00  0.00     0.055 C 
HETATM    4  C17 UNK     1      28.458  -9.638  28.925  1.00  0.00     0.100 C 
ENDROOT
BRANCH   3   5
HETATM    5  C14 UNK     1      30.365  -8.421  29.969  1.00  0.00    -0.015 A 
HETATM    6  C15 UNK     1      30.571  -7.180  29.393  1.00  0.00     0.014 A 
HETATM    7  C18 UNK     1      31.869  -6.678  29.304  1.00  0.00     0.024 A 
HETATM    8  C20 UNK     1      32.941  -7.424  29.792  1.00  0.00     0.034 A 
HETATM    9  C19 UNK     1      32.715  -8.674  30.369  1.00  0.00     0.024 A 
HETATM   10 Cl1  UNK     1      34.543  -6.805  29.683  1.00  0.00    -0.084 Cl
HETATM   11  C16 UNK     1      31.416  -9.176  30.459  1.00  0.00     0.014 A 
ENDBRANCH   3   5
BRANCH   2  12
HETATM   12  C9  UNK     1      28.541  -8.180  32.406  1.00  0.00    -0.029 A 
HETATM   13  C10 UNK     1      28.334  -6.807  32.539  1.00  0.00     0.014 A 
HETATM   14  C7  UNK     1      28.646  -6.169  33.740  1.00  0.00     0.030 A 
HETATM   15  C5  UNK     1      29.178  -6.877  34.854  1.00  0.00     0.030 A 
HETATM   16  C6  UNK     1      29.372  -8.275  34.673  1.00  0.00     0.037 A 
HETATM   17  C8  UNK     1      29.060  -8.914  33.472  1.00  0.00    -0.050 A 
HETATM   18  C11 UNK     1      29.296 -10.386  33.364  1.00  0.00     0.049 C 
BRANCH  15  19
HETATM   19  N1  UNK     1      29.486  -6.245  36.039  1.00  0.00    -0.381 N 
HETATM   20  C3  UNK     1      28.666  -6.318  37.246  1.00  0.00     0.123 C 
HETATM   21  C1  UNK     1      29.564  -5.730  38.333  1.00  0.00     0.021 C 
HETATM   22  C2  UNK     1      30.408  -4.720  37.573  1.00  0.00     0.021 C 
HETATM   23  C4  UNK     1      30.675  -5.420  36.243  1.00  0.00     0.123 C 
ENDBRANCH  15  19
ENDBRANCH   2  12
TORSDOF 3
ENDMDL
MODEL 9
REMARK VINA RESULT:      -6.8      1.097      2.157
REMARK  3 active torsions:
REMARK  status: ('A' for Active; 'I' for Inactive)
REMARK    1  A    between atoms: C5_8  and  N1_2 
REMARK    2  A    between atoms: C12_15  and  C9_12 
REMARK    3  A    between atoms: C13_16  and  C14_17 
ROOT
HETATM    1  N2  UNK     1      29.502  -3.740  39.893  1.00  0.00    -0.191 NA
HETATM    2  C12 UNK     1      31.617  -4.746  37.386  1.00  0.00     0.035 C 
HETATM    3  C13 UNK     1      30.467  -5.147  37.942  1.00  0.00     0.055 C 
HETATM    4  C17 UNK     1      29.936  -4.369  39.019  1.00  0.00     0.100 C 
ENDROOT
BRANCH   3   5
HETATM    5  C14 UNK     1      29.703  -6.330  37.499  1.00  0.00    -0.015 A 
HETATM    6  C15 UNK     1      29.966  -7.559  38.077  1.00  0.00     0.014 A 
HETATM    7  C18 UNK     1      29.245  -8.677  37.657  1.00  0.00     0.024 A 
HETATM    8  C20 UNK     1      28.273  -8.548  36.666  1.00  0.00     0.034 A 
HETATM    9  C19 UNK     1      28.021  -7.301  36.094  1.00  0.00     0.024 A 
HETATM   10 Cl1  UNK     1      27.383  -9.926  36.148  1.00  0.00    -0.084 Cl
HETATM   11  C16 UNK     1      28.743  -6.182  36.514  1.00  0.00     0.014 A 
ENDBRANCH   3   5
BRANCH   2  12
HETATM   12  C9  UNK     1      32.348  -5.386  36.300  1.00  0.00    -0.029 A 
HETATM   13  C10 UNK     1      31.878  -5.234  34.995  1.00  0.00     0.014 A 
HETATM   14  C7  UNK     1      32.555  -5.835  33.935  1.00  0.00     0.030 A 
HETATM   15  C5  UNK     1      33.729  -6.615  34.138  1.00  0.00     0.030 A 
HETATM   16  C6  UNK     1      34.172  -6.744  35.483  1.00  0.00     0.037 A 
HETATM   17  C8  UNK     1      33.495  -6.141  36.544  1.00  0.00    -0.050 A 
HETATM   18  C11 UNK     1      34.026  -6.327  37.929  1.00  0.00     0.049 C 
BRANCH  15  19
HETATM   19  N1  UNK     1      34.398  -7.210  33.089  1.00  0.00    -0.381 N 
HETATM   20  C3  UNK     1      35.781  -7.676  33.156  1.00  0.00     0.123 C 
HETATM   21  C1  UNK     1      35.945  -8.511  31.887  1.00  0.00     0.021 C 
HETATM   22  C2  UNK     1      35.006  -7.833  30.905  1.00  0.00     0.021 C 
HETATM   23  C4  UNK     1      33.809  -7.453  31.774  1.00  0.00     0.123 C 
ENDBRANCH  15  19
ENDBRANCH   2  12
TORSDOF 3
ENDMDL
MODEL 10
REMARK VINA RESULT:      -6.8      4.028      8.543
REMARK  3 active torsions:
REMARK  status: ('A' for Active; 'I' for Inactive)
REMARK    1  A    between atoms: C5_8  and  N1_2 
REMARK    2  A    between atoms: C12_15  and  C9_12 
REMARK    3  A    between atoms: C13_16  and  C14_17 
ROOT
HETATM    1  N2  UNK     1      32.476  -6.444  38.323  1.00  0.00    -0.191 NA
HETATM    2  C12 UNK     1      29.142  -6.990  38.926  1.00  0.00     0.035 C 
HETATM    3  C13 UNK     1      29.989  -7.029  37.889  1.00  0.00     0.055 C 
HETATM    4  C17 UNK     1      31.361  -6.706  38.130  1.00  0.00     0.100 C 
ENDROOT
BRANCH   3   5
HETATM    5  C14 UNK     1      29.596  -7.405  36.516  1.00  0.00    -0.015 A 
HETATM    6  C15 UNK     1      29.181  -6.420  35.638  1.00  0.00     0.014 A 
HETATM    7  C18 UNK     1      28.810  -6.777  34.341  1.00  0.00     0.024 A 
HETATM    8  C20 UNK     1      28.859  -8.112  33.944  1.00  0.00     0.034 A 
HETATM    9  C19 UNK     1      29.280  -9.092  34.843  1.00  0.00     0.024 A 
HETATM   10 Cl1  UNK     1      28.401  -8.552  32.344  1.00  0.00    -0.084 Cl
HETATM   11  C16 UNK     1      29.651  -8.736  36.140  1.00  0.00     0.014 A 
ENDBRANCH   3   5
BRANCH   2  12
HETATM   12  C9  UNK     1      27.710  -7.258  38.912  1.00  0.00    -0.029 A 
HETATM   13  C10 UNK     1      26.833  -6.201  38.669  1.00  0.00     0.014 A 
HETATM   14  C7  UNK     1      25.457  -6.427  38.651  1.00  0.00     0.030 A 
HETATM   15  C5  UNK     1      24.903  -7.719  38.874  1.00  0.00     0.030 A 
HETATM   16  C6  UNK     1      25.834  -8.767  39.117  1.00  0.00     0.037 A 
HETATM   17  C8  UNK     1      27.211  -8.541  39.135  1.00  0.00    -0.050 A 
HETATM   18  C11 UNK     1      28.121  -9.698  39.399  1.00  0.00     0.049 C 
BRANCH  15  19
HETATM   19  N1  UNK     1      23.542  -7.942  38.856  1.00  0.00    -0.381 N 
HETATM   20  C3  UNK     1      22.656  -7.702  39.992  1.00  0.00     0.123 C 
HETATM   21  C1  UNK     1      21.256  -7.799  39.389  1.00  0.00     0.021 C 
HETATM   22  C2  UNK     1      21.436  -8.800  38.261  1.00  0.00     0.021 C 
HETATM   23  C4  UNK     1      22.810  -8.445  37.697  1.00  0.00     0.123 C 
ENDBRANCH  15  19
ENDBRANCH   2  12
TORSDOF 3
ENDMDL
