MODEL 1
REMARK VINA RESULT:      -9.4      0.000      0.000
REMARK  4 active torsions:
REMARK  status: ('A' for Active; 'I' for Inactive)
REMARK    1  A    between atoms: C2_7  and  N1_5 
REMARK       I    between atoms: C6_11  and  N1_5 
REMARK    2  A    between atoms: C1_6  and  C2_7 
REMARK    3  A    between atoms: C1_6  and  C3_8 
REMARK    4  A    between atoms: C4_9  and  C6_11 
ROOT
HETATM    1  O2  UNK     1      17.471   3.267  31.561  1.00  0.00    -0.267 OA
HETATM    2  N1  UNK     1      19.067   4.174  30.123  1.00  0.00    -0.356 N 
HETATM    3  C6  UNK     1      18.382   3.145  30.745  1.00  0.00     0.257 C 
HETATM    4  H5  UNK     1      19.827   3.967  29.483  1.00  0.00     0.162 HD
ENDROOT
BRANCH   3   5
HETATM    5  C4  UNK     1      18.849   1.816  30.330  1.00  0.00     0.108 A 
HETATM    6  C11 UNK     1      18.766   1.356  28.926  1.00  0.00     0.304 A 
HETATM    7  O1  UNK     1      19.240   0.076  28.658  1.00  0.00    -0.274 OA
HETATM    8  O3  UNK     1      18.300   2.064  28.039  1.00  0.00    -0.259 OA
HETATM    9  C8  UNK     1      19.776  -0.745  29.670  1.00  0.00     0.089 A 
HETATM   10  C13 UNK     1      20.228  -2.012  29.303  1.00  0.00     0.038 A 
HETATM   11  C5  UNK     1      19.846  -0.293  30.983  1.00  0.00    -0.001 A 
HETATM   12  C17 UNK     1      20.763  -2.846  30.282  1.00  0.00     0.003 A 
HETATM   13  C16 UNK     1      20.840  -2.411  31.607  1.00  0.00     0.001 A 
HETATM   14  C12 UNK     1      20.384  -1.137  31.959  1.00  0.00     0.014 A 
HETATM   15  C7  UNK     1      19.357   1.040  31.296  1.00  0.00     0.037 A 
ENDBRANCH   3   5
BRANCH   2  16
HETATM   16  C2  UNK     1      18.784   5.569  30.368  1.00  0.00     0.127 C 
BRANCH  16  17
HETATM   17  C1  UNK     1      19.695   6.174  31.434  1.00  0.00     0.058 C 
BRANCH  17  18
HETATM   18  C3  UNK     1      18.939   6.658  32.647  1.00  0.00    -0.057 A 
HETATM   19  C10 UNK     1      17.568   6.470  32.714  1.00  0.00     0.010 A 
HETATM   20  C15 UNK     1      16.870   6.919  33.835  1.00  0.00     0.043 A 
HETATM   21  C18 UNK     1      17.552   7.548  34.875  1.00  0.00     0.116 A 
HETATM   22  C14 UNK     1      18.933   7.729  34.796  1.00  0.00     0.043 A 
HETATM   23  F1  UNK     1      16.882   7.979  35.952  1.00  0.00    -0.206 F 
HETATM   24  C9  UNK     1      19.631   7.282  33.674  1.00  0.00     0.010 A 
ENDBRANCH  17  18
ENDBRANCH  16  17
ENDBRANCH   2  16
TORSDOF 4
ENDMDL
MODEL 2
REMARK VINA RESULT:      -9.4      1.153      2.204
REMARK  4 active torsions:
REMARK  status: ('A' for Active; 'I' for Inactive)
REMARK    1  A    between atoms: C2_7  and  N1_5 
REMARK       I    between atoms: C6_11  and  N1_5 
REMARK    2  A    between atoms: C1_6  and  C2_7 
REMARK    3  A    between atoms: C1_6  and  C3_8 
REMARK    4  A    between atoms: C4_9  and  C6_11 
ROOT
HETATM    1  O2  UNK     1      18.055   2.539  28.448  1.00  0.00    -0.267 OA
HETATM    2  N1  UNK     1      19.037   3.803  30.144  1.00  0.00    -0.356 N 
HETATM    3  C6  UNK     1      18.633   2.631  29.529  1.00  0.00     0.257 C 
HETATM    4  H5  UNK     1      19.483   3.774  31.054  1.00  0.00     0.162 HD
ENDROOT
BRANCH   3   5
HETATM    5  C4  UNK     1      18.968   1.433  30.309  1.00  0.00     0.108 A 
HETATM    6  C11 UNK     1      18.611   1.300  31.739  1.00  0.00     0.304 A 
HETATM    7  O1  UNK     1      18.985   0.117  32.370  1.00  0.00    -0.274 OA
HETATM    8  O3  UNK     1      18.018   2.187  32.343  1.00  0.00    -0.259 OA
HETATM    9  C8  UNK     1      19.667  -0.907  31.684  1.00  0.00     0.089 A 
HETATM   10  C13 UNK     1      19.997  -2.056  32.401  1.00  0.00     0.038 A 
HETATM   11  C5  UNK     1      19.992  -0.763  30.340  1.00  0.00    -0.001 A 
HETATM   12  C17 UNK     1      20.672  -3.086  31.750  1.00  0.00     0.003 A 
HETATM   13  C16 UNK     1      21.009  -2.959  30.400  1.00  0.00     0.001 A 
HETATM   14  C12 UNK     1      20.670  -1.801  29.695  1.00  0.00     0.014 A 
HETATM   15  C7  UNK     1      19.618   0.463  29.653  1.00  0.00     0.037 A 
ENDBRANCH   3   5
BRANCH   2  16
HETATM   16  C2  UNK     1      18.820   5.109  29.567  1.00  0.00     0.127 C 
BRANCH  16  17
HETATM   17  C1  UNK     1      19.641   6.197  30.254  1.00  0.00     0.058 C 
BRANCH  17  18
HETATM   18  C3  UNK     1      19.111   6.561  31.619  1.00  0.00    -0.057 A 
HETATM   19  C10 UNK     1      19.972   6.565  32.705  1.00  0.00     0.010 A 
HETATM   20  C15 UNK     1      19.481   6.901  33.966  1.00  0.00     0.043 A 
HETATM   21  C18 UNK     1      18.135   7.229  34.126  1.00  0.00     0.116 A 
HETATM   22  C14 UNK     1      17.280   7.222  33.025  1.00  0.00     0.043 A 
HETATM   23  F1  UNK     1      17.663   7.551  35.338  1.00  0.00    -0.206 F 
HETATM   24  C9  UNK     1      17.770   6.885  31.763  1.00  0.00     0.010 A 
ENDBRANCH  17  18
ENDBRANCH  16  17
ENDBRANCH   2  16
TORSDOF 4
ENDMDL
MODEL 3
REMARK VINA RESULT:      -9.0      8.111     12.215
REMARK  4 active torsions:
REMARK  status: ('A' for Active; 'I' for Inactive)
REMARK    1  A    between atoms: C2_7  and  N1_5 
REMARK       I    between atoms: C6_11  and  N1_5 
REMARK    2  A    between atoms: C1_6  and  C2_7 
REMARK    3  A    between atoms: C1_6  and  C3_8 
REMARK    4  A    between atoms: C4_9  and  C6_11 
ROOT
HETATM    1  O2  UNK     1      20.913  -4.663  36.787  1.00  0.00    -0.267 OA
HETATM    2  N1  UNK     1      18.615  -5.057  36.723  1.00  0.00    -0.356 N 
HETATM    3  C6  UNK     1      19.756  -4.281  36.618  1.00  0.00     0.257 C 
HETATM    4  H5  UNK     1      17.700  -4.639  36.592  1.00  0.00     0.162 HD
ENDROOT
BRANCH   3   5
HETATM    5  C4  UNK     1      19.467  -2.886  36.265  1.00  0.00     0.108 A 
HETATM    6  C11 UNK     1      19.918  -2.289  34.987  1.00  0.00     0.304 A 
HETATM    7  O1  UNK     1      19.583  -0.956  34.768  1.00  0.00    -0.274 OA
HETATM    8  O3  UNK     1      20.557  -2.932  34.162  1.00  0.00    -0.259 OA
HETATM    9  C8  UNK     1      18.849  -0.209  35.710  1.00  0.00     0.089 A 
HETATM   10  C13 UNK     1      18.560   1.119  35.400  1.00  0.00     0.038 A 
HETATM   11  C5  UNK     1      18.435  -0.789  36.904  1.00  0.00    -0.001 A 
HETATM   12  C17 UNK     1      17.837   1.883  36.313  1.00  0.00     0.003 A 
HETATM   13  C16 UNK     1      17.413   1.318  37.518  1.00  0.00     0.001 A 
HETATM   14  C12 UNK     1      17.710  -0.016  37.814  1.00  0.00     0.014 A 
HETATM   15  C7  UNK     1      18.770  -2.180  37.164  1.00  0.00     0.037 A 
ENDBRANCH   3   5
BRANCH   2  16
HETATM   16  C2  UNK     1      18.646  -6.462  37.058  1.00  0.00     0.127 C 
BRANCH  16  17
HETATM   17  C1  UNK     1      18.775  -7.355  35.826  1.00  0.00     0.058 C 
BRANCH  17  18
HETATM   18  C3  UNK     1      19.767  -8.476  36.014  1.00  0.00    -0.057 A 
HETATM   19  C10 UNK     1      19.473  -9.503  36.897  1.00  0.00     0.010 A 
HETATM   20  C15 UNK     1      20.391 -10.539  37.071  1.00  0.00     0.043 A 
HETATM   21  C18 UNK     1      21.589 -10.536  36.359  1.00  0.00     0.116 A 
HETATM   22  C14 UNK     1      21.871  -9.497  35.472  1.00  0.00     0.043 A 
HETATM   23  F1  UNK     1      22.471 -11.531  36.526  1.00  0.00    -0.206 F 
HETATM   24  C9  UNK     1      20.954  -8.460  35.298  1.00  0.00     0.010 A 
ENDBRANCH  17  18
ENDBRANCH  16  17
ENDBRANCH   2  16
TORSDOF 4
ENDMDL
MODEL 4
REMARK VINA RESULT:      -9.0      3.587      8.679
REMARK  4 active torsions:
REMARK  status: ('A' for Active; 'I' for Inactive)
REMARK    1  A    between atoms: C2_7  and  N1_5 
REMARK       I    between atoms: C6_11  and  N1_5 
REMARK    2  A    between atoms: C1_6  and  C2_7 
REMARK    3  A    between atoms: C1_6  and  C3_8 
REMARK    4  A    between atoms: C4_9  and  C6_11 
ROOT
HETATM    1  O2  UNK     1      18.332   3.722  34.062  1.00  0.00    -0.267 OA
HETATM    2  N1  UNK     1      17.918   3.994  31.784  1.00  0.00    -0.356 N 
HETATM    3  C6  UNK     1      18.112   4.431  33.082  1.00  0.00     0.257 C 
HETATM    4  H5  UNK     1      17.713   4.661  31.047  1.00  0.00     0.162 HD
ENDROOT
BRANCH   3   5
HETATM    5  C4  UNK     1      18.034   5.891  33.211  1.00  0.00     0.108 A 
HETATM    6  C11 UNK     1      16.823   6.650  32.826  1.00  0.00     0.304 A 
HETATM    7  O1  UNK     1      16.871   8.031  32.994  1.00  0.00    -0.274 OA
HETATM    8  O3  UNK     1      15.825   6.095  32.378  1.00  0.00    -0.259 OA
HETATM    9  C8  UNK     1      18.012   8.678  33.507  1.00  0.00     0.089 A 
HETATM   10  C13 UNK     1      17.964  10.065  33.641  1.00  0.00     0.038 A 
HETATM   11  C5  UNK     1      19.139   7.946  33.864  1.00  0.00    -0.001 A 
HETATM   12  C17 UNK     1      19.078  10.733  34.145  1.00  0.00     0.003 A 
HETATM   13  C16 UNK     1      20.219  10.015  34.508  1.00  0.00     0.001 A 
HETATM   14  C12 UNK     1      20.251   8.624  34.369  1.00  0.00     0.014 A 
HETATM   15  C7  UNK     1      19.121   6.501  33.699  1.00  0.00     0.037 A 
ENDBRANCH   3   5
BRANCH   2  16
HETATM   16  C2  UNK     1      17.952   2.600  31.408  1.00  0.00     0.127 C 
BRANCH  16  17
HETATM   17  C1  UNK     1      18.821   2.345  30.179  1.00  0.00     0.058 C 
BRANCH  17  18
HETATM   18  C3  UNK     1      19.383   0.945  30.136  1.00  0.00    -0.057 A 
HETATM   19  C10 UNK     1      19.475   0.213  31.309  1.00  0.00     0.010 A 
HETATM   20  C15 UNK     1      19.995  -1.080  31.269  1.00  0.00     0.043 A 
HETATM   21  C18 UNK     1      20.416  -1.625  30.056  1.00  0.00     0.116 A 
HETATM   22  C14 UNK     1      20.317  -0.878  28.883  1.00  0.00     0.043 A 
HETATM   23  F1  UNK     1      20.916  -2.868  30.018  1.00  0.00    -0.206 F 
HETATM   24  C9  UNK     1      19.797   0.417  28.923  1.00  0.00     0.010 A 
ENDBRANCH  17  18
ENDBRANCH  16  17
ENDBRANCH   2  16
TORSDOF 4
ENDMDL
MODEL 5
REMARK VINA RESULT:      -8.8      3.502      8.750
REMARK  4 active torsions:
REMARK  status: ('A' for Active; 'I' for Inactive)
REMARK    1  A    between atoms: C2_7  and  N1_5 
REMARK       I    between atoms: C6_11  and  N1_5 
REMARK    2  A    between atoms: C1_6  and  C2_7 
REMARK    3  A    between atoms: C1_6  and  C3_8 
REMARK    4  A    between atoms: C4_9  and  C6_11 
ROOT
HETATM    1  O2  UNK     1      20.070   6.232  29.782  1.00  0.00    -0.267 OA
HETATM    2  N1  UNK     1      18.627   4.562  30.534  1.00  0.00    -0.356 N 
HETATM    3  C6  UNK     1      19.199   5.822  30.546  1.00  0.00     0.257 C 
HETATM    4  H5  UNK     1      17.932   4.311  31.230  1.00  0.00     0.162 HD
ENDROOT
BRANCH   3   5
HETATM    5  C4  UNK     1      18.653   6.687  31.600  1.00  0.00     0.108 A 
HETATM    6  C11 UNK     1      19.410   6.992  32.835  1.00  0.00     0.304 A 
HETATM    7  O1  UNK     1      18.786   7.824  33.761  1.00  0.00    -0.274 OA
HETATM    8  O3  UNK     1      20.530   6.537  33.038  1.00  0.00    -0.259 OA
HETATM    9  C8  UNK     1      17.499   8.352  33.537  1.00  0.00     0.089 A 
HETATM   10  C13 UNK     1      16.958   9.176  34.521  1.00  0.00     0.038 A 
HETATM   11  C5  UNK     1      16.806   8.052  32.369  1.00  0.00    -0.001 A 
HETATM   12  C17 UNK     1      15.687   9.713  34.328  1.00  0.00     0.003 A 
HETATM   13  C16 UNK     1      14.975   9.423  33.162  1.00  0.00     0.001 A 
HETATM   14  C12 UNK     1      15.532   8.595  32.183  1.00  0.00     0.014 A 
HETATM   15  C7  UNK     1      17.430   7.185  31.383  1.00  0.00     0.037 A 
ENDBRANCH   3   5
BRANCH   2  16
HETATM   16  C2  UNK     1      18.998   3.538  29.586  1.00  0.00     0.127 C 
BRANCH  16  17
HETATM   17  C1  UNK     1      18.138   2.283  29.712  1.00  0.00     0.058 C 
BRANCH  17  18
HETATM   18  C3  UNK     1      18.949   1.011  29.704  1.00  0.00    -0.057 A 
HETATM   19  C10 UNK     1      19.082   0.295  28.525  1.00  0.00     0.010 A 
HETATM   20  C15 UNK     1      19.831  -0.881  28.518  1.00  0.00     0.043 A 
HETATM   21  C18 UNK     1      20.439  -1.326  29.691  1.00  0.00     0.116 A 
HETATM   22  C14 UNK     1      20.299  -0.596  30.871  1.00  0.00     0.043 A 
HETATM   23  F1  UNK     1      21.159  -2.457  29.685  1.00  0.00    -0.206 F 
HETATM   24  C9  UNK     1      19.549   0.580  30.878  1.00  0.00     0.010 A 
ENDBRANCH  17  18
ENDBRANCH  16  17
ENDBRANCH   2  16
TORSDOF 4
ENDMDL
MODEL 6
REMARK VINA RESULT:      -8.8      8.197     11.998
REMARK  4 active torsions:
REMARK  status: ('A' for Active; 'I' for Inactive)
REMARK    1  A    between atoms: C2_7  and  N1_5 
REMARK       I    between atoms: C6_11  and  N1_5 
REMARK    2  A    between atoms: C1_6  and  C2_7 
REMARK    3  A    between atoms: C1_6  and  C3_8 
REMARK    4  A    between atoms: C4_9  and  C6_11 
ROOT
HETATM    1  O2  UNK     1      21.021  -4.687  37.086  1.00  0.00    -0.267 OA
HETATM    2  N1  UNK     1      19.656  -5.283  35.292  1.00  0.00    -0.356 N 
HETATM    3  C6  UNK     1      20.224  -4.401  36.194  1.00  0.00     0.257 C 
HETATM    4  H5  UNK     1      18.984  -4.951  34.608  1.00  0.00     0.162 HD
ENDROOT
BRANCH   3   5
HETATM    5  C4  UNK     1      19.782  -3.016  35.994  1.00  0.00     0.108 A 
HETATM    6  C11 UNK     1      20.106  -2.257  34.765  1.00  0.00     0.304 A 
HETATM    7  O1  UNK     1      19.631  -0.951  34.693  1.00  0.00    -0.274 OA
HETATM    8  O3  UNK     1      20.762  -2.750  33.853  1.00  0.00    -0.259 OA
HETATM    9  C8  UNK     1      18.876  -0.376  35.735  1.00  0.00     0.089 A 
HETATM   10  C13 UNK     1      18.443   0.938  35.570  1.00  0.00     0.038 A 
HETATM   11  C5  UNK     1      18.583  -1.107  36.881  1.00  0.00    -0.001 A 
HETATM   12  C17 UNK     1      17.696   1.534  36.584  1.00  0.00     0.003 A 
HETATM   13  C16 UNK     1      17.391   0.816  37.743  1.00  0.00     0.001 A 
HETATM   14  C12 UNK     1      17.833  -0.502  37.893  1.00  0.00     0.014 A 
HETATM   15  C7  UNK     1      19.066  -2.474  36.987  1.00  0.00     0.037 A 
ENDBRANCH   3   5
BRANCH   2  16
HETATM   16  C2  UNK     1      19.941  -6.699  35.289  1.00  0.00     0.127 C 
BRANCH  16  17
HETATM   17  C1  UNK     1      18.765  -7.535  35.789  1.00  0.00     0.058 C 
BRANCH  17  18
HETATM   18  C3  UNK     1      19.089  -8.317  37.038  1.00  0.00    -0.057 A 
HETATM   19  C10 UNK     1      19.011  -9.700  37.014  1.00  0.00     0.010 A 
HETATM   20  C15 UNK     1      19.309 -10.423  38.169  1.00  0.00     0.043 A 
HETATM   21  C18 UNK     1      19.683  -9.752  39.333  1.00  0.00     0.116 A 
HETATM   22  C14 UNK     1      19.759  -8.360  39.344  1.00  0.00     0.043 A 
HETATM   23  F1  UNK     1      19.969 -10.447  40.443  1.00  0.00    -0.206 F 
HETATM   24  C9  UNK     1      19.460  -7.637  38.189  1.00  0.00     0.010 A 
ENDBRANCH  17  18
ENDBRANCH  16  17
ENDBRANCH   2  16
TORSDOF 4
ENDMDL
MODEL 7
REMARK VINA RESULT:      -8.7      1.902      2.728
REMARK  4 active torsions:
REMARK  status: ('A' for Active; 'I' for Inactive)
REMARK    1  A    between atoms: C2_7  and  N1_5 
REMARK       I    between atoms: C6_11  and  N1_5 
REMARK    2  A    between atoms: C1_6  and  C2_7 
REMARK    3  A    between atoms: C1_6  and  C3_8 
REMARK    4  A    between atoms: C4_9  and  C6_11 
ROOT
HETATM    1  O2  UNK     1      18.743   4.581  30.001  1.00  0.00    -0.267 OA
HETATM    2  N1  UNK     1      17.532   4.519  31.993  1.00  0.00    -0.356 N 
HETATM    3  C6  UNK     1      18.326   3.986  30.993  1.00  0.00     0.257 C 
HETATM    4  H5  UNK     1      17.216   3.934  32.759  1.00  0.00     0.162 HD
ENDROOT
BRANCH   3   5
HETATM    5  C4  UNK     1      18.658   2.574  31.219  1.00  0.00     0.108 A 
HETATM    6  C11 UNK     1      18.411   1.907  32.517  1.00  0.00     0.304 A 
HETATM    7  O1  UNK     1      18.769   0.565  32.608  1.00  0.00    -0.274 OA
HETATM    8  O3  UNK     1      17.919   2.503  33.468  1.00  0.00    -0.259 OA
HETATM    9  C8  UNK     1      19.335  -0.129  31.521  1.00  0.00     0.089 A 
HETATM   10  C13 UNK     1      19.659  -1.472  31.708  1.00  0.00     0.038 A 
HETATM   11  C5  UNK     1      19.558   0.516  30.309  1.00  0.00    -0.001 A 
HETATM   12  C17 UNK     1      20.221  -2.184  30.651  1.00  0.00     0.003 A 
HETATM   13  C16 UNK     1      20.453  -1.553  29.427  1.00  0.00     0.001 A 
HETATM   14  C12 UNK     1      20.122  -0.205  29.254  1.00  0.00     0.014 A 
HETATM   15  C7  UNK     1      19.197   1.919  30.182  1.00  0.00     0.037 A 
ENDBRANCH   3   5
BRANCH   2  16
HETATM   16  C2  UNK     1      17.080   5.891  31.991  1.00  0.00     0.127 C 
BRANCH  16  17
HETATM   17  C1  UNK     1      16.865   6.438  33.400  1.00  0.00     0.058 C 
BRANCH  17  18
HETATM   18  C3  UNK     1      17.846   7.525  33.764  1.00  0.00    -0.057 A 
HETATM   19  C10 UNK     1      17.492   8.852  33.575  1.00  0.00     0.010 A 
HETATM   20  C15 UNK     1      18.399   9.857  33.911  1.00  0.00     0.043 A 
HETATM   21  C18 UNK     1      19.648   9.522  34.433  1.00  0.00     0.116 A 
HETATM   22  C14 UNK     1      19.991   8.183  34.619  1.00  0.00     0.043 A 
HETATM   23  F1  UNK     1      20.520  10.487  34.755  1.00  0.00    -0.206 F 
HETATM   24  C9  UNK     1      19.084   7.178  34.283  1.00  0.00     0.010 A 
ENDBRANCH  17  18
ENDBRANCH  16  17
ENDBRANCH   2  16
TORSDOF 4
ENDMDL
MODEL 8
REMARK VINA RESULT:      -8.7      6.127      9.429
REMARK  4 active torsions:
REMARK  status: ('A' for Active; 'I' for Inactive)
REMARK    1  A    between atoms: C2_7  and  N1_5 
REMARK       I    between atoms: C6_11  and  N1_5 
REMARK    2  A    between atoms: C1_6  and  C2_7 
REMARK    3  A    between atoms: C1_6  and  C3_8 
REMARK    4  A    between atoms: C4_9  and  C6_11 
ROOT
HETATM    1  O2  UNK     1      17.330  -1.129  35.693  1.00  0.00    -0.267 OA
HETATM    2  N1  UNK     1      19.427  -2.145  35.615  1.00  0.00    -0.356 N 
HETATM    3  C6  UNK     1      18.397  -1.359  35.129  1.00  0.00     0.257 C 
HETATM    4  H5  UNK     1      20.260  -2.297  35.056  1.00  0.00     0.162 HD
ENDROOT
BRANCH   3   5
HETATM    5  C4  UNK     1      18.691  -0.785  33.810  1.00  0.00     0.108 A 
HETATM    6  C11 UNK     1      18.368   0.620  33.475  1.00  0.00     0.304 A 
HETATM    7  O1  UNK     1      18.695   1.047  32.191  1.00  0.00    -0.274 OA
HETATM    8  O3  UNK     1      17.838   1.373  34.284  1.00  0.00    -0.259 OA
HETATM    9  C8  UNK     1      19.305   0.190  31.255  1.00  0.00     0.089 A 
HETATM   10  C13 UNK     1      19.595   0.709  29.995  1.00  0.00     0.038 A 
HETATM   11  C5  UNK     1      19.600  -1.127  31.590  1.00  0.00    -0.001 A 
HETATM   12  C17 UNK     1      20.198  -0.115  29.047  1.00  0.00     0.003 A 
HETATM   13  C16 UNK     1      20.501  -1.441  29.365  1.00  0.00     0.001 A 
HETATM   14  C12 UNK     1      20.204  -1.948  30.634  1.00  0.00     0.014 A 
HETATM   15  C7  UNK     1      19.270  -1.605  32.923  1.00  0.00     0.037 A 
ENDBRANCH   3   5
BRANCH   2  16
HETATM   16  C2  UNK     1      19.371  -2.813  36.894  1.00  0.00     0.127 C 
BRANCH  16  17
HETATM   17  C1  UNK     1      20.492  -3.834  37.072  1.00  0.00     0.058 C 
BRANCH  17  18
HETATM   18  C3  UNK     1      19.985  -5.208  37.434  1.00  0.00    -0.057 A 
HETATM   19  C10 UNK     1      18.968  -5.777  36.685  1.00  0.00     0.010 A 
HETATM   20  C15 UNK     1      18.498  -7.047  37.020  1.00  0.00     0.043 A 
HETATM   21  C18 UNK     1      19.053  -7.732  38.100  1.00  0.00     0.116 A 
HETATM   22  C14 UNK     1      20.077  -7.148  38.846  1.00  0.00     0.043 A 
HETATM   23  F1  UNK     1      18.602  -8.952  38.423  1.00  0.00    -0.206 F 
HETATM   24  C9  UNK     1      20.546  -5.878  38.511  1.00  0.00     0.010 A 
ENDBRANCH  17  18
ENDBRANCH  16  17
ENDBRANCH   2  16
TORSDOF 4
ENDMDL
MODEL 9
REMARK VINA RESULT:      -8.6      6.408      9.804
REMARK  4 active torsions:
REMARK  status: ('A' for Active; 'I' for Inactive)
REMARK    1  A    between atoms: C2_7  and  N1_5 
REMARK       I    between atoms: C6_11  and  N1_5 
REMARK    2  A    between atoms: C1_6  and  C2_7 
REMARK    3  A    between atoms: C1_6  and  C3_8 
REMARK    4  A    between atoms: C4_9  and  C6_11 
ROOT
HETATM    1  O2  UNK     1      17.994  -1.126  36.198  1.00  0.00    -0.267 OA
HETATM    2  N1  UNK     1      19.603  -2.698  35.584  1.00  0.00    -0.356 N 
HETATM    3  C6  UNK     1      18.785  -1.600  35.385  1.00  0.00     0.257 C 
HETATM    4  H5  UNK     1      20.203  -3.030  34.836  1.00  0.00     0.162 HD
ENDROOT
BRANCH   3   5
HETATM    5  C4  UNK     1      18.944  -1.004  34.052  1.00  0.00     0.108 A 
HETATM    6  C11 UNK     1      18.502   0.376  33.751  1.00  0.00     0.304 A 
HETATM    7  O1  UNK     1      18.705   0.827  32.450  1.00  0.00    -0.274 OA
HETATM    8  O3  UNK     1      17.980   1.089  34.601  1.00  0.00    -0.259 OA
HETATM    9  C8  UNK     1      19.304   0.015  31.467  1.00  0.00     0.089 A 
HETATM   10  C13 UNK     1      19.466   0.556  30.192  1.00  0.00     0.038 A 
HETATM   11  C5  UNK     1      19.712  -1.278  31.771  1.00  0.00    -0.001 A 
HETATM   12  C17 UNK     1      20.054  -0.223  29.199  1.00  0.00     0.003 A 
HETATM   13  C16 UNK     1      20.470  -1.525  29.485  1.00  0.00     0.001 A 
HETATM   14  C12 UNK     1      20.301  -2.053  30.769  1.00  0.00     0.014 A 
HETATM   15  C7  UNK     1      19.512  -1.781  33.121  1.00  0.00     0.037 A 
ENDBRANCH   3   5
BRANCH   2  16
HETATM   16  C2  UNK     1      19.626  -3.449  36.818  1.00  0.00     0.127 C 
BRANCH  16  17
HETATM   17  C1  UNK     1      19.516  -4.954  36.590  1.00  0.00     0.058 C 
BRANCH  17  18
HETATM   18  C3  UNK     1      20.271  -5.762  37.617  1.00  0.00    -0.057 A 
HETATM   19  C10 UNK     1      21.615  -5.500  37.834  1.00  0.00     0.010 A 
HETATM   20  C15 UNK     1      22.312  -6.247  38.783  1.00  0.00     0.043 A 
HETATM   21  C18 UNK     1      21.657  -7.245  39.504  1.00  0.00     0.116 A 
HETATM   22  C14 UNK     1      20.305  -7.496  39.277  1.00  0.00     0.043 A 
HETATM   23  F1  UNK     1      22.328  -7.962  40.415  1.00  0.00    -0.206 F 
HETATM   24  C9  UNK     1      19.607  -6.750  38.327  1.00  0.00     0.010 A 
ENDBRANCH  17  18
ENDBRANCH  16  17
ENDBRANCH   2  16
TORSDOF 4
ENDMDL
MODEL 10
REMARK VINA RESULT:      -8.5      2.068      3.027
REMARK  4 active torsions:
REMARK  status: ('A' for Active; 'I' for Inactive)
REMARK    1  A    between atoms: C2_7  and  N1_5 
REMARK       I    between atoms: C6_11  and  N1_5 
REMARK    2  A    between atoms: C1_6  and  C2_7 
REMARK    3  A    between atoms: C1_6  and  C3_8 
REMARK    4  A    between atoms: C4_9  and  C6_11 
ROOT
HETATM    1  O2  UNK     1      18.932   4.699  30.319  1.00  0.00    -0.267 OA
HETATM    2  N1  UNK     1      17.531   4.512  32.173  1.00  0.00    -0.356 N 
HETATM    3  C6  UNK     1      18.413   4.040  31.218  1.00  0.00     0.257 C 
HETATM    4  H5  UNK     1      17.134   3.877  32.859  1.00  0.00     0.162 HD
ENDROOT
BRANCH   3   5
HETATM    5  C4  UNK     1      18.704   2.608  31.366  1.00  0.00     0.108 A 
HETATM    6  C11 UNK     1      18.410   1.872  32.617  1.00  0.00     0.304 A 
HETATM    7  O1  UNK     1      18.732   0.518  32.635  1.00  0.00    -0.274 OA
HETATM    8  O3  UNK     1      17.909   2.424  33.590  1.00  0.00    -0.259 OA
HETATM    9  C8  UNK     1      19.307  -0.125  31.522  1.00  0.00     0.089 A 
HETATM   10  C13 UNK     1      19.592  -1.484  31.636  1.00  0.00     0.038 A 
HETATM   11  C5  UNK     1      19.574   0.585  30.356  1.00  0.00    -0.001 A 
HETATM   12  C17 UNK     1      20.162  -2.147  30.551  1.00  0.00     0.003 A 
HETATM   13  C16 UNK     1      20.439  -1.450  29.372  1.00  0.00     0.001 A 
HETATM   14  C12 UNK     1      20.146  -0.087  29.273  1.00  0.00     0.014 A 
HETATM   15  C7  UNK     1      19.251   2.002  30.305  1.00  0.00     0.037 A 
ENDBRANCH   3   5
BRANCH   2  16
HETATM   16  C2  UNK     1      17.097   5.888  32.233  1.00  0.00     0.127 C 
BRANCH  16  17
HETATM   17  C1  UNK     1      17.258   6.494  33.625  1.00  0.00     0.058 C 
BRANCH  17  18
HETATM   18  C3  UNK     1      16.257   7.586  33.910  1.00  0.00    -0.057 A 
HETATM   19  C10 UNK     1      14.974   7.485  33.395  1.00  0.00     0.010 A 
HETATM   20  C15 UNK     1      14.049   8.495  33.658  1.00  0.00     0.043 A 
HETATM   21  C18 UNK     1      14.419   9.593  34.433  1.00  0.00     0.116 A 
HETATM   22  C14 UNK     1      15.712   9.682  34.947  1.00  0.00     0.043 A 
HETATM   23  F1  UNK     1      13.530  10.565  34.686  1.00  0.00    -0.206 F 
HETATM   24  C9  UNK     1      16.638   8.672  34.683  1.00  0.00     0.010 A 
ENDBRANCH  17  18
ENDBRANCH  16  17
ENDBRANCH   2  16
TORSDOF 4
ENDMDL
