MODEL 1
REMARK VINA RESULT:      -7.3      0.000      0.000
REMARK  3 active torsions:
REMARK  status: ('A' for Active; 'I' for Inactive)
REMARK    1  A    between atoms: C1_5  and  O1_1 
REMARK    2  A    between atoms: C8_12  and  O1_1 
REMARK    3  A    between atoms: C3_7  and  C8_12 
ROOT
HETATM    1  O2  UNK     1      18.891   1.887  30.533  1.00  0.00    -0.274 OA
HETATM    2  O4  UNK     1      17.914   3.411  31.927  1.00  0.00    -0.259 OA
HETATM    3  C2  UNK     1      19.455  -0.323  31.378  1.00  0.00    -0.001 A 
HETATM    4  C3  UNK     1      18.419   1.292  32.858  1.00  0.00     0.115 A 
HETATM    5  C4  UNK     1      19.425   0.599  30.335  1.00  0.00     0.089 A 
HETATM    6  C5  UNK     1      18.926   0.066  32.676  1.00  0.00     0.038 A 
HETATM    7  C9  UNK     1      19.993  -1.591  31.142  1.00  0.00     0.014 A 
HETATM    8  C10 UNK     1      18.377   2.287  31.764  1.00  0.00     0.304 A 
HETATM    9  C11 UNK     1      19.916   0.289  29.069  1.00  0.00     0.038 A 
HETATM   10  C12 UNK     1      20.488  -1.915  29.876  1.00  0.00     0.001 A 
HETATM   11  C13 UNK     1      20.451  -0.978  28.842  1.00  0.00     0.003 A 
ENDROOT
BRANCH   4  12
HETATM   12  C8  UNK     1      17.910   1.590  34.202  1.00  0.00     0.299 C 
HETATM   13  O3  UNK     1      18.540   2.216  35.037  1.00  0.00    -0.259 OA
BRANCH  12  14
HETATM   14  O1  UNK     1      16.668   1.059  34.321  1.00  0.00    -0.313 OA
BRANCH  14  15
HETATM   15  C1  UNK     1      16.496   0.143  35.408  1.00  0.00     0.124 C 
HETATM   16  C6  UNK     1      15.449   0.691  36.364  1.00  0.00     0.040 C 
HETATM   17  C7  UNK     1      16.103  -1.220  34.858  1.00  0.00     0.040 C 
ENDBRANCH  14  15
ENDBRANCH  12  14
ENDBRANCH   4  12
TORSDOF 3
ENDMDL
MODEL 2
REMARK VINA RESULT:      -7.3      2.033      2.475
REMARK  3 active torsions:
REMARK  status: ('A' for Active; 'I' for Inactive)
REMARK    1  A    between atoms: C1_5  and  O1_1 
REMARK    2  A    between atoms: C8_12  and  O1_1 
REMARK    3  A    between atoms: C3_7  and  C8_12 
ROOT
HETATM    1  O2  UNK     1      18.817   1.181  31.672  1.00  0.00    -0.274 OA
HETATM    2  O4  UNK     1      17.709   1.927  33.526  1.00  0.00    -0.259 OA
HETATM    3  C2  UNK     1      19.534  -1.140  31.555  1.00  0.00    -0.001 A 
HETATM    4  C3  UNK     1      18.359  -0.352  33.522  1.00  0.00     0.115 A 
HETATM    5  C4  UNK     1      19.449   0.127  30.984  1.00  0.00     0.089 A 
HETATM    6  C5  UNK     1      18.959  -1.357  32.873  1.00  0.00     0.038 A 
HETATM    7  C9  UNK     1      20.168  -2.160  30.841  1.00  0.00     0.014 A 
HETATM    8  C10 UNK     1      18.257   1.003  32.934  1.00  0.00     0.304 A 
HETATM    9  C11 UNK     1      19.978   0.401  29.725  1.00  0.00     0.038 A 
HETATM   10  C12 UNK     1      20.704  -1.899  29.577  1.00  0.00     0.001 A 
HETATM   11  C13 UNK     1      20.610  -0.622  29.020  1.00  0.00     0.003 A 
ENDROOT
BRANCH   4  12
HETATM   12  C8  UNK     1      17.811  -0.670  34.846  1.00  0.00     0.299 C 
HETATM   13  O3  UNK     1      16.618  -0.773  35.074  1.00  0.00    -0.259 OA
BRANCH  12  14
HETATM   14  O1  UNK     1      18.841  -0.818  35.715  1.00  0.00    -0.313 OA
BRANCH  14  15
HETATM   15  C1  UNK     1      18.740  -1.941  36.597  1.00  0.00     0.124 C 
HETATM   16  C6  UNK     1      20.070  -2.678  36.624  1.00  0.00     0.040 C 
HETATM   17  C7  UNK     1      18.332  -1.458  37.980  1.00  0.00     0.040 C 
ENDBRANCH  14  15
ENDBRANCH  12  14
ENDBRANCH   4  12
TORSDOF 3
ENDMDL
MODEL 3
REMARK VINA RESULT:      -7.3      2.128      4.298
REMARK  3 active torsions:
REMARK  status: ('A' for Active; 'I' for Inactive)
REMARK    1  A    between atoms: C1_5  and  O1_1 
REMARK    2  A    between atoms: C8_12  and  O1_1 
REMARK    3  A    between atoms: C3_7  and  C8_12 
ROOT
HETATM    1  O2  UNK     1      18.710   0.404  32.792  1.00  0.00    -0.274 OA
HETATM    2  O4  UNK     1      17.814   2.076  34.064  1.00  0.00    -0.259 OA
HETATM    3  C2  UNK     1      19.393   0.870  30.505  1.00  0.00    -0.001 A 
HETATM    4  C3  UNK     1      18.444   2.646  31.852  1.00  0.00     0.115 A 
HETATM    5  C4  UNK     1      19.257  -0.021  31.565  1.00  0.00     0.089 A 
HETATM    6  C5  UNK     1      18.962   2.248  30.685  1.00  0.00     0.038 A 
HETATM    7  C9  UNK     1      19.941   0.411  29.304  1.00  0.00     0.014 A 
HETATM    8  C10 UNK     1      18.289   1.716  32.993  1.00  0.00     0.304 A 
HETATM    9  C11 UNK     1      19.650  -1.353  31.459  1.00  0.00     0.038 A 
HETATM   10  C12 UNK     1      20.340  -0.923  29.183  1.00  0.00     0.001 A 
HETATM   11  C13 UNK     1      20.195  -1.803  30.257  1.00  0.00     0.003 A 
ENDROOT
BRANCH   4  12
HETATM   12  C8  UNK     1      18.038   4.055  31.935  1.00  0.00     0.299 C 
HETATM   13  O3  UNK     1      16.973   4.474  31.516  1.00  0.00    -0.259 OA
BRANCH  12  14
HETATM   14  O1  UNK     1      19.029   4.755  32.540  1.00  0.00    -0.313 OA
BRANCH  14  15
HETATM   15  C1  UNK     1      19.334   6.020  31.944  1.00  0.00     0.124 C 
HETATM   16  C6  UNK     1      20.113   6.867  32.937  1.00  0.00     0.040 C 
HETATM   17  C7  UNK     1      20.116   5.793  30.658  1.00  0.00     0.040 C 
ENDBRANCH  14  15
ENDBRANCH  12  14
ENDBRANCH   4  12
TORSDOF 3
ENDMDL
MODEL 4
REMARK VINA RESULT:      -7.2      2.936      4.260
REMARK  3 active torsions:
REMARK  status: ('A' for Active; 'I' for Inactive)
REMARK    1  A    between atoms: C1_5  and  O1_1 
REMARK    2  A    between atoms: C8_12  and  O1_1 
REMARK    3  A    between atoms: C3_7  and  C8_12 
ROOT
HETATM    1  O2  UNK     1      19.037   1.237  28.612  1.00  0.00    -0.274 OA
HETATM    2  O4  UNK     1      18.195   3.359  28.529  1.00  0.00    -0.259 OA
HETATM    3  C2  UNK     1      19.577   0.244  30.766  1.00  0.00    -0.001 A 
HETATM    4  C3  UNK     1      18.684   2.495  30.680  1.00  0.00     0.115 A 
HETATM    5  C4  UNK     1      19.516   0.156  29.379  1.00  0.00     0.089 A 
HETATM    6  C5  UNK     1      19.139   1.471  31.413  1.00  0.00     0.038 A 
HETATM    7  C9  UNK     1      20.057  -0.849  31.491  1.00  0.00     0.014 A 
HETATM    8  C10 UNK     1      18.610   2.423  29.204  1.00  0.00     0.304 A 
HETATM    9  C11 UNK     1      19.919  -0.991  28.698  1.00  0.00     0.038 A 
HETATM   10  C12 UNK     1      20.466  -2.006  30.821  1.00  0.00     0.001 A 
HETATM   11  C13 UNK     1      20.398  -2.077  29.428  1.00  0.00     0.003 A 
ENDROOT
BRANCH   4  12
HETATM   12  C8  UNK     1      18.266   3.690  31.424  1.00  0.00     0.299 C 
HETATM   13  O3  UNK     1      17.101   3.967  31.652  1.00  0.00    -0.259 OA
BRANCH  12  14
HETATM   14  O1  UNK     1      19.374   4.383  31.786  1.00  0.00    -0.313 OA
BRANCH  14  15
HETATM   15  C1  UNK     1      19.363   5.773  31.445  1.00  0.00     0.124 C 
HETATM   16  C6  UNK     1      20.080   6.560  32.530  1.00  0.00     0.040 C 
HETATM   17  C7  UNK     1      20.016   5.960  30.084  1.00  0.00     0.040 C 
ENDBRANCH  14  15
ENDBRANCH  12  14
ENDBRANCH   4  12
TORSDOF 3
ENDMDL
MODEL 5
REMARK VINA RESULT:      -7.1      2.609      6.110
REMARK  3 active torsions:
REMARK  status: ('A' for Active; 'I' for Inactive)
REMARK    1  A    between atoms: C1_5  and  O1_1 
REMARK    2  A    between atoms: C8_12  and  O1_1 
REMARK    3  A    between atoms: C3_7  and  C8_12 
ROOT
HETATM    1  O2  UNK     1      18.048   3.324  33.420  1.00  0.00    -0.274 OA
HETATM    2  O4  UNK     1      18.114   1.085  32.973  1.00  0.00    -0.259 OA
HETATM    3  C2  UNK     1      18.446   4.917  31.626  1.00  0.00    -0.001 A 
HETATM    4  C3  UNK     1      18.516   2.543  31.150  1.00  0.00     0.115 A 
HETATM    5  C4  UNK     1      18.162   4.652  32.962  1.00  0.00     0.089 A 
HETATM    6  C5  UNK     1      18.625   3.802  30.710  1.00  0.00     0.038 A 
HETATM    7  C9  UNK     1      18.550   6.247  31.211  1.00  0.00     0.014 A 
HETATM    8  C10 UNK     1      18.213   2.237  32.566  1.00  0.00     0.304 A 
HETATM    9  C11 UNK     1      17.979   5.674  33.891  1.00  0.00     0.038 A 
HETATM   10  C12 UNK     1      18.369   7.283  32.132  1.00  0.00     0.001 A 
HETATM   11  C13 UNK     1      18.085   6.997  33.468  1.00  0.00     0.003 A 
ENDROOT
BRANCH   4  12
HETATM   12  C8  UNK     1      18.713   1.487  30.149  1.00  0.00     0.299 C 
HETATM   13  O3  UNK     1      17.909   1.235  29.268  1.00  0.00    -0.259 OA
BRANCH  12  14
HETATM   14  O1  UNK     1      19.903   0.883  30.389  1.00  0.00    -0.313 OA
BRANCH  14  15
HETATM   15  C1  UNK     1      19.942  -0.521  30.114  1.00  0.00     0.124 C 
HETATM   16  C6  UNK     1      20.810  -0.768  28.890  1.00  0.00     0.040 C 
HETATM   17  C7  UNK     1      20.466  -1.258  31.338  1.00  0.00     0.040 C 
ENDBRANCH  14  15
ENDBRANCH  12  14
ENDBRANCH   4  12
TORSDOF 3
ENDMDL
MODEL 6
REMARK VINA RESULT:      -7.0     22.969     25.631
REMARK  3 active torsions:
REMARK  status: ('A' for Active; 'I' for Inactive)
REMARK    1  A    between atoms: C1_5  and  O1_1 
REMARK    2  A    between atoms: C8_12  and  O1_1 
REMARK    3  A    between atoms: C3_7  and  C8_12 
ROOT
HETATM    1  O2  UNK     1      11.147   7.136   9.481  1.00  0.00    -0.274 OA
HETATM    2  O4  UNK     1      12.853   7.451  10.967  1.00  0.00    -0.259 OA
HETATM    3  C2  UNK     1      11.650   6.428   7.209  1.00  0.00    -0.001 A 
HETATM    4  C3  UNK     1      13.461   6.761   8.784  1.00  0.00     0.115 A 
HETATM    5  C4  UNK     1      10.723   6.784   8.184  1.00  0.00     0.089 A 
HETATM    6  C5  UNK     1      13.064   6.426   7.551  1.00  0.00     0.038 A 
HETATM    7  C9  UNK     1      11.191   6.085   5.935  1.00  0.00     0.014 A 
HETATM    8  C10 UNK     1      12.493   7.143   9.837  1.00  0.00     0.304 A 
HETATM    9  C11 UNK     1       9.355   6.806   7.923  1.00  0.00     0.038 A 
HETATM   10  C12 UNK     1       9.821   6.103   5.658  1.00  0.00     0.001 A 
HETATM   11  C13 UNK     1       8.905   6.463   6.649  1.00  0.00     0.003 A 
ENDROOT
BRANCH   4  12
HETATM   12  C8  UNK     1      14.908   6.729   9.031  1.00  0.00     0.299 C 
HETATM   13  O3  UNK     1      15.573   5.708   9.006  1.00  0.00    -0.259 OA
BRANCH  12  14
HETATM   14  O1  UNK     1      15.332   7.994   9.278  1.00  0.00    -0.313 OA
BRANCH  14  15
HETATM   15  C1  UNK     1      16.488   8.098  10.115  1.00  0.00     0.124 C 
HETATM   16  C6  UNK     1      17.253   9.363   9.758  1.00  0.00     0.040 C 
HETATM   17  C7  UNK     1      16.053   8.091  11.573  1.00  0.00     0.040 C 
ENDBRANCH  14  15
ENDBRANCH  12  14
ENDBRANCH   4  12
TORSDOF 3
ENDMDL
MODEL 7
REMARK VINA RESULT:      -6.9      4.765      6.831
REMARK  3 active torsions:
REMARK  status: ('A' for Active; 'I' for Inactive)
REMARK    1  A    between atoms: C1_5  and  O1_1 
REMARK    2  A    between atoms: C8_12  and  O1_1 
REMARK    3  A    between atoms: C3_7  and  C8_12 
ROOT
HETATM    1  O2  UNK     1      19.551  -1.015  34.736  1.00  0.00    -0.274 OA
HETATM    2  O4  UNK     1      20.670  -2.921  34.157  1.00  0.00    -0.259 OA
HETATM    3  C2  UNK     1      18.496  -0.860  36.921  1.00  0.00    -0.001 A 
HETATM    4  C3  UNK     1      19.682  -2.882  36.310  1.00  0.00     0.115 A 
HETATM    5  C4  UNK     1      18.799  -0.296  35.686  1.00  0.00     0.089 A 
HETATM    6  C5  UNK     1      18.968  -2.204  37.216  1.00  0.00     0.038 A 
HETATM    7  C9  UNK     1      17.749  -0.115  37.837  1.00  0.00     0.014 A 
HETATM    8  C10 UNK     1      20.017  -2.302  34.990  1.00  0.00     0.304 A 
HETATM    9  C11 UNK     1      18.379   0.987  35.342  1.00  0.00     0.038 A 
HETATM   10  C12 UNK     1      17.319   1.173  37.505  1.00  0.00     0.001 A 
HETATM   11  C13 UNK     1      17.633   1.722  36.260  1.00  0.00     0.003 A 
ENDROOT
BRANCH   4  12
HETATM   12  C8  UNK     1      20.112  -4.231  36.700  1.00  0.00     0.299 C 
HETATM   13  O3  UNK     1      21.249  -4.501  37.048  1.00  0.00    -0.259 OA
BRANCH  12  14
HETATM   14  O1  UNK     1      19.049  -5.067  36.603  1.00  0.00    -0.313 OA
BRANCH  14  15
HETATM   15  C1  UNK     1      19.370  -6.462  36.572  1.00  0.00     0.124 C 
HETATM   16  C6  UNK     1      18.589  -7.181  37.660  1.00  0.00     0.040 C 
HETATM   17  C7  UNK     1      19.059  -7.017  35.190  1.00  0.00     0.040 C 
ENDBRANCH  14  15
ENDBRANCH  12  14
ENDBRANCH   4  12
TORSDOF 3
ENDMDL
MODEL 8
REMARK VINA RESULT:      -6.9     14.535     16.846
REMARK  3 active torsions:
REMARK  status: ('A' for Active; 'I' for Inactive)
REMARK    1  A    between atoms: C1_5  and  O1_1 
REMARK    2  A    between atoms: C8_12  and  O1_1 
REMARK    3  A    between atoms: C3_7  and  C8_12 
ROOT
HETATM    1  O2  UNK     1      19.260   1.012  15.318  1.00  0.00    -0.274 OA
HETATM    2  O4  UNK     1      19.296  -0.544  13.646  1.00  0.00    -0.259 OA
HETATM    3  C2  UNK     1      18.931   0.294  17.618  1.00  0.00    -0.001 A 
HETATM    4  C3  UNK     1      18.969  -1.358  15.847  1.00  0.00     0.115 A 
HETATM    5  C4  UNK     1      19.135   1.310  16.689  1.00  0.00     0.089 A 
HETATM    6  C5  UNK     1      18.849  -1.081  17.151  1.00  0.00     0.038 A 
HETATM    7  C9  UNK     1      18.813   0.630  18.970  1.00  0.00     0.014 A 
HETATM    8  C10 UNK     1      19.186  -0.294  14.841  1.00  0.00     0.304 A 
HETATM    9  C11 UNK     1      19.224   2.647  17.071  1.00  0.00     0.038 A 
HETATM   10  C12 UNK     1      18.899   1.967  19.367  1.00  0.00     0.001 A 
HETATM   11  C13 UNK     1      19.104   2.973  18.421  1.00  0.00     0.003 A 
ENDROOT
BRANCH   4  12
HETATM   12  C8  UNK     1      18.871  -2.775  15.473  1.00  0.00     0.299 C 
HETATM   13  O3  UNK     1      17.821  -3.395  15.454  1.00  0.00    -0.259 OA
BRANCH  12  14
HETATM   14  O1  UNK     1      20.113  -3.227  15.171  1.00  0.00    -0.313 OA
BRANCH  14  15
HETATM   15  C1  UNK     1      20.646  -4.200  16.076  1.00  0.00     0.124 C 
HETATM   16  C6  UNK     1      20.923  -5.490  15.320  1.00  0.00     0.040 C 
HETATM   17  C7  UNK     1      21.903  -3.643  16.726  1.00  0.00     0.040 C 
ENDBRANCH  14  15
ENDBRANCH  12  14
ENDBRANCH   4  12
TORSDOF 3
ENDMDL
MODEL 9
REMARK VINA RESULT:      -6.8      2.358      3.396
REMARK  3 active torsions:
REMARK  status: ('A' for Active; 'I' for Inactive)
REMARK    1  A    between atoms: C1_5  and  O1_1 
REMARK    2  A    between atoms: C8_12  and  O1_1 
REMARK    3  A    between atoms: C3_7  and  C8_12 
ROOT
HETATM    1  O2  UNK     1      20.600  -2.365  32.186  1.00  0.00    -0.274 OA
HETATM    2  O4  UNK     1      20.359  -3.041  34.354  1.00  0.00    -0.259 OA
HETATM    3  C2  UNK     1      19.430  -0.378  31.412  1.00  0.00    -0.001 A 
HETATM    4  C3  UNK     1      19.172  -1.094  33.712  1.00  0.00     0.115 A 
HETATM    5  C4  UNK     1      20.283  -1.449  31.163  1.00  0.00     0.089 A 
HETATM    6  C5  UNK     1      18.868  -0.221  32.744  1.00  0.00     0.038 A 
HETATM    7  C9  UNK     1      19.140   0.509  30.372  1.00  0.00     0.014 A 
HETATM    8  C10 UNK     1      20.079  -2.239  33.471  1.00  0.00     0.304 A 
HETATM    9  C11 UNK     1      20.855  -1.656  29.910  1.00  0.00     0.038 A 
HETATM   10  C12 UNK     1      19.706   0.313  29.109  1.00  0.00     0.001 A 
HETATM   11  C13 UNK     1      20.560  -0.767  28.878  1.00  0.00     0.003 A 
ENDROOT
BRANCH   4  12
HETATM   12  C8  UNK     1      18.556  -0.851  35.022  1.00  0.00     0.299 C 
HETATM   13  O3  UNK     1      17.737  -1.597  35.530  1.00  0.00    -0.259 OA
BRANCH  12  14
HETATM   14  O1  UNK     1      19.055   0.306  35.525  1.00  0.00    -0.313 OA
BRANCH  14  15
HETATM   15  C1  UNK     1      18.086   1.329  35.778  1.00  0.00     0.124 C 
HETATM   16  C6  UNK     1      17.946   1.527  37.279  1.00  0.00     0.040 C 
HETATM   17  C7  UNK     1      18.515   2.609  35.076  1.00  0.00     0.040 C 
ENDBRANCH  14  15
ENDBRANCH  12  14
ENDBRANCH   4  12
TORSDOF 3
ENDMDL
MODEL 10
REMARK VINA RESULT:      -6.8      2.157      4.048
REMARK  3 active torsions:
REMARK  status: ('A' for Active; 'I' for Inactive)
REMARK    1  A    between atoms: C1_5  and  O1_1 
REMARK    2  A    between atoms: C8_12  and  O1_1 
REMARK    3  A    between atoms: C3_7  and  C8_12 
ROOT
HETATM    1  O2  UNK     1      18.893   2.545  30.725  1.00  0.00    -0.274 OA
HETATM    2  O4  UNK     1      18.862   0.407  31.532  1.00  0.00    -0.259 OA
HETATM    3  C2  UNK     1      18.368   4.396  32.212  1.00  0.00    -0.001 A 
HETATM    4  C3  UNK     1      18.336   2.130  33.071  1.00  0.00     0.115 A 
HETATM    5  C4  UNK     1      18.724   3.925  30.952  1.00  0.00     0.089 A 
HETATM    6  C5  UNK     1      18.174   3.440  33.292  1.00  0.00     0.038 A 
HETATM    7  C9  UNK     1      18.211   5.772  32.398  1.00  0.00     0.014 A 
HETATM    8  C10 UNK     1      18.714   1.607  31.739  1.00  0.00     0.304 A 
HETATM    9  C11 UNK     1      18.925   4.786  29.876  1.00  0.00     0.038 A 
HETATM   10  C12 UNK     1      18.410   6.648  31.328  1.00  0.00     0.001 A 
HETATM   11  C13 UNK     1      18.765   6.157  30.070  1.00  0.00     0.003 A 
ENDROOT
BRANCH   4  12
HETATM   12  C8  UNK     1      18.117   1.246  34.222  1.00  0.00     0.299 C 
HETATM   13  O3  UNK     1      19.014   0.851  34.947  1.00  0.00    -0.259 OA
BRANCH  12  14
HETATM   14  O1  UNK     1      16.792   0.974  34.311  1.00  0.00    -0.313 OA
BRANCH  14  15
HETATM   15  C1  UNK     1      16.428   0.038  35.331  1.00  0.00     0.124 C 
HETATM   16  C6  UNK     1      15.329   0.638  36.193  1.00  0.00     0.040 C 
HETATM   17  C7  UNK     1      15.989  -1.266  34.680  1.00  0.00     0.040 C 
ENDBRANCH  14  15
ENDBRANCH  12  14
ENDBRANCH   4  12
TORSDOF 3
ENDMDL
