MODEL 1
REMARK VINA RESULT:      -8.9      0.000      0.000
REMARK  2 active torsions:
REMARK  status: ('A' for Active; 'I' for Inactive)
REMARK    1  A    between atoms: C4_9  and  N1_4 
REMARK    2  A    between atoms: C10_15  and  N2_5 
ROOT
HETATM    1  O1  UNK     1      19.323   2.830  20.182  1.00  0.00    -0.275 OA
HETATM    2  O2  UNK     1      19.402   2.836  22.471  1.00  0.00    -0.260 OA
HETATM    3  C1  UNK     1      19.256   0.699  19.006  1.00  0.00     0.000 A 
HETATM    4  C2  UNK     1      19.273   2.092  18.982  1.00  0.00     0.089 A 
HETATM    5  C3  UNK     1      19.206   0.004  17.796  1.00  0.00     0.047 A 
HETATM    6  C4  UNK     1      19.174   0.706  16.587  1.00  0.00     0.080 A 
HETATM    7  C5  UNK     1      19.241   2.804  17.785  1.00  0.00     0.040 A 
HETATM    8  C6  UNK     1      19.191   2.103  16.582  1.00  0.00     0.036 A 
HETATM    9  C7  UNK     1      19.293   0.021  20.290  1.00  0.00     0.020 A 
HETATM   10  C8  UNK     1      19.340   0.727  21.423  1.00  0.00     0.083 A 
HETATM   11  C9  UNK     1      19.358   2.201  21.422  1.00  0.00     0.288 A 
ENDROOT
BRANCH   6  12
HETATM   12  N1  UNK     1      19.124   0.006  15.377  1.00  0.00    -0.150 NA
HETATM   13  N2  UNK     1      19.287  -1.211  15.516  1.00  0.00    -0.150 NA
BRANCH  13  14
HETATM   14  C10 UNK     1      19.226  -1.858  14.263  1.00  0.00     0.079 A 
HETATM   15  C11 UNK     1      18.979  -3.224  14.209  1.00  0.00     0.035 A 
HETATM   16  C13 UNK     1      18.920  -3.863  12.971  1.00  0.00     0.021 A 
HETATM   17  C15 UNK     1      19.107  -3.131  11.798  1.00  0.00     0.011 A 
HETATM   18 Br1  UNK     1      19.027  -3.997  10.120  1.00  0.00    -0.051 Br
HETATM   19  C14 UNK     1      19.356  -1.760  11.864  1.00  0.00     0.021 A 
HETATM   20  C12 UNK     1      19.415  -1.121  13.102  1.00  0.00     0.035 A 
ENDBRANCH  13  14
ENDBRANCH   6  12
TORSDOF 2
ENDMDL
MODEL 2
REMARK VINA RESULT:      -8.3     14.251     17.097
REMARK  2 active torsions:
REMARK  status: ('A' for Active; 'I' for Inactive)
REMARK    1  A    between atoms: C4_9  and  N1_4 
REMARK    2  A    between atoms: C10_15  and  N2_5 
ROOT
HETATM    1  O1  UNK     1      16.785   9.051  34.998  1.00  0.00    -0.275 OA
HETATM    2  O2  UNK     1      15.080  10.468  35.573  1.00  0.00    -0.260 OA
HETATM    3  C1  UNK     1      16.351   7.264  33.402  1.00  0.00     0.000 A 
HETATM    4  C2  UNK     1      17.227   7.942  34.248  1.00  0.00     0.089 A 
HETATM    5  C3  UNK     1      16.827   6.171  32.675  1.00  0.00     0.047 A 
HETATM    6  C4  UNK     1      18.161   5.773  32.803  1.00  0.00     0.080 A 
HETATM    7  C5  UNK     1      18.559   7.557  34.384  1.00  0.00     0.040 A 
HETATM    8  C6  UNK     1      19.025   6.466  33.655  1.00  0.00     0.036 A 
HETATM    9  C7  UNK     1      14.975   7.719  33.309  1.00  0.00     0.020 A 
HETATM   10  C8  UNK     1      14.564   8.771  34.023  1.00  0.00     0.083 A 
HETATM   11  C9  UNK     1      15.473   9.504  34.924  1.00  0.00     0.288 A 
ENDROOT
BRANCH   6  12
HETATM   12  N1  UNK     1      18.633   4.677  32.073  1.00  0.00    -0.150 NA
HETATM   13  N2  UNK     1      17.799   3.771  31.968  1.00  0.00    -0.150 NA
BRANCH  13  14
HETATM   14  C10 UNK     1      18.335   2.698  31.224  1.00  0.00     0.079 A 
HETATM   15  C11 UNK     1      18.856   1.596  31.890  1.00  0.00     0.035 A 
HETATM   16  C13 UNK     1      19.387   0.536  31.154  1.00  0.00     0.021 A 
HETATM   17  C15 UNK     1      19.391   0.588  29.760  1.00  0.00     0.011 A 
HETATM   18 Br1  UNK     1      20.110  -0.848  28.763  1.00  0.00    -0.051 Br
HETATM   19  C14 UNK     1      18.866   1.700  29.101  1.00  0.00     0.021 A 
HETATM   20  C12 UNK     1      18.336   2.760  29.837  1.00  0.00     0.035 A 
ENDBRANCH  13  14
ENDBRANCH   6  12
TORSDOF 2
ENDMDL
MODEL 3
REMARK VINA RESULT:      -8.2     14.495     17.608
REMARK  2 active torsions:
REMARK  status: ('A' for Active; 'I' for Inactive)
REMARK    1  A    between atoms: C4_9  and  N1_4 
REMARK    2  A    between atoms: C10_15  and  N2_5 
ROOT
HETATM    1  O1  UNK     1      19.756  -1.169  31.460  1.00  0.00    -0.275 OA
HETATM    2  O2  UNK     1      20.702  -2.745  30.093  1.00  0.00    -0.260 OA
HETATM    3  C1  UNK     1      19.253   1.034  30.554  1.00  0.00     0.000 A 
HETATM    4  C2  UNK     1      19.254   0.138  31.621  1.00  0.00     0.089 A 
HETATM    5  C3  UNK     1      18.747   2.320  30.754  1.00  0.00     0.047 A 
HETATM    6  C4  UNK     1      18.253   2.690  32.009  1.00  0.00     0.080 A 
HETATM    7  C5  UNK     1      18.765   0.494  32.877  1.00  0.00     0.040 A 
HETATM    8  C6  UNK     1      18.262   1.778  33.067  1.00  0.00     0.036 A 
HETATM    9  C7  UNK     1      19.779   0.597  29.273  1.00  0.00     0.020 A 
HETATM   10  C8  UNK     1      20.253  -0.644  29.128  1.00  0.00     0.083 A 
HETATM   11  C9  UNK     1      20.264  -1.609  30.242  1.00  0.00     0.288 A 
ENDROOT
BRANCH   6  12
HETATM   12  N1  UNK     1      17.747   3.980  32.205  1.00  0.00    -0.150 NA
HETATM   13  N2  UNK     1      18.322   4.591  33.112  1.00  0.00    -0.150 NA
BRANCH  13  14
HETATM   14  C10 UNK     1      17.766   5.880  33.260  1.00  0.00     0.079 A 
HETATM   15  C11 UNK     1      16.628   6.222  32.540  1.00  0.00     0.035 A 
HETATM   16  C13 UNK     1      16.081   7.497  32.685  1.00  0.00     0.021 A 
HETATM   17  C15 UNK     1      16.675   8.417  33.549  1.00  0.00     0.011 A 
HETATM   18 Br1  UNK     1      15.933  10.144  33.745  1.00  0.00    -0.051 Br
HETATM   19  C14 UNK     1      17.818   8.064  34.266  1.00  0.00     0.021 A 
HETATM   20  C12 UNK     1      18.366   6.789  34.120  1.00  0.00     0.035 A 
ENDBRANCH  13  14
ENDBRANCH   6  12
TORSDOF 2
ENDMDL
MODEL 4
REMARK VINA RESULT:      -8.1     14.848     18.597
REMARK  2 active torsions:
REMARK  status: ('A' for Active; 'I' for Inactive)
REMARK    1  A    between atoms: C4_9  and  N1_4 
REMARK    2  A    between atoms: C10_15  and  N2_5 
ROOT
HETATM    1  O1  UNK     1      18.769   0.701  30.801  1.00  0.00    -0.275 OA
HETATM    2  O2  UNK     1      18.865   1.682  28.734  1.00  0.00    -0.260 OA
HETATM    3  C1  UNK     1      20.187  -1.224  31.263  1.00  0.00     0.000 A 
HETATM    4  C2  UNK     1      19.225  -0.305  31.678  1.00  0.00     0.089 A 
HETATM    5  C3  UNK     1      20.614  -2.204  32.161  1.00  0.00     0.047 A 
HETATM    6  C4  UNK     1      20.076  -2.253  33.451  1.00  0.00     0.080 A 
HETATM    7  C5  UNK     1      18.682  -0.341  32.960  1.00  0.00     0.040 A 
HETATM    8  C6  UNK     1      19.113  -1.322  33.849  1.00  0.00     0.036 A 
HETATM    9  C7  UNK     1      20.711  -1.128  29.912  1.00  0.00     0.020 A 
HETATM   10  C8  UNK     1      20.273  -0.173  29.087  1.00  0.00     0.083 A 
HETATM   11  C9  UNK     1      19.256   0.811  29.503  1.00  0.00     0.288 A 
ENDROOT
BRANCH   6  12
HETATM   12  N1  UNK     1      20.507  -3.237  34.348  1.00  0.00    -0.150 NA
HETATM   13  N2  UNK     1      19.691  -3.458  35.250  1.00  0.00    -0.150 NA
BRANCH  13  14
HETATM   14  C10 UNK     1      20.182  -4.456  36.118  1.00  0.00     0.079 A 
HETATM   15  C11 UNK     1      20.866  -4.086  37.269  1.00  0.00     0.035 A 
HETATM   16  C13 UNK     1      21.353  -5.073  38.126  1.00  0.00     0.021 A 
HETATM   17  C15 UNK     1      21.151  -6.420  37.826  1.00  0.00     0.011 A 
HETATM   18 Br1  UNK     1      21.810  -7.757  38.988  1.00  0.00    -0.051 Br
HETATM   19  C14 UNK     1      20.463  -6.781  36.667  1.00  0.00     0.021 A 
HETATM   20  C12 UNK     1      19.977  -5.794  35.810  1.00  0.00     0.035 A 
ENDBRANCH  13  14
ENDBRANCH   6  12
TORSDOF 2
ENDMDL
MODEL 5
REMARK VINA RESULT:      -7.8     14.571     17.217
REMARK  2 active torsions:
REMARK  status: ('A' for Active; 'I' for Inactive)
REMARK    1  A    between atoms: C4_9  and  N1_4 
REMARK    2  A    between atoms: C10_15  and  N2_5 
ROOT
HETATM    1  O1  UNK     1      19.912  -0.660  29.616  1.00  0.00    -0.275 OA
HETATM    2  O2  UNK     1      20.642  -2.810  29.916  1.00  0.00    -0.260 OA
HETATM    3  C1  UNK     1      19.105   0.594  31.540  1.00  0.00     0.000 A 
HETATM    4  C2  UNK     1      19.379   0.519  30.176  1.00  0.00     0.089 A 
HETATM    5  C3  UNK     1      18.578   1.780  32.058  1.00  0.00     0.047 A 
HETATM    6  C4  UNK     1      18.335   2.865  31.210  1.00  0.00     0.080 A 
HETATM    7  C5  UNK     1      19.142   1.593  29.321  1.00  0.00     0.040 A 
HETATM    8  C6  UNK     1      18.617   2.771  29.845  1.00  0.00     0.036 A 
HETATM    9  C7  UNK     1      19.375  -0.563  32.374  1.00  0.00     0.020 A 
HETATM   10  C8  UNK     1      19.880  -1.677  31.836  1.00  0.00     0.083 A 
HETATM   11  C9  UNK     1      20.179  -1.781  30.396  1.00  0.00     0.288 A 
ENDROOT
BRANCH   6  12
HETATM   12  N1  UNK     1      17.807   4.051  31.733  1.00  0.00    -0.150 NA
HETATM   13  N2  UNK     1      18.649   4.951  31.832  1.00  0.00    -0.150 NA
BRANCH  13  14
HETATM   14  C10 UNK     1      18.056   6.116  32.363  1.00  0.00     0.079 A 
HETATM   15  C11 UNK     1      18.865   7.120  32.883  1.00  0.00     0.035 A 
HETATM   16  C13 UNK     1      18.278   8.271  33.409  1.00  0.00     0.021 A 
HETATM   17  C15 UNK     1      16.890   8.409  33.411  1.00  0.00     0.011 A 
HETATM   18 Br1  UNK     1      16.097   9.969  34.124  1.00  0.00    -0.051 Br
HETATM   19  C14 UNK     1      16.088   7.395  32.888  1.00  0.00     0.021 A 
HETATM   20  C12 UNK     1      16.674   6.244  32.362  1.00  0.00     0.035 A 
ENDBRANCH  13  14
ENDBRANCH   6  12
TORSDOF 2
ENDMDL
MODEL 6
REMARK VINA RESULT:      -7.8     13.854     16.378
REMARK  2 active torsions:
REMARK  status: ('A' for Active; 'I' for Inactive)
REMARK    1  A    between atoms: C4_9  and  N1_4 
REMARK    2  A    between atoms: C10_15  and  N2_5 
ROOT
HETATM    1  O1  UNK     1      16.806   8.974  32.514  1.00  0.00    -0.275 OA
HETATM    2  O2  UNK     1      15.949  10.588  33.894  1.00  0.00    -0.260 OA
HETATM    3  C1  UNK     1      17.284   6.768  33.427  1.00  0.00     0.000 A 
HETATM    4  C2  UNK     1      17.269   7.653  32.351  1.00  0.00     0.089 A 
HETATM    5  C3  UNK     1      17.750   5.467  33.225  1.00  0.00     0.047 A 
HETATM    6  C4  UNK     1      18.192   5.072  31.959  1.00  0.00     0.080 A 
HETATM    7  C5  UNK     1      17.706   7.271  31.083  1.00  0.00     0.040 A 
HETATM    8  C6  UNK     1      18.168   5.972  30.890  1.00  0.00     0.036 A 
HETATM    9  C7  UNK     1      16.816   7.232  34.721  1.00  0.00     0.020 A 
HETATM   10  C8  UNK     1      16.378   8.486  34.868  1.00  0.00     0.083 A 
HETATM   11  C9  UNK     1      16.353   9.440  33.744  1.00  0.00     0.288 A 
ENDROOT
BRANCH   6  12
HETATM   12  N1  UNK     1      18.657   3.767  31.760  1.00  0.00    -0.150 NA
HETATM   13  N2  UNK     1      18.340   3.304  30.659  1.00  0.00    -0.150 NA
BRANCH  13  14
HETATM   14  C10 UNK     1      18.837   1.990  30.521  1.00  0.00     0.079 A 
HETATM   15  C11 UNK     1      19.161   1.510  29.259  1.00  0.00     0.035 A 
HETATM   16  C13 UNK     1      19.651   0.211  29.123  1.00  0.00     0.021 A 
HETATM   17  C15 UNK     1      19.814  -0.595  30.250  1.00  0.00     0.011 A 
HETATM   18 Br1  UNK     1      20.479  -2.355  30.065  1.00  0.00    -0.051 Br
HETATM   19  C14 UNK     1      19.485  -0.103  31.512  1.00  0.00     0.021 A 
HETATM   20  C12 UNK     1      18.995   1.196  31.649  1.00  0.00     0.035 A 
ENDBRANCH  13  14
ENDBRANCH   6  12
TORSDOF 2
ENDMDL
MODEL 7
REMARK VINA RESULT:      -7.8     14.210     16.888
REMARK  2 active torsions:
REMARK  status: ('A' for Active; 'I' for Inactive)
REMARK    1  A    between atoms: C4_9  and  N1_4 
REMARK    2  A    between atoms: C10_15  and  N2_5 
ROOT
HETATM    1  O1  UNK     1      16.511   9.468  33.573  1.00  0.00    -0.275 OA
HETATM    2  O2  UNK     1      16.802  11.523  34.541  1.00  0.00    -0.260 OA
HETATM    3  C1  UNK     1      18.446   8.025  33.256  1.00  0.00     0.000 A 
HETATM    4  C2  UNK     1      17.078   8.258  33.127  1.00  0.00     0.089 A 
HETATM    5  C3  UNK     1      18.970   6.813  32.804  1.00  0.00     0.047 A 
HETATM    6  C4  UNK     1      18.126   5.856  32.231  1.00  0.00     0.080 A 
HETATM    7  C5  UNK     1      16.226   7.313  32.559  1.00  0.00     0.040 A 
HETATM    8  C6  UNK     1      16.757   6.106  32.110  1.00  0.00     0.036 A 
HETATM    9  C7  UNK     1      19.277   9.053  33.857  1.00  0.00     0.020 A 
HETATM   10  C8  UNK     1      18.732  10.199  34.277  1.00  0.00     0.083 A 
HETATM   11  C9  UNK     1      17.287  10.467  34.151  1.00  0.00     0.288 A 
ENDROOT
BRANCH   6  12
HETATM   12  N1  UNK     1      18.655   4.643  31.778  1.00  0.00    -0.150 NA
HETATM   13  N2  UNK     1      17.785   3.806  31.512  1.00  0.00    -0.150 NA
BRANCH  13  14
HETATM   14  C10 UNK     1      18.381   2.608  31.063  1.00  0.00     0.079 A 
HETATM   15  C11 UNK     1      18.627   2.431  29.708  1.00  0.00     0.035 A 
HETATM   16  C13 UNK     1      19.215   1.246  29.264  1.00  0.00     0.021 A 
HETATM   17  C15 UNK     1      19.553   0.250  30.180  1.00  0.00     0.011 A 
HETATM   18 Br1  UNK     1      20.349  -1.355  29.580  1.00  0.00    -0.051 Br
HETATM   19  C14 UNK     1      19.301   0.438  31.539  1.00  0.00     0.021 A 
HETATM   20  C12 UNK     1      18.713   1.623  31.983  1.00  0.00     0.035 A 
ENDBRANCH  13  14
ENDBRANCH   6  12
TORSDOF 2
ENDMDL
MODEL 8
REMARK VINA RESULT:      -7.8     23.466     24.644
REMARK  2 active torsions:
REMARK  status: ('A' for Active; 'I' for Inactive)
REMARK    1  A    between atoms: C4_9  and  N1_4 
REMARK    2  A    between atoms: C10_15  and  N2_5 
ROOT
HETATM    1  O1  UNK     1      30.924  -6.666  38.375  1.00  0.00    -0.275 OA
HETATM    2  O2  UNK     1      32.493  -5.023  38.667  1.00  0.00    -0.260 OA
HETATM    3  C1  UNK     1      28.564  -6.073  38.443  1.00  0.00     0.000 A 
HETATM    4  C2  UNK     1      29.565  -7.031  38.298  1.00  0.00     0.089 A 
HETATM    5  C3  UNK     1      27.229  -6.475  38.359  1.00  0.00     0.047 A 
HETATM    6  C4  UNK     1      26.916  -7.818  38.134  1.00  0.00     0.080 A 
HETATM    7  C5  UNK     1      29.267  -8.374  38.072  1.00  0.00     0.040 A 
HETATM    8  C6  UNK     1      27.933  -8.765  37.991  1.00  0.00     0.036 A 
HETATM    9  C7  UNK     1      28.945  -4.691  38.677  1.00  0.00     0.020 A 
HETATM   10  C8  UNK     1      30.236  -4.353  38.749  1.00  0.00     0.083 A 
HETATM   11  C9  UNK     1      31.313  -5.349  38.598  1.00  0.00     0.288 A 
ENDROOT
BRANCH   6  12
HETATM   12  N1  UNK     1      25.577  -8.217  38.051  1.00  0.00    -0.150 NA
HETATM   13  N2  UNK     1      24.819  -7.505  38.719  1.00  0.00    -0.150 NA
BRANCH  13  14
HETATM   14  C10 UNK     1      23.488  -7.957  38.594  1.00  0.00     0.079 A 
HETATM   15  C11 UNK     1      22.599  -7.769  39.645  1.00  0.00     0.035 A 
HETATM   16  C13 UNK     1      21.284  -8.217  39.522  1.00  0.00     0.021 A 
HETATM   17  C15 UNK     1      20.869  -8.848  38.349  1.00  0.00     0.011 A 
HETATM   18 Br1  UNK     1      19.088  -9.456  38.181  1.00  0.00    -0.051 Br
HETATM   19  C14 UNK     1      21.770  -9.033  37.300  1.00  0.00     0.021 A 
HETATM   20  C12 UNK     1      23.086  -8.585  37.424  1.00  0.00     0.035 A 
ENDBRANCH  13  14
ENDBRANCH   6  12
TORSDOF 2
ENDMDL
MODEL 9
REMARK VINA RESULT:      -7.8     21.511     23.745
REMARK  2 active torsions:
REMARK  status: ('A' for Active; 'I' for Inactive)
REMARK    1  A    between atoms: C4_9  and  N1_4 
REMARK    2  A    between atoms: C10_15  and  N2_5 
ROOT
HETATM    1  O1  UNK     1      18.957  -6.634  37.939  1.00  0.00    -0.275 OA
HETATM    2  O2  UNK     1      16.975  -6.319  36.836  1.00  0.00    -0.260 OA
HETATM    3  C1  UNK     1      20.816  -7.670  36.757  1.00  0.00     0.000 A 
HETATM    4  C2  UNK     1      20.286  -7.102  37.914  1.00  0.00     0.089 A 
HETATM    5  C3  UNK     1      22.138  -8.121  36.772  1.00  0.00     0.047 A 
HETATM    6  C4  UNK     1      22.906  -7.999  37.934  1.00  0.00     0.080 A 
HETATM    7  C5  UNK     1      21.041  -6.973  39.078  1.00  0.00     0.040 A 
HETATM    8  C6  UNK     1      22.358  -7.425  39.084  1.00  0.00     0.036 A 
HETATM    9  C7  UNK     1      19.974  -7.773  35.579  1.00  0.00     0.020 A 
HETATM   10  C8  UNK     1      18.715  -7.328  35.611  1.00  0.00     0.083 A 
HETATM   11  C9  UNK     1      18.132  -6.723  36.822  1.00  0.00     0.288 A 
ENDROOT
BRANCH   6  12
HETATM   12  N1  UNK     1      24.230  -8.452  37.944  1.00  0.00    -0.150 NA
HETATM   13  N2  UNK     1      25.005  -7.664  38.498  1.00  0.00    -0.150 NA
BRANCH  13  14
HETATM   14  C10 UNK     1      26.319  -8.176  38.475  1.00  0.00     0.079 A 
HETATM   15  C11 UNK     1      26.708  -9.107  39.430  1.00  0.00     0.035 A 
HETATM   16  C13 UNK     1      28.009  -9.612  39.408  1.00  0.00     0.021 A 
HETATM   17  C15 UNK     1      28.907  -9.183  38.431  1.00  0.00     0.011 A 
HETATM   18 Br1  UNK     1      30.669  -9.868  38.401  1.00  0.00    -0.051 Br
HETATM   19  C14 UNK     1      28.507  -8.247  37.477  1.00  0.00     0.021 A 
HETATM   20  C12 UNK     1      27.206  -7.742  37.500  1.00  0.00     0.035 A 
ENDBRANCH  13  14
ENDBRANCH   6  12
TORSDOF 2
ENDMDL
MODEL 10
REMARK VINA RESULT:      -7.7     23.486     24.745
REMARK  2 active torsions:
REMARK  status: ('A' for Active; 'I' for Inactive)
REMARK    1  A    between atoms: C4_9  and  N1_4 
REMARK    2  A    between atoms: C10_15  and  N2_5 
ROOT
HETATM    1  O1  UNK     1      30.544  -5.284  38.589  1.00  0.00    -0.275 OA
HETATM    2  O2  UNK     1      32.832  -5.347  38.491  1.00  0.00    -0.260 OA
HETATM    3  C1  UNK     1      29.290  -7.348  38.282  1.00  0.00     0.000 A 
HETATM    4  C2  UNK     1      29.318  -5.975  38.516  1.00  0.00     0.089 A 
HETATM    5  C3  UNK     1      28.055  -7.997  38.217  1.00  0.00     0.047 A 
HETATM    6  C4  UNK     1      26.874  -7.269  38.386  1.00  0.00     0.080 A 
HETATM    7  C5  UNK     1      28.148  -5.238  38.687  1.00  0.00     0.040 A 
HETATM    8  C6  UNK     1      26.920  -5.892  38.621  1.00  0.00     0.036 A 
HETATM    9  C7  UNK     1      30.548  -8.055  38.112  1.00  0.00     0.020 A 
HETATM   10  C8  UNK     1      31.706  -7.393  38.182  1.00  0.00     0.083 A 
HETATM   11  C9  UNK     1      31.760  -5.940  38.429  1.00  0.00     0.288 A 
ENDROOT
BRANCH   6  12
HETATM   12  N1  UNK     1      25.638  -7.923  38.321  1.00  0.00    -0.150 NA
HETATM   13  N2  UNK     1      24.695  -7.210  38.681  1.00  0.00    -0.150 NA
BRANCH  13  14
HETATM   14  C10 UNK     1      23.482  -7.925  38.593  1.00  0.00     0.079 A 
HETATM   15  C11 UNK     1      22.654  -8.009  39.706  1.00  0.00     0.035 A 
HETATM   16  C13 UNK     1      21.455  -8.716  39.619  1.00  0.00     0.021 A 
HETATM   17  C15 UNK     1      21.094  -9.333  38.421  1.00  0.00     0.011 A 
HETATM   18 Br1  UNK     1      19.470 -10.291  38.303  1.00  0.00    -0.051 Br
HETATM   19  C14 UNK     1      21.933  -9.243  37.310  1.00  0.00     0.021 A 
HETATM   20  C12 UNK     1      23.132  -8.535  37.397  1.00  0.00     0.035 A 
ENDBRANCH  13  14
ENDBRANCH   6  12
TORSDOF 2
ENDMDL
