MODEL 1
REMARK VINA RESULT:      -8.3      0.000      0.000
REMARK  2 active torsions:
REMARK  status: ('A' for Active; 'I' for Inactive)
REMARK       I    between atoms: C7_14  and  N1_6 
REMARK       I    between atoms: C10_17  and  N2_7 
REMARK    1  A    between atoms: C1_8  and  C7_14 
REMARK    2  A    between atoms: C10_17  and  C11_18 
ROOT
HETATM    1  O2  UNK     1      18.597  13.072   8.651  1.00  0.00    -0.270 OA
HETATM    2  O3  UNK     1      15.824   7.018   9.867  1.00  0.00    -0.267 OA
HETATM    3  N1  UNK     1      16.870  11.561   8.289  1.00  0.00    -0.347 N 
HETATM    4  N2  UNK     1      15.572   9.276   9.366  1.00  0.00    -0.345 N 
HETATM    5  C2  UNK     1      15.505  11.240   7.858  1.00  0.00     0.145 C 
HETATM    6  C3  UNK     1      17.664  10.400   8.690  1.00  0.00     0.145 C 
HETATM    7  C5  UNK     1      14.769  10.428   8.924  1.00  0.00     0.146 C 
HETATM    8  C6  UNK     1      16.941   9.607   9.773  1.00  0.00     0.146 C 
HETATM    9  C7  UNK     1      17.444  12.831   8.282  1.00  0.00     0.248 C 
HETATM   10  C10 UNK     1      15.125   7.963   9.494  1.00  0.00     0.260 C 
ENDROOT
BRANCH  10  11
HETATM   11  C11 UNK     1      13.714   7.681   9.164  1.00  0.00     0.108 A 
HETATM   12  C12 UNK     1      13.475   7.229   7.926  1.00  0.00     0.037 A 
HETATM   13  C14 UNK     1      12.116   6.922   7.508  1.00  0.00    -0.001 A 
HETATM   14  C15 UNK     1      11.075   7.106   8.412  1.00  0.00     0.089 A 
HETATM   15  C16 UNK     1      11.821   6.448   6.227  1.00  0.00     0.014 A 
HETATM   16  O4  UNK     1      11.334   7.582   9.712  1.00  0.00    -0.274 OA
HETATM   17  C17 UNK     1       9.752   6.831   8.074  1.00  0.00     0.038 A 
HETATM   18  C13 UNK     1      12.623   7.883  10.142  1.00  0.00     0.304 A 
HETATM   19  O5  UNK     1      12.837   8.298  11.277  1.00  0.00    -0.259 OA
HETATM   20  C19 UNK     1       9.466   6.359   6.795  1.00  0.00     0.003 A 
HETATM   21  C18 UNK     1      10.498   6.167   5.873  1.00  0.00     0.001 A 
ENDBRANCH  10  11
BRANCH   9  22
HETATM   22  C1  UNK     1      16.582  13.953   7.793  1.00  0.00     0.213 C 
HETATM   23  O1  UNK     1      16.943  15.104   8.561  1.00  0.00    -0.376 OA
HETATM   24  C9  UNK     1      17.512  16.082   7.679  1.00  0.00     0.168 C 
HETATM   25  C8  UNK     1      17.899  15.347   6.416  1.00  0.00     0.029 C 
HETATM   26  C4  UNK     1      16.831  14.282   6.334  1.00  0.00     0.043 C 
ENDBRANCH   9  22
TORSDOF 2
ENDMDL
MODEL 2
REMARK VINA RESULT:      -8.2     25.296     26.832
REMARK  2 active torsions:
REMARK  status: ('A' for Active; 'I' for Inactive)
REMARK       I    between atoms: C7_14  and  N1_6 
REMARK       I    between atoms: C10_17  and  N2_7 
REMARK    1  A    between atoms: C1_8  and  C7_14 
REMARK    2  A    between atoms: C10_17  and  C11_18 
ROOT
HETATM    1  O2  UNK     1      16.517  11.424  34.576  1.00  0.00    -0.270 OA
HETATM    2  O3  UNK     1      20.513   6.113  33.299  1.00  0.00    -0.267 OA
HETATM    3  N1  UNK     1      16.732   9.169  34.063  1.00  0.00    -0.347 N 
HETATM    4  N2  UNK     1      18.525   6.968  34.152  1.00  0.00    -0.345 N 
HETATM    5  C2  UNK     1      16.198   7.804  33.995  1.00  0.00     0.145 C 
HETATM    6  C3  UNK     1      18.084   9.315  33.524  1.00  0.00     0.145 C 
HETATM    7  C5  UNK     1      17.151   6.808  34.657  1.00  0.00     0.146 C 
HETATM    8  C6  UNK     1      19.039   8.341  34.205  1.00  0.00     0.146 C 
HETATM    9  C7  UNK     1      16.041  10.286  34.530  1.00  0.00     0.248 C 
HETATM   10  C10 UNK     1      19.365   5.946  33.717  1.00  0.00     0.260 C 
ENDROOT
BRANCH  10  11
HETATM   11  C11 UNK     1      18.850   4.564  33.764  1.00  0.00     0.108 A 
HETATM   12  C12 UNK     1      19.068   3.889  34.900  1.00  0.00     0.037 A 
HETATM   13  C14 UNK     1      18.598   2.520  35.041  1.00  0.00    -0.001 A 
HETATM   14  C15 UNK     1      17.921   1.927  33.980  1.00  0.00     0.089 A 
HETATM   15  C16 UNK     1      18.803   1.779  36.208  1.00  0.00     0.014 A 
HETATM   16  O4  UNK     1      17.695   2.643  32.787  1.00  0.00    -0.274 OA
HETATM   17  C17 UNK     1      17.445   0.620  34.051  1.00  0.00     0.038 A 
HETATM   18  C13 UNK     1      18.131   3.954  32.623  1.00  0.00     0.304 A 
HETATM   19  O5  UNK     1      17.930   4.568  31.580  1.00  0.00    -0.259 OA
HETATM   20  C19 UNK     1      17.655  -0.112  35.218  1.00  0.00     0.003 A 
HETATM   21  C18 UNK     1      18.331   0.466  36.294  1.00  0.00     0.001 A 
ENDBRANCH  10  11
BRANCH   9  22
HETATM   22  C1  UNK     1      14.639  10.058  35.001  1.00  0.00     0.213 C 
HETATM   23  O1  UNK     1      14.542  10.670  36.290  1.00  0.00    -0.376 OA
HETATM   24  C9  UNK     1      13.601  11.750  36.214  1.00  0.00     0.168 C 
HETATM   25  C8  UNK     1      13.440  12.075  34.746  1.00  0.00     0.029 C 
HETATM   26  C4  UNK     1      13.611  10.720  34.104  1.00  0.00     0.043 C 
ENDBRANCH   9  22
TORSDOF 2
ENDMDL
MODEL 3
REMARK VINA RESULT:      -8.2     24.302     27.039
REMARK  2 active torsions:
REMARK  status: ('A' for Active; 'I' for Inactive)
REMARK       I    between atoms: C7_14  and  N1_6 
REMARK       I    between atoms: C10_17  and  N2_7 
REMARK    1  A    between atoms: C1_8  and  C7_14 
REMARK    2  A    between atoms: C10_17  and  C11_18 
ROOT
HETATM    1  O2  UNK     1      18.120  -0.972  33.093  1.00  0.00    -0.270 OA
HETATM    2  O3  UNK     1      19.006   5.017  30.066  1.00  0.00    -0.267 OA
HETATM    3  N1  UNK     1      18.534   1.307  33.266  1.00  0.00    -0.347 N 
HETATM    4  N2  UNK     1      18.278   3.784  31.900  1.00  0.00    -0.345 N 
HETATM    5  C2  UNK     1      18.572   2.557  34.032  1.00  0.00     0.145 C 
HETATM    6  C3  UNK     1      19.016   1.428  31.890  1.00  0.00     0.145 C 
HETATM    7  C5  UNK     1      17.830   3.675  33.298  1.00  0.00     0.146 C 
HETATM    8  C6  UNK     1      18.256   2.523  31.152  1.00  0.00     0.146 C 
HETATM    9  C7  UNK     1      18.143   0.065  33.762  1.00  0.00     0.248 C 
HETATM   10  C10 UNK     1      18.634   4.958  31.241  1.00  0.00     0.260 C 
ENDROOT
BRANCH  10  11
HETATM   11  C11 UNK     1      18.557   6.223  31.996  1.00  0.00     0.108 A 
HETATM   12  C12 UNK     1      17.371   6.845  31.990  1.00  0.00     0.037 A 
HETATM   13  C14 UNK     1      17.196   8.098  32.707  1.00  0.00    -0.001 A 
HETATM   14  C15 UNK     1      18.278   8.637  33.394  1.00  0.00     0.089 A 
HETATM   15  C16 UNK     1      15.976   8.779  32.728  1.00  0.00     0.014 A 
HETATM   16  O4  UNK     1      19.524   7.980  33.396  1.00  0.00    -0.274 OA
HETATM   17  C17 UNK     1      18.177   9.835  34.100  1.00  0.00     0.038 A 
HETATM   18  C13 UNK     1      19.721   6.779  32.721  1.00  0.00     0.304 A 
HETATM   19  O5  UNK     1      20.810   6.214  32.728  1.00  0.00    -0.259 OA
HETATM   20  C19 UNK     1      16.957  10.508  34.115  1.00  0.00     0.003 A 
HETATM   21  C18 UNK     1      15.859   9.982  33.432  1.00  0.00     0.001 A 
ENDBRANCH  10  11
BRANCH   9  22
HETATM   22  C1  UNK     1      17.727   0.019  35.199  1.00  0.00     0.213 C 
HETATM   23  O1  UNK     1      16.899  -1.139  35.344  1.00  0.00    -0.376 OA
HETATM   24  C9  UNK     1      17.554  -2.062  36.225  1.00  0.00     0.168 C 
HETATM   25  C8  UNK     1      19.005  -1.644  36.283  1.00  0.00     0.029 C 
HETATM   26  C4  UNK     1      18.905  -0.144  36.139  1.00  0.00     0.043 C 
ENDBRANCH   9  22
TORSDOF 2
ENDMDL
MODEL 4
REMARK VINA RESULT:      -8.1      4.910      7.555
REMARK  2 active torsions:
REMARK  status: ('A' for Active; 'I' for Inactive)
REMARK       I    between atoms: C7_14  and  N1_6 
REMARK       I    between atoms: C10_17  and  N2_7 
REMARK    1  A    between atoms: C1_8  and  C7_14 
REMARK    2  A    between atoms: C10_17  and  C11_18 
ROOT
HETATM    1  O2  UNK     1      14.535   6.534   7.216  1.00  0.00    -0.270 OA
HETATM    2  O3  UNK     1       7.766   6.523   7.242  1.00  0.00    -0.267 OA
HETATM    3  N1  UNK     1      12.546   6.477   8.414  1.00  0.00    -0.347 N 
HETATM    4  N2  UNK     1       9.777   5.876   8.217  1.00  0.00    -0.345 N 
HETATM    5  C2  UNK     1      11.783   6.197   9.635  1.00  0.00     0.145 C 
HETATM    6  C3  UNK     1      11.755   7.056   7.328  1.00  0.00     0.145 C 
HETATM    7  C5  UNK     1      10.563   5.325   9.333  1.00  0.00     0.146 C 
HETATM    8  C6  UNK     1      10.556   6.172   7.010  1.00  0.00     0.146 C 
HETATM    9  C7  UNK     1      13.918   6.289   8.256  1.00  0.00     0.248 C 
HETATM   10  C10 UNK     1       8.397   6.058   8.194  1.00  0.00     0.260 C 
ENDROOT
BRANCH  10  11
HETATM   11  C11 UNK     1       7.631   5.663   9.392  1.00  0.00     0.108 A 
HETATM   12  C12 UNK     1       7.155   4.412   9.405  1.00  0.00     0.037 A 
HETATM   13  C14 UNK     1       6.387   3.930  10.543  1.00  0.00    -0.001 A 
HETATM   14  C15 UNK     1       6.157   4.790  11.612  1.00  0.00     0.089 A 
HETATM   15  C16 UNK     1       5.874   2.632  10.598  1.00  0.00     0.014 A 
HETATM   16  O4  UNK     1       6.659   6.106  11.592  1.00  0.00    -0.274 OA
HETATM   17  C17 UNK     1       5.429   4.391  12.731  1.00  0.00     0.038 A 
HETATM   18  C13 UNK     1       7.398   6.594  10.519  1.00  0.00     0.304 A 
HETATM   19  O5  UNK     1       7.830   7.742  10.511  1.00  0.00    -0.259 OA
HETATM   20  C19 UNK     1       4.920   3.095  12.778  1.00  0.00     0.003 A 
HETATM   21  C18 UNK     1       5.142   2.217  11.715  1.00  0.00     0.001 A 
ENDBRANCH  10  11
BRANCH   9  22
HETATM   22  C1  UNK     1      14.662   5.754   9.440  1.00  0.00     0.213 C 
HETATM   23  O1  UNK     1      15.891   5.223   8.939  1.00  0.00    -0.376 OA
HETATM   24  C9  UNK     1      16.975   5.989   9.480  1.00  0.00     0.168 C 
HETATM   25  C8  UNK     1      16.376   7.283   9.985  1.00  0.00     0.029 C 
HETATM   26  C4  UNK     1      15.009   6.836  10.444  1.00  0.00     0.043 C 
ENDBRANCH   9  22
TORSDOF 2
ENDMDL
MODEL 5
REMARK VINA RESULT:      -8.0      4.975      7.739
REMARK  2 active torsions:
REMARK  status: ('A' for Active; 'I' for Inactive)
REMARK       I    between atoms: C7_14  and  N1_6 
REMARK       I    between atoms: C10_17  and  N2_7 
REMARK    1  A    between atoms: C1_8  and  C7_14 
REMARK    2  A    between atoms: C10_17  and  C11_18 
ROOT
HETATM    1  O2  UNK     1      14.398   6.487   7.065  1.00  0.00    -0.270 OA
HETATM    2  O3  UNK     1       7.635   6.711   7.186  1.00  0.00    -0.267 OA
HETATM    3  N1  UNK     1      12.425   6.482   8.290  1.00  0.00    -0.347 N 
HETATM    4  N2  UNK     1       9.634   5.980   8.123  1.00  0.00    -0.345 N 
HETATM    5  C2  UNK     1      11.669   6.212   9.518  1.00  0.00     0.145 C 
HETATM    6  C3  UNK     1      11.641   7.104   7.224  1.00  0.00     0.145 C 
HETATM    7  C5  UNK     1      10.416   5.387   9.221  1.00  0.00     0.146 C 
HETATM    8  C6  UNK     1      10.407   6.267   6.910  1.00  0.00     0.146 C 
HETATM    9  C7  UNK     1      13.788   6.249   8.111  1.00  0.00     0.248 C 
HETATM   10  C10 UNK     1       8.261   6.211   8.123  1.00  0.00     0.260 C 
ENDROOT
BRANCH  10  11
HETATM   11  C11 UNK     1       7.498   5.826   9.326  1.00  0.00     0.108 A 
HETATM   12  C12 UNK     1       7.236   6.806  10.200  1.00  0.00     0.037 A 
HETATM   13  C14 UNK     1       6.489   6.525  11.416  1.00  0.00    -0.001 A 
HETATM   14  C15 UNK     1       6.055   5.224  11.653  1.00  0.00     0.089 A 
HETATM   15  C16 UNK     1       6.192   7.517  12.353  1.00  0.00     0.014 A 
HETATM   16  O4  UNK     1       6.335   4.197  10.731  1.00  0.00    -0.274 OA
HETATM   17  C17 UNK     1       5.336   4.888  12.798  1.00  0.00     0.038 A 
HETATM   18  C13 UNK     1       7.045   4.436   9.558  1.00  0.00     0.304 A 
HETATM   19  O5  UNK     1       7.285   3.535   8.762  1.00  0.00    -0.259 OA
HETATM   20  C19 UNK     1       5.045   5.884  13.729  1.00  0.00     0.003 A 
HETATM   21  C18 UNK     1       5.471   7.195  13.507  1.00  0.00     0.001 A 
ENDBRANCH  10  11
BRANCH   9  22
HETATM   22  C1  UNK     1      14.528   5.671   9.276  1.00  0.00     0.213 C 
HETATM   23  O1  UNK     1      15.805   5.262   8.781  1.00  0.00    -0.376 OA
HETATM   24  C9  UNK     1      16.818   6.051   9.418  1.00  0.00     0.168 C 
HETATM   25  C8  UNK     1      16.118   7.259   9.998  1.00  0.00     0.029 C 
HETATM   26  C4  UNK     1      14.770   6.691  10.372  1.00  0.00     0.043 C 
ENDBRANCH   9  22
TORSDOF 2
ENDMDL
MODEL 6
REMARK VINA RESULT:      -7.9      2.253      8.045
REMARK  2 active torsions:
REMARK  status: ('A' for Active; 'I' for Inactive)
REMARK       I    between atoms: C7_14  and  N1_6 
REMARK       I    between atoms: C10_17  and  N2_7 
REMARK    1  A    between atoms: C1_8  and  C7_14 
REMARK    2  A    between atoms: C10_17  and  C11_18 
ROOT
HETATM    1  O2  UNK     1      11.151   4.995   8.382  1.00  0.00    -0.270 OA
HETATM    2  O3  UNK     1      17.042   7.353  10.739  1.00  0.00    -0.267 OA
HETATM    3  N1  UNK     1      12.446   6.797   9.069  1.00  0.00    -0.347 N 
HETATM    4  N2  UNK     1      15.120   7.668   9.467  1.00  0.00    -0.345 N 
HETATM    5  C2  UNK     1      12.733   8.235   9.119  1.00  0.00     0.145 C 
HETATM    6  C3  UNK     1      13.368   5.970   9.847  1.00  0.00     0.145 C 
HETATM    7  C5  UNK     1      14.181   8.520   8.718  1.00  0.00     0.146 C 
HETATM    8  C6  UNK     1      14.808   6.235   9.426  1.00  0.00     0.146 C 
HETATM    9  C7  UNK     1      11.368   6.210   8.407  1.00  0.00     0.248 C 
HETATM   10  C10 UNK     1      16.274   8.093  10.119  1.00  0.00     0.260 C 
ENDROOT
BRANCH  10  11
HETATM   11  C11 UNK     1      16.609   9.529  10.062  1.00  0.00     0.108 A 
HETATM   12  C12 UNK     1      17.572   9.879   9.200  1.00  0.00     0.037 A 
HETATM   13  C14 UNK     1      17.971  11.272   9.072  1.00  0.00    -0.001 A 
HETATM   14  C15 UNK     1      17.338  12.229   9.859  1.00  0.00     0.089 A 
HETATM   15  C16 UNK     1      18.970  11.681   8.185  1.00  0.00     0.014 A 
HETATM   16  O4  UNK     1      16.326  11.854  10.764  1.00  0.00    -0.274 OA
HETATM   17  C17 UNK     1      17.674  13.579   9.785  1.00  0.00     0.038 A 
HETATM   18  C13 UNK     1      15.921  10.531  10.908  1.00  0.00     0.304 A 
HETATM   19  O5  UNK     1      15.040  10.215  11.700  1.00  0.00    -0.259 OA
HETATM   20  C19 UNK     1      18.672  13.978   8.898  1.00  0.00     0.003 A 
HETATM   21  C18 UNK     1      19.318  13.032   8.099  1.00  0.00     0.001 A 
ENDBRANCH  10  11
BRANCH   9  22
HETATM   22  C1  UNK     1      10.436   7.136   7.691  1.00  0.00     0.213 C 
HETATM   23  O1  UNK     1      10.708   6.982   6.295  1.00  0.00    -0.376 OA
HETATM   24  C9  UNK     1       9.543   6.438   5.660  1.00  0.00     0.168 C 
HETATM   25  C8  UNK     1       8.690   5.848   6.761  1.00  0.00     0.029 C 
HETATM   26  C4  UNK     1       8.979   6.779   7.913  1.00  0.00     0.043 C 
ENDBRANCH   9  22
TORSDOF 2
ENDMDL
MODEL 7
REMARK VINA RESULT:      -7.9     32.854     35.579
REMARK  2 active torsions:
REMARK  status: ('A' for Active; 'I' for Inactive)
REMARK       I    between atoms: C7_14  and  N1_6 
REMARK       I    between atoms: C10_17  and  N2_7 
REMARK    1  A    between atoms: C1_8  and  C7_14 
REMARK    2  A    between atoms: C10_17  and  C11_18 
ROOT
HETATM    1  O2  UNK     1      32.917  -9.635  29.162  1.00  0.00    -0.270 OA
HETATM    2  O3  UNK     1      34.859  -7.145  35.148  1.00  0.00    -0.267 OA
HETATM    3  N1  UNK     1      32.348  -8.711  31.215  1.00  0.00    -0.347 N 
HETATM    4  N2  UNK     1      33.348  -7.166  33.379  1.00  0.00    -0.345 N 
HETATM    5  C2  UNK     1      31.405  -8.026  32.105  1.00  0.00     0.145 C 
HETATM    6  C3  UNK     1      33.611  -9.087  31.850  1.00  0.00     0.145 C 
HETATM    7  C5  UNK     1      32.057  -6.812  32.767  1.00  0.00     0.146 C 
HETATM    8  C6  UNK     1      34.274  -7.870  32.485  1.00  0.00     0.146 C 
HETATM    9  C7  UNK     1      32.103  -9.059  29.888  1.00  0.00     0.248 C 
HETATM   10  C10 UNK     1      33.768  -6.832  34.663  1.00  0.00     0.260 C 
ENDROOT
BRANCH  10  11
HETATM   11  C11 UNK     1      32.848  -6.043  35.506  1.00  0.00     0.108 A 
HETATM   12  C12 UNK     1      32.046  -6.740  36.320  1.00  0.00     0.037 A 
HETATM   13  C14 UNK     1      31.105  -6.051  37.188  1.00  0.00    -0.001 A 
HETATM   14  C15 UNK     1      31.054  -4.661  37.158  1.00  0.00     0.089 A 
HETATM   15  C16 UNK     1      30.250  -6.738  38.054  1.00  0.00     0.014 A 
HETATM   16  O4  UNK     1      31.900  -3.933  36.299  1.00  0.00    -0.274 OA
HETATM   17  C17 UNK     1      30.175  -3.941  37.964  1.00  0.00     0.038 A 
HETATM   18  C13 UNK     1      32.811  -4.564  35.458  1.00  0.00     0.304 A 
HETATM   19  O5  UNK     1      33.544  -3.921  34.712  1.00  0.00    -0.259 OA
HETATM   20  C19 UNK     1      29.325  -4.634  38.824  1.00  0.00     0.003 A 
HETATM   21  C18 UNK     1      29.362  -6.029  38.869  1.00  0.00     0.001 A 
ENDBRANCH  10  11
BRANCH   9  22
HETATM   22  C1  UNK     1      30.759  -8.695  29.337  1.00  0.00     0.213 C 
HETATM   23  O1  UNK     1      30.838  -8.883  27.922  1.00  0.00    -0.376 OA
HETATM   24  C9  UNK     1      29.934  -9.932  27.550  1.00  0.00     0.168 C 
HETATM   25  C8  UNK     1      29.611 -10.690  28.817  1.00  0.00     0.029 C 
HETATM   26  C4  UNK     1      29.656  -9.596  29.857  1.00  0.00     0.043 C 
ENDBRANCH   9  22
TORSDOF 2
ENDMDL
MODEL 8
REMARK VINA RESULT:      -7.7     29.678     32.358
REMARK  2 active torsions:
REMARK  status: ('A' for Active; 'I' for Inactive)
REMARK       I    between atoms: C7_14  and  N1_6 
REMARK       I    between atoms: C10_17  and  N2_7 
REMARK    1  A    between atoms: C1_8  and  C7_14 
REMARK    2  A    between atoms: C10_17  and  C11_18 
ROOT
HETATM    1  O2  UNK     1      20.571  -9.191  38.703  1.00  0.00    -0.270 OA
HETATM    2  O3  UNK     1      20.140  -2.461  38.129  1.00  0.00    -0.267 OA
HETATM    3  N1  UNK     1      19.840  -7.335  37.514  1.00  0.00    -0.347 N 
HETATM    4  N2  UNK     1      20.276  -4.555  37.125  1.00  0.00    -0.345 N 
HETATM    5  C2  UNK     1      19.360  -6.698  36.283  1.00  0.00     0.145 C 
HETATM    6  C3  UNK     1      19.898  -6.443  38.672  1.00  0.00     0.145 C 
HETATM    7  C5  UNK     1      20.177  -5.446  35.958  1.00  0.00     0.146 C 
HETATM    8  C6  UNK     1      20.736  -5.210  38.355  1.00  0.00     0.146 C 
HETATM    9  C7  UNK     1      20.169  -8.682  37.653  1.00  0.00     0.248 C 
HETATM   10  C10 UNK     1      20.049  -3.182  37.133  1.00  0.00     0.260 C 
ENDROOT
BRANCH  10  11
HETATM   11  C11 UNK     1      19.678  -2.538  35.857  1.00  0.00     0.108 A 
HETATM   12  C12 UNK     1      20.476  -2.791  34.812  1.00  0.00     0.037 A 
HETATM   13  C14 UNK     1      20.192  -2.202  33.513  1.00  0.00    -0.001 A 
HETATM   14  C15 UNK     1      19.082  -1.375  33.377  1.00  0.00     0.089 A 
HETATM   15  C16 UNK     1      20.996  -2.441  32.396  1.00  0.00     0.014 A 
HETATM   16  O4  UNK     1      18.247  -1.111  34.480  1.00  0.00    -0.274 OA
HETATM   17  C17 UNK     1      18.755  -0.780  32.160  1.00  0.00     0.038 A 
HETATM   18  C13 UNK     1      18.492  -1.661  35.735  1.00  0.00     0.304 A 
HETATM   19  O5  UNK     1      17.759  -1.426  36.690  1.00  0.00    -0.259 OA
HETATM   20  C19 UNK     1      19.563  -1.022  31.052  1.00  0.00     0.003 A 
HETATM   21  C18 UNK     1      20.681  -1.851  31.168  1.00  0.00     0.001 A 
ENDBRANCH  10  11
BRANCH   9  22
HETATM   22  C1  UNK     1      20.019  -9.538  36.434  1.00  0.00     0.213 C 
HETATM   23  O1  UNK     1      20.972  -9.058  35.483  1.00  0.00    -0.376 OA
HETATM   24  C9  UNK     1      21.935 -10.092  35.239  1.00  0.00     0.168 C 
HETATM   25  C8  UNK     1      21.813 -11.070  36.385  1.00  0.00     0.029 C 
HETATM   26  C4  UNK     1      20.340 -10.995  36.705  1.00  0.00     0.043 C 
ENDBRANCH   9  22
TORSDOF 2
ENDMDL
MODEL 9
REMARK VINA RESULT:      -7.7     32.649     35.270
REMARK  2 active torsions:
REMARK  status: ('A' for Active; 'I' for Inactive)
REMARK       I    between atoms: C7_14  and  N1_6 
REMARK       I    between atoms: C10_17  and  N2_7 
REMARK    1  A    between atoms: C1_8  and  C7_14 
REMARK    2  A    between atoms: C10_17  and  C11_18 
ROOT
HETATM    1  O2  UNK     1      28.910  -7.359  38.883  1.00  0.00    -0.270 OA
HETATM    2  O3  UNK     1      30.687  -5.132  32.744  1.00  0.00    -0.267 OA
HETATM    3  N1  UNK     1      28.920  -7.658  36.580  1.00  0.00    -0.347 N 
HETATM    4  N2  UNK     1      30.249  -6.904  34.185  1.00  0.00    -0.345 N 
HETATM    5  C2  UNK     1      28.786  -8.502  35.388  1.00  0.00     0.145 C 
HETATM    6  C3  UNK     1      29.147  -6.242  36.293  1.00  0.00     0.145 C 
HETATM    7  C5  UNK     1      29.984  -8.328  34.453  1.00  0.00     0.146 C 
HETATM    8  C6  UNK     1      30.358  -6.068  35.385  1.00  0.00     0.146 C 
HETATM    9  C7  UNK     1      28.791  -8.093  37.898  1.00  0.00     0.248 C 
HETATM   10  C10 UNK     1      30.468  -6.330  32.936  1.00  0.00     0.260 C 
ENDROOT
BRANCH  10  11
HETATM   11  C11 UNK     1      30.442  -7.217  31.756  1.00  0.00     0.108 A 
HETATM   12  C12 UNK     1      29.233  -7.608  31.336  1.00  0.00     0.037 A 
HETATM   13  C14 UNK     1      29.105  -8.483  30.181  1.00  0.00    -0.001 A 
HETATM   14  C15 UNK     1      30.257  -8.904  29.524  1.00  0.00     0.089 A 
HETATM   15  C16 UNK     1      27.864  -8.914  29.708  1.00  0.00     0.014 A 
HETATM   16  O4  UNK     1      31.527  -8.489  29.972  1.00  0.00    -0.274 OA
HETATM   17  C17 UNK     1      30.204  -9.742  28.413  1.00  0.00     0.038 A 
HETATM   18  C13 UNK     1      31.681  -7.652  31.072  1.00  0.00     0.304 A 
HETATM   19  O5  UNK     1      32.791  -7.297  31.455  1.00  0.00    -0.259 OA
HETATM   20  C19 UNK     1      28.962 -10.168  27.948  1.00  0.00     0.003 A 
HETATM   21  C18 UNK     1      27.794  -9.755  28.593  1.00  0.00     0.001 A 
ENDBRANCH  10  11
BRANCH   9  22
HETATM   22  C1  UNK     1      28.494  -9.546  38.099  1.00  0.00     0.213 C 
HETATM   23  O1  UNK     1      29.160  -9.932  39.304  1.00  0.00    -0.376 OA
HETATM   24  C9  UNK     1      28.172 -10.310  40.272  1.00  0.00     0.168 C 
HETATM   25  C8  UNK     1      26.859  -9.735  39.790  1.00  0.00     0.029 C 
HETATM   26  C4  UNK     1      27.014  -9.813  38.290  1.00  0.00     0.043 C 
ENDBRANCH   9  22
TORSDOF 2
ENDMDL
MODEL 10
REMARK VINA RESULT:      -7.7     35.107     36.852
REMARK  2 active torsions:
REMARK  status: ('A' for Active; 'I' for Inactive)
REMARK       I    between atoms: C7_14  and  N1_6 
REMARK       I    between atoms: C10_17  and  N2_7 
REMARK    1  A    between atoms: C1_8  and  C7_14 
REMARK    2  A    between atoms: C10_17  and  C11_18 
ROOT
HETATM    1  O2  UNK     1      35.967  -6.526  32.851  1.00  0.00    -0.270 OA
HETATM    2  O3  UNK     1      32.815  -5.111  38.671  1.00  0.00    -0.267 OA
HETATM    3  N1  UNK     1      34.197  -6.911  34.304  1.00  0.00    -0.347 N 
HETATM    4  N2  UNK     1      32.713  -5.780  36.445  1.00  0.00    -0.345 N 
HETATM    5  C2  UNK     1      32.851  -7.419  34.592  1.00  0.00     0.145 C 
HETATM    6  C3  UNK     1      34.901  -6.375  35.468  1.00  0.00     0.145 C 
HETATM    7  C5  UNK     1      32.002  -6.357  35.292  1.00  0.00     0.146 C 
HETATM    8  C6  UNK     1      34.065  -5.297  36.148  1.00  0.00     0.146 C 
HETATM    9  C7  UNK     1      34.833  -6.962  33.064  1.00  0.00     0.248 C 
HETATM   10  C10 UNK     1      32.193  -5.598  37.724  1.00  0.00     0.260 C 
ENDROOT
BRANCH  10  11
HETATM   11  C11 UNK     1      30.797  -6.010  37.965  1.00  0.00     0.108 A 
HETATM   12  C12 UNK     1      30.595  -7.315  38.188  1.00  0.00     0.037 A 
HETATM   13  C14 UNK     1      29.253  -7.818  38.436  1.00  0.00    -0.001 A 
HETATM   14  C15 UNK     1      28.188  -6.923  38.437  1.00  0.00     0.089 A 
HETATM   15  C16 UNK     1      28.997  -9.171  38.674  1.00  0.00     0.014 A 
HETATM   16  O4  UNK     1      28.406  -5.552  38.201  1.00  0.00    -0.274 OA
HETATM   17  C17 UNK     1      26.879  -7.340  38.667  1.00  0.00     0.038 A 
HETATM   18  C13 UNK     1      29.679  -5.041  37.962  1.00  0.00     0.304 A 
HETATM   19  O5  UNK     1      29.858  -3.845  37.757  1.00  0.00    -0.259 OA
HETATM   20  C19 UNK     1      26.632  -8.691  38.903  1.00  0.00     0.003 A 
HETATM   21  C18 UNK     1      27.689  -9.605  38.907  1.00  0.00     0.001 A 
ENDBRANCH  10  11
BRANCH   9  22
HETATM   22  C1  UNK     1      34.065  -7.587  31.942  1.00  0.00     0.213 C 
HETATM   23  O1  UNK     1      34.534  -6.972  30.739  1.00  0.00    -0.376 OA
HETATM   24  C9  UNK     1      35.174  -7.970  29.934  1.00  0.00     0.168 C 
HETATM   25  C8  UNK     1      35.480  -9.131  30.853  1.00  0.00     0.029 C 
HETATM   26  C4  UNK     1      34.323  -9.077  31.822  1.00  0.00     0.043 C 
ENDBRANCH   9  22
TORSDOF 2
ENDMDL
