MODEL 1
REMARK VINA RESULT:      -9.6      0.000      0.000
REMARK  2 active torsions:
REMARK  status: ('A' for Active; 'I' for Inactive)
REMARK    1  A    between atoms: C1_5  and  N1_4 
REMARK       I    between atoms: C9_13  and  N1_4 
REMARK    2  A    between atoms: C10_14  and  C9_13 
ROOT
HETATM    1  O1  UNK     1      20.520  -4.793  37.127  1.00  0.00    -0.267 OA
HETATM    2  N1  UNK     1      18.276  -5.073  36.561  1.00  0.00    -0.352 N 
HETATM    3  C9  UNK     1      19.442  -4.357  36.738  1.00  0.00     0.258 C 
HETATM    4  H16 UNK     1      17.430  -4.604  36.255  1.00  0.00     0.163 HD
ENDROOT
BRANCH   3   5
HETATM    5  C10 UNK     1      19.287  -2.930  36.399  1.00  0.00     0.108 A 
HETATM    6  C11 UNK     1      18.556  -2.197  37.246  1.00  0.00     0.037 A 
HETATM    7  C13 UNK     1      18.346  -0.779  36.997  1.00  0.00    -0.001 A 
HETATM    8  C14 UNK     1      18.917  -0.204  35.866  1.00  0.00     0.089 A 
HETATM    9  C15 UNK     1      17.592   0.024  37.854  1.00  0.00     0.014 A 
HETATM   10  O2  UNK     1      19.685  -0.981  34.977  1.00  0.00    -0.274 OA
HETATM   11  C16 UNK     1      18.753   1.148  35.568  1.00  0.00     0.038 A 
HETATM   12  C12 UNK     1      19.903  -2.339  35.189  1.00  0.00     0.304 A 
HETATM   13  O3  UNK     1      20.572  -3.009  34.411  1.00  0.00    -0.259 OA
HETATM   14  C18 UNK     1      17.999   1.942  36.428  1.00  0.00     0.003 A 
HETATM   15  C17 UNK     1      17.419   1.382  37.570  1.00  0.00     0.001 A 
ENDBRANCH   3   5
BRANCH   2  16
HETATM   16  C1  UNK     1      18.182  -6.493  36.827  1.00  0.00     0.084 C 
HETATM   17  C2  UNK     1      19.130  -6.876  37.970  1.00  0.00     0.025 C 
HETATM   18  C4  UNK     1      19.265  -8.378  38.225  1.00  0.00     0.002 C 
HETATM   19  C6  UNK     1      20.556  -8.999  37.690  1.00  0.00     0.000 C 
HETATM   20  C8  UNK     1      20.699  -9.088  36.169  1.00  0.00     0.000 C 
HETATM   21  C7  UNK     1      20.867  -7.741  35.466  1.00  0.00     0.000 C 
HETATM   22  C5  UNK     1      19.616  -7.213  34.767  1.00  0.00     0.002 C 
HETATM   23  C3  UNK     1      18.291  -7.294  35.527  1.00  0.00     0.025 C 
ENDBRANCH   2  16
TORSDOF 2
ENDMDL
MODEL 2
REMARK VINA RESULT:      -9.3      6.735     11.524
REMARK  2 active torsions:
REMARK  status: ('A' for Active; 'I' for Inactive)
REMARK    1  A    between atoms: C1_5  and  N1_4 
REMARK       I    between atoms: C9_13  and  N1_4 
REMARK    2  A    between atoms: C10_14  and  C9_13 
ROOT
HETATM    1  O1  UNK     1      18.639   4.593  29.679  1.00  0.00    -0.267 OA
HETATM    2  N1  UNK     1      18.967   4.913  31.965  1.00  0.00    -0.352 N 
HETATM    3  C9  UNK     1      18.831   4.166  30.813  1.00  0.00     0.258 C 
HETATM    4  H16 UNK     1      19.101   4.452  32.860  1.00  0.00     0.163 HD
ENDROOT
BRANCH   3   5
HETATM    5  C10 UNK     1      18.945   2.717  31.061  1.00  0.00     0.108 A 
HETATM    6  C11 UNK     1      19.568   2.003  30.117  1.00  0.00     0.037 A 
HETATM    7  C13 UNK     1      19.729   0.565  30.271  1.00  0.00    -0.001 A 
HETATM    8  C14 UNK     1      19.226  -0.050  31.413  1.00  0.00     0.089 A 
HETATM    9  C15 UNK     1      20.373  -0.220  29.311  1.00  0.00     0.014 A 
HETATM   10  O2  UNK     1      18.571   0.708  32.404  1.00  0.00    -0.274 OA
HETATM   11  C16 UNK     1      19.346  -1.422  31.621  1.00  0.00     0.038 A 
HETATM   12  C12 UNK     1      18.401   2.084  32.284  1.00  0.00     0.304 A 
HETATM   13  O3  UNK     1      17.830   2.736  33.150  1.00  0.00    -0.259 OA
HETATM   14  C18 UNK     1      19.989  -2.197  30.659  1.00  0.00     0.003 A 
HETATM   15  C17 UNK     1      20.502  -1.598  29.506  1.00  0.00     0.001 A 
ENDBRANCH   3   5
BRANCH   2  16
HETATM   16  C1  UNK     1      18.895   6.358  31.974  1.00  0.00     0.084 C 
HETATM   17  C2  UNK     1      19.544   6.908  33.250  1.00  0.00     0.025 C 
HETATM   18  C4  UNK     1      19.367   8.411  33.472  1.00  0.00     0.002 C 
HETATM   19  C6  UNK     1      18.313   8.779  34.517  1.00  0.00     0.000 C 
HETATM   20  C8  UNK     1      16.853   8.506  34.148  1.00  0.00     0.000 C 
HETATM   21  C7  UNK     1      16.485   7.024  34.065  1.00  0.00     0.000 C 
HETATM   22  C5  UNK     1      16.374   6.462  32.649  1.00  0.00     0.002 C 
HETATM   23  C3  UNK     1      17.473   6.829  31.652  1.00  0.00     0.025 C 
ENDBRANCH   2  16
TORSDOF 2
ENDMDL
MODEL 3
REMARK VINA RESULT:      -9.2      1.737      7.273
REMARK  2 active torsions:
REMARK  status: ('A' for Active; 'I' for Inactive)
REMARK    1  A    between atoms: C1_5  and  N1_4 
REMARK       I    between atoms: C9_13  and  N1_4 
REMARK    2  A    between atoms: C10_14  and  C9_13 
ROOT
HETATM    1  O1  UNK     1      21.016  -3.210  37.866  1.00  0.00    -0.267 OA
HETATM    2  N1  UNK     1      19.103  -3.025  36.546  1.00  0.00    -0.352 N 
HETATM    3  C9  UNK     1      20.120  -3.701  37.187  1.00  0.00     0.258 C 
HETATM    4  H16 UNK     1      18.424  -3.533  35.988  1.00  0.00     0.163 HD
ENDROOT
BRANCH   3   5
HETATM    5  C10 UNK     1      20.045  -5.160  36.985  1.00  0.00     0.108 A 
HETATM    6  C11 UNK     1      19.913  -5.904  38.090  1.00  0.00     0.037 A 
HETATM    7  C13 UNK     1      19.831  -7.353  37.993  1.00  0.00    -0.001 A 
HETATM    8  C14 UNK     1      19.893  -7.948  36.737  1.00  0.00     0.089 A 
HETATM    9  C15 UNK     1      19.692  -8.168  39.119  1.00  0.00     0.014 A 
HETATM   10  O2  UNK     1      20.032  -7.160  35.578  1.00  0.00    -0.274 OA
HETATM   11  C16 UNK     1      19.821  -9.330  36.575  1.00  0.00     0.038 A 
HETATM   12  C12 UNK     1      20.113  -5.772  35.639  1.00  0.00     0.304 A 
HETATM   13  O3  UNK     1      20.235  -5.093  34.625  1.00  0.00    -0.259 OA
HETATM   14  C18 UNK     1      19.683 -10.136  37.703  1.00  0.00     0.003 A 
HETATM   15  C17 UNK     1      19.618  -9.556  38.972  1.00  0.00     0.001 A 
ENDBRANCH   3   5
BRANCH   2  16
HETATM   16  C1  UNK     1      18.965  -1.586  36.599  1.00  0.00     0.084 C 
HETATM   17  C2  UNK     1      17.820  -1.204  37.545  1.00  0.00     0.025 C 
HETATM   18  C4  UNK     1      17.448   0.280  37.547  1.00  0.00     0.002 C 
HETATM   19  C6  UNK     1      16.174   0.616  36.769  1.00  0.00     0.000 C 
HETATM   20  C8  UNK     1      16.240   0.476  35.247  1.00  0.00     0.000 C 
HETATM   21  C7  UNK     1      16.358  -0.964  34.745  1.00  0.00     0.000 C 
HETATM   22  C5  UNK     1      17.756  -1.381  34.294  1.00  0.00     0.002 C 
HETATM   23  C3  UNK     1      18.935  -0.993  35.187  1.00  0.00     0.025 C 
ENDBRANCH   2  16
TORSDOF 2
ENDMDL
MODEL 4
REMARK VINA RESULT:      -9.1      6.822     11.077
REMARK  2 active torsions:
REMARK  status: ('A' for Active; 'I' for Inactive)
REMARK    1  A    between atoms: C1_5  and  N1_4 
REMARK       I    between atoms: C9_13  and  N1_4 
REMARK    2  A    between atoms: C10_14  and  C9_13 
ROOT
HETATM    1  O1  UNK     1      17.561   2.409  33.637  1.00  0.00    -0.267 OA
HETATM    2  N1  UNK     1      18.051   4.190  32.214  1.00  0.00    -0.352 N 
HETATM    3  C9  UNK     1      18.020   2.864  32.594  1.00  0.00     0.258 C 
HETATM    4  H16 UNK     1      18.478   4.459  31.333  1.00  0.00     0.163 HD
ENDROOT
BRANCH   3   5
HETATM    5  C10 UNK     1      18.617   1.971  31.583  1.00  0.00     0.108 A 
HETATM    6  C11 UNK     1      18.963   0.749  32.004  1.00  0.00     0.037 A 
HETATM    7  C13 UNK     1      19.559  -0.204  31.081  1.00  0.00    -0.001 A 
HETATM    8  C14 UNK     1      19.763   0.179  29.758  1.00  0.00     0.089 A 
HETATM    9  C15 UNK     1      19.935  -1.489  31.476  1.00  0.00     0.014 A 
HETATM   10  O2  UNK     1      19.396   1.467  29.321  1.00  0.00    -0.274 OA
HETATM   11  C16 UNK     1      20.330  -0.685  28.824  1.00  0.00     0.038 A 
HETATM   12  C12 UNK     1      18.824   2.399  30.181  1.00  0.00     0.304 A 
HETATM   13  O3  UNK     1      18.509   3.518  29.793  1.00  0.00    -0.259 OA
HETATM   14  C18 UNK     1      20.702  -1.965  29.227  1.00  0.00     0.003 A 
HETATM   15  C17 UNK     1      20.505  -2.367  30.550  1.00  0.00     0.001 A 
ENDBRANCH   3   5
BRANCH   2  16
HETATM   16  C1  UNK     1      17.522   5.253  33.041  1.00  0.00     0.084 C 
HETATM   17  C2  UNK     1      17.223   6.487  32.180  1.00  0.00     0.025 C 
HETATM   18  C4  UNK     1      16.834   7.744  32.961  1.00  0.00     0.002 C 
HETATM   19  C6  UNK     1      17.948   8.786  33.079  1.00  0.00     0.000 C 
HETATM   20  C8  UNK     1      19.143   8.421  33.961  1.00  0.00     0.000 C 
HETATM   21  C7  UNK     1      20.028   7.306  33.403  1.00  0.00     0.000 C 
HETATM   22  C5  UNK     1      19.831   5.936  34.050  1.00  0.00     0.002 C 
HETATM   23  C3  UNK     1      18.397   5.460  34.281  1.00  0.00     0.025 C 
ENDBRANCH   2  16
TORSDOF 2
ENDMDL
MODEL 5
REMARK VINA RESULT:      -9.0     18.678     20.101
REMARK  2 active torsions:
REMARK  status: ('A' for Active; 'I' for Inactive)
REMARK    1  A    between atoms: C1_5  and  N1_4 
REMARK       I    between atoms: C9_13  and  N1_4 
REMARK    2  A    between atoms: C10_14  and  C9_13 
ROOT
HETATM    1  O1  UNK     1      19.356  -0.084  14.279  1.00  0.00    -0.267 OA
HETATM    2  N1  UNK     1      18.797  -1.848  15.696  1.00  0.00    -0.352 N 
HETATM    3  C9  UNK     1      19.127  -0.544  15.392  1.00  0.00     0.258 C 
HETATM    4  H16 UNK     1      18.651  -2.127  16.661  1.00  0.00     0.163 HD
ENDROOT
BRANCH   3   5
HETATM    5  C10 UNK     1      19.185   0.318  16.588  1.00  0.00     0.108 A 
HETATM    6  C11 UNK     1      19.245  -0.310  17.767  1.00  0.00     0.037 A 
HETATM    7  C13 UNK     1      19.305   0.454  19.004  1.00  0.00    -0.001 A 
HETATM    8  C14 UNK     1      19.299   1.844  18.936  1.00  0.00     0.089 A 
HETATM    9  C15 UNK     1      19.369  -0.159  20.257  1.00  0.00     0.014 A 
HETATM   10  O2  UNK     1      19.236   2.500  17.691  1.00  0.00    -0.274 OA
HETATM   11  C16 UNK     1      19.354   2.635  20.082  1.00  0.00     0.038 A 
HETATM   12  C12 UNK     1      19.178   1.796  16.492  1.00  0.00     0.304 A 
HETATM   13  O3  UNK     1      19.122   2.374  15.413  1.00  0.00    -0.259 OA
HETATM   14  C18 UNK     1      19.417   2.015  21.328  1.00  0.00     0.003 A 
HETATM   15  C17 UNK     1      19.425   0.621  21.416  1.00  0.00     0.001 A 
ENDBRANCH   3   5
BRANCH   2  16
HETATM   16  C1  UNK     1      18.678  -2.880  14.688  1.00  0.00     0.084 C 
HETATM   17  C2  UNK     1      17.864  -4.058  15.238  1.00  0.00     0.025 C 
HETATM   18  C4  UNK     1      17.823  -5.294  14.337  1.00  0.00     0.002 C 
HETATM   19  C6  UNK     1      18.735  -6.437  14.786  1.00  0.00     0.000 C 
HETATM   20  C8  UNK     1      20.242  -6.205  14.659  1.00  0.00     0.000 C 
HETATM   21  C7  UNK     1      20.808  -5.162  15.623  1.00  0.00     0.000 C 
HETATM   22  C5  UNK     1      21.102  -3.798  15.003  1.00  0.00     0.002 C 
HETATM   23  C3  UNK     1      20.045  -3.198  14.075  1.00  0.00     0.025 C 
ENDBRANCH   2  16
TORSDOF 2
ENDMDL
MODEL 6
REMARK VINA RESULT:      -8.9      7.532     11.444
REMARK  2 active torsions:
REMARK  status: ('A' for Active; 'I' for Inactive)
REMARK    1  A    between atoms: C1_5  and  N1_4 
REMARK       I    between atoms: C9_13  and  N1_4 
REMARK    2  A    between atoms: C10_14  and  C9_13 
ROOT
HETATM    1  O1  UNK     1      17.561   3.859  32.589  1.00  0.00    -0.267 OA
HETATM    2  N1  UNK     1      19.245   5.035  31.486  1.00  0.00    -0.352 N 
HETATM    3  C9  UNK     1      18.447   3.940  31.745  1.00  0.00     0.258 C 
HETATM    4  H16 UNK     1      19.968   4.984  30.775  1.00  0.00     0.163 HD
ENDROOT
BRANCH   3   5
HETATM    5  C10 UNK     1      18.757   2.794  30.869  1.00  0.00     0.108 A 
HETATM    6  C11 UNK     1      19.166   1.676  31.481  1.00  0.00     0.037 A 
HETATM    7  C13 UNK     1      19.495   0.492  30.702  1.00  0.00    -0.001 A 
HETATM    8  C14 UNK     1      19.378   0.544  29.317  1.00  0.00     0.089 A 
HETATM    9  C15 UNK     1      19.925  -0.695  31.298  1.00  0.00     0.014 A 
HETATM   10  O2  UNK     1      18.947   1.724  28.679  1.00  0.00    -0.274 OA
HETATM   11  C16 UNK     1      19.679  -0.553  28.513  1.00  0.00     0.038 A 
HETATM   12  C12 UNK     1      18.625   2.872  29.397  1.00  0.00     0.304 A 
HETATM   13  O3  UNK     1      18.251   3.895  28.834  1.00  0.00    -0.259 OA
HETATM   14  C18 UNK     1      20.107  -1.734  29.115  1.00  0.00     0.003 A 
HETATM   15  C17 UNK     1      20.230  -1.805  30.505  1.00  0.00     0.001 A 
ENDBRANCH   3   5
BRANCH   2  16
HETATM   16  C1  UNK     1      19.126   6.279  32.215  1.00  0.00     0.084 C 
HETATM   17  C2  UNK     1      18.793   5.995  33.685  1.00  0.00     0.025 C 
HETATM   18  C4  UNK     1      18.456   7.229  34.524  1.00  0.00     0.002 C 
HETATM   19  C6  UNK     1      16.964   7.420  34.802  1.00  0.00     0.000 C 
HETATM   20  C8  UNK     1      16.085   7.801  33.609  1.00  0.00     0.000 C 
HETATM   21  C7  UNK     1      15.912   6.696  32.567  1.00  0.00     0.000 C 
HETATM   22  C5  UNK     1      16.750   6.861  31.301  1.00  0.00     0.002 C 
HETATM   23  C3  UNK     1      18.217   7.259  31.467  1.00  0.00     0.025 C 
ENDBRANCH   2  16
TORSDOF 2
ENDMDL
MODEL 7
REMARK VINA RESULT:      -8.9      4.979     10.391
REMARK  2 active torsions:
REMARK  status: ('A' for Active; 'I' for Inactive)
REMARK    1  A    between atoms: C1_5  and  N1_4 
REMARK       I    between atoms: C9_13  and  N1_4 
REMARK    2  A    between atoms: C10_14  and  C9_13 
ROOT
HETATM    1  O1  UNK     1      17.817   3.236  31.838  1.00  0.00    -0.267 OA
HETATM    2  N1  UNK     1      18.592   4.421  33.690  1.00  0.00    -0.352 N 
HETATM    3  C9  UNK     1      18.180   3.295  33.008  1.00  0.00     0.258 C 
HETATM    4  H16 UNK     1      18.850   4.359  34.670  1.00  0.00     0.163 HD
ENDROOT
BRANCH   3   5
HETATM    5  C10 UNK     1      18.213   2.081  33.846  1.00  0.00     0.108 A 
HETATM    6  C11 UNK     1      17.959   2.255  35.148  1.00  0.00     0.037 A 
HETATM    7  C13 UNK     1      17.969   1.118  36.056  1.00  0.00    -0.001 A 
HETATM    8  C14 UNK     1      18.245  -0.147  35.546  1.00  0.00     0.089 A 
HETATM    9  C15 UNK     1      17.710   1.253  37.421  1.00  0.00     0.014 A 
HETATM   10  O2  UNK     1      18.512  -0.323  34.174  1.00  0.00    -0.274 OA
HETATM   11  C16 UNK     1      18.271  -1.277  36.361  1.00  0.00     0.038 A 
HETATM   12  C12 UNK     1      18.509   0.745  33.282  1.00  0.00     0.304 A 
HETATM   13  O3  UNK     1      18.743   0.583  32.090  1.00  0.00    -0.259 OA
HETATM   14  C18 UNK     1      18.012  -1.134  37.722  1.00  0.00     0.003 A 
HETATM   15  C17 UNK     1      17.731   0.128  38.251  1.00  0.00     0.001 A 
ENDBRANCH   3   5
BRANCH   2  16
HETATM   16  C1  UNK     1      18.647   5.731  33.077  1.00  0.00     0.084 C 
HETATM   17  C2  UNK     1      19.695   6.597  33.786  1.00  0.00     0.025 C 
HETATM   18  C4  UNK     1      19.721   8.065  33.356  1.00  0.00     0.002 C 
HETATM   19  C6  UNK     1      19.067   9.028  34.349  1.00  0.00     0.000 C 
HETATM   20  C8  UNK     1      17.547   8.938  34.496  1.00  0.00     0.000 C 
HETATM   21  C7  UNK     1      17.048   7.657  35.165  1.00  0.00     0.000 C 
HETATM   22  C5  UNK     1      16.467   6.612  34.214  1.00  0.00     0.002 C 
HETATM   23  C3  UNK     1      17.239   6.316  32.928  1.00  0.00     0.025 C 
ENDBRANCH   2  16
TORSDOF 2
ENDMDL
MODEL 8
REMARK VINA RESULT:      -8.9      6.147     11.817
REMARK  2 active torsions:
REMARK  status: ('A' for Active; 'I' for Inactive)
REMARK    1  A    between atoms: C1_5  and  N1_4 
REMARK       I    between atoms: C9_13  and  N1_4 
REMARK    2  A    between atoms: C10_14  and  C9_13 
ROOT
HETATM    1  O1  UNK     1      19.043   5.703  31.278  1.00  0.00    -0.267 OA
HETATM    2  N1  UNK     1      17.397   6.087  32.884  1.00  0.00    -0.352 N 
HETATM    3  C9  UNK     1      18.295   5.320  32.172  1.00  0.00     0.258 C 
HETATM    4  H16 UNK     1      16.808   5.659  33.592  1.00  0.00     0.163 HD
ENDROOT
BRANCH   3   5
HETATM    5  C10 UNK     1      18.293   3.907  32.595  1.00  0.00     0.108 A 
HETATM    6  C11 UNK     1      18.341   3.684  33.913  1.00  0.00     0.037 A 
HETATM    7  C13 UNK     1      18.344   2.323  34.428  1.00  0.00    -0.001 A 
HETATM    8  C14 UNK     1      18.296   1.264  33.528  1.00  0.00     0.089 A 
HETATM    9  C15 UNK     1      18.392   2.044  35.796  1.00  0.00     0.014 A 
HETATM   10  O2  UNK     1      18.246   1.504  32.141  1.00  0.00    -0.274 OA
HETATM   11  C16 UNK     1      18.297  -0.063  33.955  1.00  0.00     0.038 A 
HETATM   12  C12 UNK     1      18.242   2.795  31.619  1.00  0.00     0.304 A 
HETATM   13  O3  UNK     1      18.199   2.996  30.411  1.00  0.00    -0.259 OA
HETATM   14  C18 UNK     1      18.345  -0.332  35.320  1.00  0.00     0.003 A 
HETATM   15  C17 UNK     1      18.393   0.719  36.239  1.00  0.00     0.001 A 
ENDBRANCH   3   5
BRANCH   2  16
HETATM   16  C1  UNK     1      17.221   7.504  32.650  1.00  0.00     0.084 C 
HETATM   17  C2  UNK     1      17.393   8.278  33.963  1.00  0.00     0.025 C 
HETATM   18  C4  UNK     1      17.047   9.766  33.889  1.00  0.00     0.002 C 
HETATM   19  C6  UNK     1      15.694  10.134  34.500  1.00  0.00     0.000 C 
HETATM   20  C8  UNK     1      14.448   9.649  33.755  1.00  0.00     0.000 C 
HETATM   21  C7  UNK     1      14.233   8.136  33.792  1.00  0.00     0.000 C 
HETATM   22  C5  UNK     1      14.615   7.395  32.511  1.00  0.00     0.002 C 
HETATM   23  C3  UNK     1      15.942   7.763  31.847  1.00  0.00     0.025 C 
ENDBRANCH   2  16
TORSDOF 2
ENDMDL
MODEL 9
REMARK VINA RESULT:      -8.8     29.045     30.649
REMARK  2 active torsions:
REMARK  status: ('A' for Active; 'I' for Inactive)
REMARK    1  A    between atoms: C1_5  and  N1_4 
REMARK       I    between atoms: C9_13  and  N1_4 
REMARK    2  A    between atoms: C10_14  and  C9_13 
ROOT
HETATM    1  O1  UNK     1      10.686   7.143   6.786  1.00  0.00    -0.267 OA
HETATM    2  N1  UNK     1       9.972   6.516   8.915  1.00  0.00    -0.352 N 
HETATM    3  C9  UNK     1      10.907   6.763   7.931  1.00  0.00     0.258 C 
HETATM    4  H16 UNK     1      10.266   6.179   9.826  1.00  0.00     0.163 HD
ENDROOT
BRANCH   3   5
HETATM    5  C10 UNK     1      12.288   6.521   8.388  1.00  0.00     0.108 A 
HETATM    6  C11 UNK     1      13.006   7.606   8.700  1.00  0.00     0.037 A 
HETATM    7  C13 UNK     1      14.379   7.471   9.161  1.00  0.00    -0.001 A 
HETATM    8  C14 UNK     1      14.929   6.197   9.271  1.00  0.00     0.089 A 
HETATM    9  C15 UNK     1      15.165   8.575   9.497  1.00  0.00     0.014 A 
HETATM   10  O2  UNK     1      14.168   5.058   8.941  1.00  0.00    -0.274 OA
HETATM   11  C16 UNK     1      16.238   5.997   9.704  1.00  0.00     0.038 A 
HETATM   12  C12 UNK     1      12.852   5.157   8.497  1.00  0.00     0.304 A 
HETATM   13  O3  UNK     1      12.197   4.161   8.212  1.00  0.00    -0.259 OA
HETATM   14  C18 UNK     1      17.015   7.104  10.038  1.00  0.00     0.003 A 
HETATM   15  C17 UNK     1      16.480   8.391   9.935  1.00  0.00     0.001 A 
ENDBRANCH   3   5
BRANCH   2  16
HETATM   16  C1  UNK     1       8.551   6.684   8.703  1.00  0.00     0.084 C 
HETATM   17  C2  UNK     1       7.986   7.690   9.714  1.00  0.00     0.025 C 
HETATM   18  C4  UNK     1       6.461   7.818   9.720  1.00  0.00     0.002 C 
HETATM   19  C6  UNK     1       5.770   7.106  10.884  1.00  0.00     0.000 C 
HETATM   20  C8  UNK     1       5.796   5.577  10.870  1.00  0.00     0.000 C 
HETATM   21  C7  UNK     1       7.176   4.962  11.105  1.00  0.00     0.000 C 
HETATM   22  C5  UNK     1       7.876   4.439   9.852  1.00  0.00     0.002 C 
HETATM   23  C3  UNK     1       7.854   5.323   8.606  1.00  0.00     0.025 C 
ENDBRANCH   2  16
TORSDOF 2
ENDMDL
MODEL 10
REMARK VINA RESULT:      -8.8      6.851      9.169
REMARK  2 active torsions:
REMARK  status: ('A' for Active; 'I' for Inactive)
REMARK    1  A    between atoms: C1_5  and  N1_4 
REMARK       I    between atoms: C9_13  and  N1_4 
REMARK    2  A    between atoms: C10_14  and  C9_13 
ROOT
HETATM    1  O1  UNK     1      26.081  -9.201  39.019  1.00  0.00    -0.267 OA
HETATM    2  N1  UNK     1      24.560  -7.490  38.577  1.00  0.00    -0.352 N 
HETATM    3  C9  UNK     1      25.814  -8.026  38.789  1.00  0.00     0.258 C 
HETATM    4  H16 UNK     1      24.451  -6.493  38.417  1.00  0.00     0.163 HD
ENDROOT
BRANCH   3   5
HETATM    5  C10 UNK     1      26.883  -7.014  38.710  1.00  0.00     0.108 A 
HETATM    6  C11 UNK     1      28.129  -7.480  38.567  1.00  0.00     0.037 A 
HETATM    7  C13 UNK     1      29.252  -6.559  38.480  1.00  0.00    -0.001 A 
HETATM    8  C14 UNK     1      29.007  -5.191  38.548  1.00  0.00     0.089 A 
HETATM    9  C15 UNK     1      30.568  -7.001  38.330  1.00  0.00     0.014 A 
HETATM   10  O2  UNK     1      27.693  -4.706  38.698  1.00  0.00    -0.274 OA
HETATM   11  C16 UNK     1      30.037  -4.256  38.472  1.00  0.00     0.038 A 
HETATM   12  C12 UNK     1      26.599  -5.563  38.784  1.00  0.00     0.304 A 
HETATM   13  O3  UNK     1      25.459  -5.133  38.916  1.00  0.00    -0.259 OA
HETATM   14  C18 UNK     1      31.347  -4.706  38.323  1.00  0.00     0.003 A 
HETATM   15  C17 UNK     1      31.612  -6.075  38.252  1.00  0.00     0.001 A 
ENDBRANCH   3   5
BRANCH   2  16
HETATM   16  C1  UNK     1      23.353  -8.288  38.603  1.00  0.00     0.084 C 
HETATM   17  C2  UNK     1      23.046  -8.820  37.198  1.00  0.00     0.025 C 
HETATM   18  C4  UNK     1      21.696  -9.524  37.052  1.00  0.00     0.002 C 
HETATM   19  C6  UNK     1      20.616  -8.686  36.364  1.00  0.00     0.000 C 
HETATM   20  C8  UNK     1      20.079  -7.482  37.142  1.00  0.00     0.000 C 
HETATM   21  C7  UNK     1      21.080  -6.340  37.315  1.00  0.00     0.000 C 
HETATM   22  C5  UNK     1      21.726  -6.247  38.696  1.00  0.00     0.002 C 
HETATM   23  C3  UNK     1      22.230  -7.543  39.331  1.00  0.00     0.025 C 
ENDBRANCH   2  16
TORSDOF 2
ENDMDL
