MODEL 1
REMARK VINA RESULT:      -9.4      0.000      0.000
REMARK  4 active torsions:
REMARK  status: ('A' for Active; 'I' for Inactive)
REMARK    1  A    between atoms: C18_25  and  O3_3 
REMARK    2  A    between atoms: C21_28  and  O5_5 
REMARK    3  A    between atoms: C1_8  and  C8_15 
REMARK    4  A    between atoms: C6_13  and  C9_16 
ROOT
HETATM    1  O1  UNK     1      33.241 -10.448  34.124  1.00  0.00    -0.293 OA
HETATM    2  N1  UNK     1      29.003  -9.925  31.887  1.00  0.00    -0.357 N 
HETATM    3  N2  UNK     1      31.000  -7.705  32.230  1.00  0.00    -0.375 N 
HETATM    4  C1  UNK     1      31.447 -12.737  32.007  1.00  0.00     0.031 C 
HETATM    5  C2  UNK     1      30.064 -12.082  32.066  1.00  0.00     0.067 C 
HETATM    6  C3  UNK     1      31.174 -10.036  32.997  1.00  0.00     0.037 C 
HETATM    7  C4  UNK     1      32.208 -12.413  33.284  1.00  0.00     0.093 C 
HETATM    8  C5  UNK     1      30.127 -10.586  32.346  1.00  0.00     0.022 C 
HETATM    9  C6  UNK     1      31.282  -8.576  33.359  1.00  0.00     0.160 C 
HETATM   10  C7  UNK     1      32.293 -10.920  33.495  1.00  0.00     0.160 C 
HETATM   11  C10 UNK     1      28.795  -8.577  31.529  1.00  0.00     0.059 A 
HETATM   12  C11 UNK     1      29.759  -7.559  31.630  1.00  0.00     0.055 A 
HETATM   13  C16 UNK     1      27.533  -8.262  30.975  1.00  0.00     0.032 A 
HETATM   14  C17 UNK     1      29.437  -6.277  31.128  1.00  0.00     0.031 A 
HETATM   15  C23 UNK     1      27.232  -6.986  30.504  1.00  0.00     0.002 A 
HETATM   16  C24 UNK     1      28.191  -5.991  30.572  1.00  0.00     0.002 A 
HETATM   17  H7  UNK     1      28.223 -10.537  31.665  1.00  0.00     0.166 HD
HETATM   18  H8  UNK     1      31.662  -6.950  32.077  1.00  0.00     0.160 HD
ENDROOT
BRANCH   9  19
HETATM   19  C9  UNK     1      30.446  -8.202  34.547  1.00  0.00     0.042 A 
HETATM   20  C14 UNK     1      30.753  -6.938  35.262  1.00  0.00     0.195 A 
HETATM   21  O4  UNK     1      31.664  -6.197  34.912  1.00  0.00    -0.287 OA
HETATM   22  C19 UNK     1      29.902  -6.619  36.422  1.00  0.00     0.049 A 
HETATM   23  C22 UNK     1      28.880  -7.500  36.776  1.00  0.00     0.089 A 
HETATM   24  C25 UNK     1      30.111  -5.452  37.161  1.00  0.00     0.025 A 
HETATM   25  O2  UNK     1      28.629  -8.660  36.086  1.00  0.00    -0.321 OA
HETATM   26  C26 UNK     1      28.061  -7.219  37.870  1.00  0.00     0.039 A 
HETATM   27  C15 UNK     1      29.431  -8.943  35.008  1.00  0.00     0.156 A 
HETATM   28  C28 UNK     1      28.268  -6.054  38.609  1.00  0.00     0.009 A 
HETATM   29  C27 UNK     1      29.291  -5.173  38.256  1.00  0.00    -0.061 A 
HETATM   30  C29 UNK     1      29.508  -3.928  39.049  1.00  0.00     0.048 C 
ENDBRANCH   9  19
BRANCH   4  31
HETATM   31  C8  UNK     1      31.362 -14.230  31.752  1.00  0.00    -0.050 A 
HETATM   32  C12 UNK     1      31.205 -15.109  32.821  1.00  0.00     0.047 A 
HETATM   33  C18 UNK     1      31.127 -16.481  32.586  1.00  0.00     0.102 A 
HETATM   34  C21 UNK     1      31.207 -16.972  31.283  1.00  0.00     0.101 A 
HETATM   35  C20 UNK     1      31.365 -16.090  30.214  1.00  0.00     0.040 A 
HETATM   36  C13 UNK     1      31.442 -14.717  30.449  1.00  0.00     0.010 A 
BRANCH  33  37
HETATM   37  O3  UNK     1      30.972 -17.334  33.639  1.00  0.00    -0.353 OA
HETATM   38  C30 UNK     1      29.665 -17.438  34.200  1.00  0.00     0.210 C 
ENDBRANCH  33  37
BRANCH  34  39
HETATM   39  O5  UNK     1      31.131 -18.311  31.042  1.00  0.00    -0.353 OA
HETATM   40  C31 UNK     1      29.913 -18.801  30.485  1.00  0.00     0.210 C 
ENDBRANCH  34  39
ENDBRANCH   4  31
TORSDOF 4
ENDMDL
MODEL 2
REMARK VINA RESULT:      -9.4     33.237     35.172
REMARK  4 active torsions:
REMARK  status: ('A' for Active; 'I' for Inactive)
REMARK    1  A    between atoms: C18_25  and  O3_3 
REMARK    2  A    between atoms: C21_28  and  O5_5 
REMARK    3  A    between atoms: C1_8  and  C8_15 
REMARK    4  A    between atoms: C6_13  and  C9_16 
ROOT
HETATM    1  O1  UNK     1      17.655   7.958  10.075  1.00  0.00    -0.293 OA
HETATM    2  N1  UNK     1      15.113  11.547   8.102  1.00  0.00    -0.357 N 
HETATM    3  N2  UNK     1      18.088  11.242   7.805  1.00  0.00    -0.375 N 
HETATM    4  C1  UNK     1      14.354   7.938   8.646  1.00  0.00     0.031 C 
HETATM    5  C2  UNK     1      14.078   9.444   8.665  1.00  0.00     0.067 C 
HETATM    6  C3  UNK     1      16.530   9.797   9.044  1.00  0.00     0.037 C 
HETATM    7  C4  UNK     1      15.331   7.595   9.761  1.00  0.00     0.093 C 
HETATM    8  C5  UNK     1      15.347  10.282   8.608  1.00  0.00     0.022 C 
HETATM    9  C6  UNK     1      17.817  10.583   9.071  1.00  0.00     0.160 C 
HETATM   10  C7  UNK     1      16.597   8.409   9.637  1.00  0.00     0.160 C 
HETATM   11  C10 UNK     1      15.970  12.475   7.477  1.00  0.00     0.059 A 
HETATM   12  C11 UNK     1      17.350  12.294   7.282  1.00  0.00     0.055 A 
HETATM   13  C16 UNK     1      15.362  13.644   6.964  1.00  0.00     0.032 A 
HETATM   14  C17 UNK     1      18.058  13.266   6.540  1.00  0.00     0.031 A 
HETATM   15  C23 UNK     1      16.084  14.599   6.252  1.00  0.00     0.002 A 
HETATM   16  C24 UNK     1      17.436  14.405   6.030  1.00  0.00     0.002 A 
HETATM   17  H7  UNK     1      14.131  11.808   8.077  1.00  0.00     0.166 HD
HETATM   18  H8  UNK     1      19.031  11.135   7.443  1.00  0.00     0.160 HD
ENDROOT
BRANCH   9  19
HETATM   19  C9  UNK     1      17.885  11.559  10.210  1.00  0.00     0.042 A 
HETATM   20  C14 UNK     1      19.218  12.025  10.665  1.00  0.00     0.195 A 
HETATM   21  O4  UNK     1      20.257  11.639  10.143  1.00  0.00    -0.287 OA
HETATM   22  C19 UNK     1      19.228  12.982  11.787  1.00  0.00     0.049 A 
HETATM   23  C22 UNK     1      18.015  13.386  12.344  1.00  0.00     0.089 A 
HETATM   24  C25 UNK     1      20.432  13.480  12.289  1.00  0.00     0.025 A 
HETATM   25  O2  UNK     1      16.802  12.930  11.891  1.00  0.00    -0.321 OA
HETATM   26  C26 UNK     1      17.999  14.291  13.406  1.00  0.00     0.039 A 
HETATM   27  C15 UNK     1      16.810  12.039  10.846  1.00  0.00     0.156 A 
HETATM   28  C28 UNK     1      19.201  14.790  13.909  1.00  0.00     0.009 A 
HETATM   29  C27 UNK     1      20.415  14.385  13.352  1.00  0.00    -0.061 A 
HETATM   30  C29 UNK     1      21.697  14.922  13.893  1.00  0.00     0.048 C 
ENDBRANCH   9  19
BRANCH   4  31
HETATM   31  C8  UNK     1      13.078   7.121   8.728  1.00  0.00    -0.050 A 
HETATM   32  C12 UNK     1      12.026   7.389   7.856  1.00  0.00     0.047 A 
HETATM   33  C18 UNK     1      10.853   6.638   7.932  1.00  0.00     0.102 A 
HETATM   34  C21 UNK     1      10.735   5.621   8.880  1.00  0.00     0.101 A 
HETATM   35  C20 UNK     1      11.791   5.356   9.753  1.00  0.00     0.040 A 
HETATM   36  C13 UNK     1      12.963   6.107   9.677  1.00  0.00     0.010 A 
BRANCH  33  37
HETATM   37  O3  UNK     1       9.829   6.906   7.073  1.00  0.00    -0.353 OA
HETATM   38  C30 UNK     1       9.897   6.310   5.778  1.00  0.00     0.210 C 
ENDBRANCH  33  37
BRANCH  34  39
HETATM   39  O5  UNK     1       9.595   4.881   8.962  1.00  0.00    -0.353 OA
HETATM   40  C31 UNK     1       9.328   4.239  10.208  1.00  0.00     0.210 C 
ENDBRANCH  34  39
ENDBRANCH   4  31
TORSDOF 4
ENDMDL
MODEL 3
REMARK VINA RESULT:      -9.3      0.617      1.535
REMARK  4 active torsions:
REMARK  status: ('A' for Active; 'I' for Inactive)
REMARK    1  A    between atoms: C18_25  and  O3_3 
REMARK    2  A    between atoms: C21_28  and  O5_5 
REMARK    3  A    between atoms: C1_8  and  C8_15 
REMARK    4  A    between atoms: C6_13  and  C9_16 
ROOT
HETATM    1  O1  UNK     1      33.150 -10.307  34.150  1.00  0.00    -0.293 OA
HETATM    2  N1  UNK     1      28.947  -9.857  31.832  1.00  0.00    -0.357 N 
HETATM    3  N2  UNK     1      30.929  -7.622  32.154  1.00  0.00    -0.375 N 
HETATM    4  C1  UNK     1      31.400 -12.655  32.061  1.00  0.00     0.031 C 
HETATM    5  C2  UNK     1      30.015 -12.005  32.082  1.00  0.00     0.067 C 
HETATM    6  C3  UNK     1      31.101  -9.932  32.980  1.00  0.00     0.037 C 
HETATM    7  C4  UNK     1      32.140 -12.296  33.341  1.00  0.00     0.093 C 
HETATM    8  C5  UNK     1      30.066 -10.503  32.326  1.00  0.00     0.022 C 
HETATM    9  C6  UNK     1      31.197  -8.463  33.307  1.00  0.00     0.160 C 
HETATM   10  C7  UNK     1      32.214 -10.798  33.518  1.00  0.00     0.160 C 
HETATM   11  C10 UNK     1      28.740  -8.520  31.438  1.00  0.00     0.059 A 
HETATM   12  C11 UNK     1      29.697  -7.495  31.529  1.00  0.00     0.055 A 
HETATM   13  C16 UNK     1      27.485  -8.225  30.856  1.00  0.00     0.032 A 
HETATM   14  C17 UNK     1      29.379  -6.227  30.991  1.00  0.00     0.031 A 
HETATM   15  C23 UNK     1      27.187  -6.962  30.349  1.00  0.00     0.002 A 
HETATM   16  C24 UNK     1      28.141  -5.961  30.409  1.00  0.00     0.002 A 
HETATM   17  H7  UNK     1      28.173 -10.479  31.612  1.00  0.00     0.166 HD
HETATM   18  H8  UNK     1      31.591  -6.867  31.993  1.00  0.00     0.160 HD
ENDROOT
BRANCH   9  19
HETATM   19  C9  UNK     1      30.339  -8.064  34.473  1.00  0.00     0.042 A 
HETATM   20  C14 UNK     1      30.713  -6.854  35.247  1.00  0.00     0.195 A 
HETATM   21  O4  UNK     1      31.694  -6.178  34.965  1.00  0.00    -0.287 OA
HETATM   22  C19 UNK     1      29.838  -6.507  36.382  1.00  0.00     0.049 A 
HETATM   23  C22 UNK     1      28.734  -7.315  36.658  1.00  0.00     0.089 A 
HETATM   24  C25 UNK     1      30.105  -5.388  37.172  1.00  0.00     0.025 A 
HETATM   25  O2  UNK     1      28.424  -8.426  35.914  1.00  0.00    -0.321 OA
HETATM   26  C26 UNK     1      27.892  -7.007  37.726  1.00  0.00     0.039 A 
HETATM   27  C15 UNK     1      29.249  -8.736  34.861  1.00  0.00     0.156 A 
HETATM   28  C28 UNK     1      28.157  -5.888  38.517  1.00  0.00     0.009 A 
HETATM   29  C27 UNK     1      29.260  -5.081  38.241  1.00  0.00    -0.061 A 
HETATM   30  C29 UNK     1      29.539  -3.886  39.090  1.00  0.00     0.048 C 
ENDBRANCH   9  19
BRANCH   4  31
HETATM   31  C8  UNK     1      31.326 -14.154  31.841  1.00  0.00    -0.050 A 
HETATM   32  C12 UNK     1      31.443 -14.673  30.554  1.00  0.00     0.047 A 
HETATM   33  C18 UNK     1      31.373 -16.052  30.352  1.00  0.00     0.102 A 
HETATM   34  C21 UNK     1      31.187 -16.908  31.438  1.00  0.00     0.101 A 
HETATM   35  C20 UNK     1      31.069 -16.385  32.726  1.00  0.00     0.040 A 
HETATM   36  C13 UNK     1      31.138 -15.006  32.928  1.00  0.00     0.010 A 
BRANCH  33  37
HETATM   37  O3  UNK     1      31.491 -16.551  29.090  1.00  0.00    -0.353 OA
HETATM   38  C30 UNK     1      32.809 -16.658  28.555  1.00  0.00     0.210 C 
ENDBRANCH  33  37
BRANCH  34  39
HETATM   39  O5  UNK     1      31.119 -18.255  31.253  1.00  0.00    -0.353 OA
HETATM   40  C31 UNK     1      29.893 -18.896  31.600  1.00  0.00     0.210 C 
ENDBRANCH  34  39
ENDBRANCH   4  31
TORSDOF 4
ENDMDL
MODEL 4
REMARK VINA RESULT:      -9.1     33.263     35.291
REMARK  4 active torsions:
REMARK  status: ('A' for Active; 'I' for Inactive)
REMARK    1  A    between atoms: C18_25  and  O3_3 
REMARK    2  A    between atoms: C21_28  and  O5_5 
REMARK    3  A    between atoms: C1_8  and  C8_15 
REMARK    4  A    between atoms: C6_13  and  C9_16 
ROOT
HETATM    1  O1  UNK     1      17.656   7.996  10.222  1.00  0.00    -0.293 OA
HETATM    2  N1  UNK     1      15.824  11.810   7.912  1.00  0.00    -0.357 N 
HETATM    3  N2  UNK     1      18.739  11.078   7.886  1.00  0.00    -0.375 N 
HETATM    4  C1  UNK     1      14.513   8.372   8.511  1.00  0.00     0.031 C 
HETATM    5  C2  UNK     1      14.456   9.901   8.454  1.00  0.00     0.067 C 
HETATM    6  C3  UNK     1      16.894   9.924   9.034  1.00  0.00     0.037 C 
HETATM    7  C4  UNK     1      15.337   7.948   9.718  1.00  0.00     0.093 C 
HETATM    8  C5  UNK     1      15.833  10.550   8.480  1.00  0.00     0.022 C 
HETATM    9  C6  UNK     1      18.274  10.523   9.145  1.00  0.00     0.160 C 
HETATM   10  C7  UNK     1      16.712   8.570   9.677  1.00  0.00     0.160 C 
HETATM   11  C10 UNK     1      16.853  12.579   7.332  1.00  0.00     0.059 A 
HETATM   12  C11 UNK     1      18.205  12.197   7.265  1.00  0.00     0.055 A 
HETATM   13  C16 UNK     1      16.463  13.797   6.729  1.00  0.00     0.032 A 
HETATM   14  C17 UNK     1      19.103  13.026   6.554  1.00  0.00     0.031 A 
HETATM   15  C23 UNK     1      17.370  14.607   6.050  1.00  0.00     0.002 A 
HETATM   16  C24 UNK     1      18.694  14.215   5.954  1.00  0.00     0.002 A 
HETATM   17  H7  UNK     1      14.895  12.205   7.792  1.00  0.00     0.166 HD
HETATM   18  H8  UNK     1      19.683  10.823   7.611  1.00  0.00     0.160 HD
ENDROOT
BRANCH   9  19
HETATM   19  C9  UNK     1      18.388  11.531  10.251  1.00  0.00     0.042 A 
HETATM   20  C14 UNK     1      19.739  12.012  10.636  1.00  0.00     0.195 A 
HETATM   21  O4  UNK     1      20.755  11.612  10.081  1.00  0.00    -0.287 OA
HETATM   22  C19 UNK     1      19.795  13.001  11.728  1.00  0.00     0.049 A 
HETATM   23  C22 UNK     1      18.605  13.420  12.325  1.00  0.00     0.089 A 
HETATM   24  C25 UNK     1      21.018  13.514  12.164  1.00  0.00     0.025 A 
HETATM   25  O2  UNK     1      17.375  12.949  11.937  1.00  0.00    -0.321 OA
HETATM   26  C26 UNK     1      18.632  14.354  13.360  1.00  0.00     0.039 A 
HETATM   27  C15 UNK     1      17.340  12.028  10.919  1.00  0.00     0.156 A 
HETATM   28  C28 UNK     1      19.854  14.869  13.796  1.00  0.00     0.009 A 
HETATM   29  C27 UNK     1      21.044  14.450  13.200  1.00  0.00    -0.061 A 
HETATM   30  C29 UNK     1      22.347  15.004  13.670  1.00  0.00     0.048 C 
ENDBRANCH   9  19
BRANCH   4  31
HETATM   31  C8  UNK     1      13.132   7.747   8.509  1.00  0.00    -0.050 A 
HETATM   32  C12 UNK     1      12.078   8.390   9.154  1.00  0.00     0.047 A 
HETATM   33  C18 UNK     1      10.807   7.815   9.153  1.00  0.00     0.102 A 
HETATM   34  C21 UNK     1      10.593   6.597   8.507  1.00  0.00     0.101 A 
HETATM   35  C20 UNK     1      11.651   5.954   7.863  1.00  0.00     0.040 A 
HETATM   36  C13 UNK     1      12.921   6.530   7.864  1.00  0.00     0.010 A 
BRANCH  33  37
HETATM   37  O3  UNK     1       9.782   8.452   9.785  1.00  0.00    -0.353 OA
HETATM   38  C30 UNK     1       9.908   9.862   9.964  1.00  0.00     0.210 C 
ENDBRANCH  33  37
BRANCH  34  39
HETATM   39  O5  UNK     1       9.357   6.026   8.499  1.00  0.00    -0.353 OA
HETATM   40  C31 UNK     1       8.592   6.154   7.301  1.00  0.00     0.210 C 
ENDBRANCH  34  39
ENDBRANCH   4  31
TORSDOF 4
ENDMDL
MODEL 5
REMARK VINA RESULT:      -8.8      4.671      7.585
REMARK  4 active torsions:
REMARK  status: ('A' for Active; 'I' for Inactive)
REMARK    1  A    between atoms: C18_25  and  O3_3 
REMARK    2  A    between atoms: C21_28  and  O5_5 
REMARK    3  A    between atoms: C1_8  and  C8_15 
REMARK    4  A    between atoms: C6_13  and  C9_16 
ROOT
HETATM    1  O1  UNK     1      33.294 -12.304  30.965  1.00  0.00    -0.293 OA
HETATM    2  N1  UNK     1      34.009  -9.114  34.508  1.00  0.00    -0.357 N 
HETATM    3  N2  UNK     1      31.558 -10.837  34.276  1.00  0.00    -0.375 N 
HETATM    4  C1  UNK     1      36.323 -11.394  32.680  1.00  0.00     0.031 C 
HETATM    5  C2  UNK     1      35.859 -10.071  33.295  1.00  0.00     0.067 C 
HETATM    6  C3  UNK     1      33.506 -10.759  32.776  1.00  0.00     0.037 C 
HETATM    7  C4  UNK     1      35.534 -11.656  31.405  1.00  0.00     0.093 C 
HETATM    8  C5  UNK     1      34.354 -10.013  33.516  1.00  0.00     0.022 C 
HETATM    9  C6  UNK     1      32.003 -10.716  32.899  1.00  0.00     0.160 C 
HETATM   10  C7  UNK     1      34.049 -11.643  31.679  1.00  0.00     0.160 C 
HETATM   11  C10 UNK     1      32.870  -9.029  35.334  1.00  0.00     0.059 A 
HETATM   12  C11 UNK     1      31.757  -9.883  35.263  1.00  0.00     0.055 A 
HETATM   13  C16 UNK     1      32.899  -8.037  36.342  1.00  0.00     0.032 A 
HETATM   14  C17 UNK     1      30.738  -9.743  36.233  1.00  0.00     0.031 A 
HETATM   15  C23 UNK     1      31.874  -7.904  37.276  1.00  0.00     0.002 A 
HETATM   16  C24 UNK     1      30.793  -8.767  37.227  1.00  0.00     0.002 A 
HETATM   17  H7  UNK     1      34.753  -8.469  34.760  1.00  0.00     0.166 HD
HETATM   18  H8  UNK     1      30.807 -11.502  34.442  1.00  0.00     0.160 HD
ENDROOT
BRANCH   9  19
HETATM   19  C9  UNK     1      31.394  -9.511  32.242  1.00  0.00     0.042 A 
HETATM   20  C14 UNK     1      29.917  -9.443  32.114  1.00  0.00     0.195 A 
HETATM   21  O4  UNK     1      29.186 -10.335  32.526  1.00  0.00    -0.287 OA
HETATM   22  C19 UNK     1      29.372  -8.239  31.461  1.00  0.00     0.049 A 
HETATM   23  C22 UNK     1      30.253  -7.255  31.010  1.00  0.00     0.089 A 
HETATM   24  C25 UNK     1      27.995  -8.081  31.293  1.00  0.00     0.025 A 
HETATM   25  O2  UNK     1      31.614  -7.358  31.149  1.00  0.00    -0.321 OA
HETATM   26  C26 UNK     1      29.761  -6.107  30.389  1.00  0.00     0.039 A 
HETATM   27  C15 UNK     1      32.107  -8.486  31.759  1.00  0.00     0.156 A 
HETATM   28  C28 UNK     1      28.385  -5.947  30.220  1.00  0.00     0.009 A 
HETATM   29  C27 UNK     1      27.504  -6.931  30.671  1.00  0.00    -0.061 A 
HETATM   30  C29 UNK     1      26.034  -6.754  30.488  1.00  0.00     0.048 C 
ENDBRANCH   9  19
BRANCH   4  31
HETATM   31  C8  UNK     1      37.821 -11.422  32.444  1.00  0.00    -0.050 A 
HETATM   32  C12 UNK     1      38.334 -11.081  31.195  1.00  0.00     0.047 A 
HETATM   33  C18 UNK     1      39.712 -11.107  30.979  1.00  0.00     0.102 A 
HETATM   34  C21 UNK     1      40.573 -11.474  32.013  1.00  0.00     0.101 A 
HETATM   35  C20 UNK     1      40.057 -11.816  33.263  1.00  0.00     0.040 A 
HETATM   36  C13 UNK     1      38.679 -11.789  33.479  1.00  0.00     0.010 A 
BRANCH  33  37
HETATM   37  O3  UNK     1      40.204 -10.771  29.754  1.00  0.00    -0.353 OA
HETATM   38  C30 UNK     1      40.140 -11.766  28.734  1.00  0.00     0.210 C 
ENDBRANCH  33  37
BRANCH  34  39
HETATM   39  O5  UNK     1      41.920 -11.502  31.813  1.00  0.00    -0.353 OA
HETATM   40  C31 UNK     1      42.742 -10.991  32.862  1.00  0.00     0.210 C 
ENDBRANCH  34  39
ENDBRANCH   4  31
TORSDOF 4
ENDMDL
MODEL 6
REMARK VINA RESULT:      -8.6      4.811      5.953
REMARK  4 active torsions:
REMARK  status: ('A' for Active; 'I' for Inactive)
REMARK    1  A    between atoms: C18_25  and  O3_3 
REMARK    2  A    between atoms: C21_28  and  O5_5 
REMARK    3  A    between atoms: C1_8  and  C8_15 
REMARK    4  A    between atoms: C6_13  and  C9_16 
ROOT
HETATM    1  O1  UNK     1      35.662  -6.795  35.439  1.00  0.00    -0.293 OA
HETATM    2  N1  UNK     1      32.426  -8.443  32.268  1.00  0.00    -0.357 N 
HETATM    3  N2  UNK     1      32.191  -5.801  33.681  1.00  0.00    -0.375 N 
HETATM    4  C1  UNK     1      36.142  -8.693  32.421  1.00  0.00     0.031 C 
HETATM    5  C2  UNK     1      34.712  -9.207  32.233  1.00  0.00     0.067 C 
HETATM    6  C3  UNK     1      33.972  -7.484  33.896  1.00  0.00     0.037 C 
HETATM    7  C4  UNK     1      36.394  -8.448  33.901  1.00  0.00     0.093 C 
HETATM    8  C5  UNK     1      33.666  -8.297  32.862  1.00  0.00     0.022 C 
HETATM    9  C6  UNK     1      32.980  -6.596  34.605  1.00  0.00     0.160 C 
HETATM   10  C7  UNK     1      35.367  -7.499  34.472  1.00  0.00     0.160 C 
HETATM   11  C10 UNK     1      31.320  -7.572  32.193  1.00  0.00     0.059 A 
HETATM   12  C11 UNK     1      31.246  -6.308  32.802  1.00  0.00     0.055 A 
HETATM   13  C16 UNK     1      30.237  -8.001  31.390  1.00  0.00     0.032 A 
HETATM   14  C17 UNK     1      30.113  -5.502  32.544  1.00  0.00     0.031 A 
HETATM   15  C23 UNK     1      29.121  -7.198  31.166  1.00  0.00     0.002 A 
HETATM   16  C24 UNK     1      29.063  -5.939  31.738  1.00  0.00     0.002 A 
HETATM   17  H7  UNK     1      32.337  -9.277  31.694  1.00  0.00     0.166 HD
HETATM   18  H8  UNK     1      32.107  -4.814  33.906  1.00  0.00     0.160 HD
ENDROOT
BRANCH   9  19
HETATM   19  C9  UNK     1      32.095  -7.347  35.557  1.00  0.00     0.042 A 
HETATM   20  C14 UNK     1      31.028  -6.603  36.272  1.00  0.00     0.195 A 
HETATM   21  O4  UNK     1      30.851  -5.403  36.109  1.00  0.00    -0.287 OA
HETATM   22  C19 UNK     1      30.189  -7.389  37.195  1.00  0.00     0.049 A 
HETATM   23  C22 UNK     1      30.438  -8.754  37.343  1.00  0.00     0.089 A 
HETATM   24  C25 UNK     1      29.159  -6.780  37.915  1.00  0.00     0.025 A 
HETATM   25  O2  UNK     1      31.437  -9.403  36.661  1.00  0.00    -0.321 OA
HETATM   26  C26 UNK     1      29.657  -9.518  38.211  1.00  0.00     0.039 A 
HETATM   27  C15 UNK     1      32.210  -8.658  35.805  1.00  0.00     0.156 A 
HETATM   28  C28 UNK     1      28.627  -8.912  38.930  1.00  0.00     0.009 A 
HETATM   29  C27 UNK     1      28.378  -7.547  38.783  1.00  0.00    -0.061 A 
HETATM   30  C29 UNK     1      27.275  -6.904  39.554  1.00  0.00     0.048 C 
ENDBRANCH   9  19
BRANCH   4  31
HETATM   31  C8  UNK     1      37.170  -9.626  31.809  1.00  0.00    -0.050 A 
HETATM   32  C12 UNK     1      38.281 -10.017  32.552  1.00  0.00     0.047 A 
HETATM   33  C18 UNK     1      39.227 -10.874  31.990  1.00  0.00     0.102 A 
HETATM   34  C21 UNK     1      39.059 -11.338  30.685  1.00  0.00     0.101 A 
HETATM   35  C20 UNK     1      37.945 -10.944  29.942  1.00  0.00     0.040 A 
HETATM   36  C13 UNK     1      37.000 -10.087  30.505  1.00  0.00     0.010 A 
BRANCH  33  37
HETATM   37  O3  UNK     1      40.310 -11.253  32.725  1.00  0.00    -0.353 OA
HETATM   38  C30 UNK     1      41.441 -10.384  32.707  1.00  0.00     0.210 C 
ENDBRANCH  33  37
BRANCH  34  39
HETATM   39  O5  UNK     1      39.975 -12.176  30.125  1.00  0.00    -0.353 OA
HETATM   40  C31 UNK     1      40.403 -11.877  28.798  1.00  0.00     0.210 C 
ENDBRANCH  34  39
ENDBRANCH   4  31
TORSDOF 4
ENDMDL
MODEL 7
REMARK VINA RESULT:      -8.4      1.633      2.374
REMARK  4 active torsions:
REMARK  status: ('A' for Active; 'I' for Inactive)
REMARK    1  A    between atoms: C18_25  and  O3_3 
REMARK    2  A    between atoms: C21_28  and  O5_5 
REMARK    3  A    between atoms: C1_8  and  C8_15 
REMARK    4  A    between atoms: C6_13  and  C9_16 
ROOT
HETATM    1  O1  UNK     1      34.199 -11.264  32.445  1.00  0.00    -0.293 OA
HETATM    2  N1  UNK     1      29.505 -10.503  31.652  1.00  0.00    -0.357 N 
HETATM    3  N2  UNK     1      31.669  -8.560  30.891  1.00  0.00    -0.375 N 
HETATM    4  C1  UNK     1      31.608 -13.578  31.511  1.00  0.00     0.031 C 
HETATM    5  C2  UNK     1      30.388 -12.734  31.889  1.00  0.00     0.067 C 
HETATM    6  C3  UNK     1      31.910 -10.746  31.995  1.00  0.00     0.037 C 
HETATM    7  C4  UNK     1      32.787 -13.171  32.382  1.00  0.00     0.093 C 
HETATM    8  C5  UNK     1      30.662 -11.237  31.839  1.00  0.00     0.022 C 
HETATM    9  C6  UNK     1      32.253  -9.277  32.012  1.00  0.00     0.160 C 
HETATM   10  C7  UNK     1      33.058 -11.690  32.262  1.00  0.00     0.160 C 
HETATM   11  C10 UNK     1      29.295  -9.212  31.128  1.00  0.00     0.059 A 
HETATM   12  C11 UNK     1      30.312  -8.335  30.711  1.00  0.00     0.055 A 
HETATM   13  C16 UNK     1      27.949  -8.812  30.965  1.00  0.00     0.032 A 
HETATM   14  C17 UNK     1      29.941  -7.114  30.104  1.00  0.00     0.031 A 
HETATM   15  C23 UNK     1      27.606  -7.594  30.381  1.00  0.00     0.002 A 
HETATM   16  C24 UNK     1      28.606  -6.746  29.940  1.00  0.00     0.002 A 
HETATM   17  H7  UNK     1      28.650 -11.027  31.818  1.00  0.00     0.166 HD
HETATM   18  H8  UNK     1      32.295  -7.939  30.388  1.00  0.00     0.160 HD
ENDROOT
BRANCH   9  19
HETATM   19  C9  UNK     1      31.911  -8.610  33.312  1.00  0.00     0.042 A 
HETATM   20  C14 UNK     1      32.226  -7.169  33.475  1.00  0.00     0.195 A 
HETATM   21  O4  UNK     1      32.754  -6.513  32.585  1.00  0.00    -0.287 OA
HETATM   22  C19 UNK     1      31.871  -6.563  34.771  1.00  0.00     0.049 A 
HETATM   23  C22 UNK     1      31.272  -7.358  35.749  1.00  0.00     0.089 A 
HETATM   24  C25 UNK     1      32.127  -5.214  35.022  1.00  0.00     0.025 A 
HETATM   25  O2  UNK     1      30.997  -8.689  35.557  1.00  0.00    -0.321 OA
HETATM   26  C26 UNK     1      30.926  -6.808  36.983  1.00  0.00     0.039 A 
HETATM   27  C15 UNK     1      31.334  -9.238  34.344  1.00  0.00     0.156 A 
HETATM   28  C28 UNK     1      31.181  -5.459  37.236  1.00  0.00     0.009 A 
HETATM   29  C27 UNK     1      31.780  -4.664  36.258  1.00  0.00    -0.061 A 
HETATM   30  C29 UNK     1      32.050  -3.223  36.534  1.00  0.00     0.048 C 
ENDBRANCH   9  19
BRANCH   4  31
HETATM   31  C8  UNK     1      31.321 -15.066  31.591  1.00  0.00    -0.050 A 
HETATM   32  C12 UNK     1      31.311 -15.834  30.429  1.00  0.00     0.047 A 
HETATM   33  C18 UNK     1      31.047 -17.201  30.503  1.00  0.00     0.102 A 
HETATM   34  C21 UNK     1      30.793 -17.798  31.738  1.00  0.00     0.101 A 
HETATM   35  C20 UNK     1      30.803 -17.026  32.900  1.00  0.00     0.040 A 
HETATM   36  C13 UNK     1      31.067 -15.658  32.826  1.00  0.00     0.010 A 
BRANCH  33  37
HETATM   37  O3  UNK     1      31.041 -17.945  29.361  1.00  0.00    -0.353 OA
HETATM   38  C30 UNK     1      31.957 -17.565  28.335  1.00  0.00     0.210 C 
ENDBRANCH  33  37
BRANCH  34  39
HETATM   39  O5  UNK     1      30.535 -19.132  31.822  1.00  0.00    -0.353 OA
HETATM   40  C31 UNK     1      31.596 -19.970  32.278  1.00  0.00     0.210 C 
ENDBRANCH  34  39
ENDBRANCH   4  31
TORSDOF 4
ENDMDL
MODEL 8
REMARK VINA RESULT:      -8.3      4.981      7.712
REMARK  4 active torsions:
REMARK  status: ('A' for Active; 'I' for Inactive)
REMARK    1  A    between atoms: C18_25  and  O3_3 
REMARK    2  A    between atoms: C21_28  and  O5_5 
REMARK    3  A    between atoms: C1_8  and  C8_15 
REMARK    4  A    between atoms: C6_13  and  C9_16 
ROOT
HETATM    1  O1  UNK     1      33.619 -12.052  33.075  1.00  0.00    -0.293 OA
HETATM    2  N1  UNK     1      35.273  -7.585  33.816  1.00  0.00    -0.357 N 
HETATM    3  N2  UNK     1      32.828  -8.708  35.153  1.00  0.00    -0.375 N 
HETATM    4  C1  UNK     1      37.002 -10.840  33.255  1.00  0.00     0.031 C 
HETATM    5  C2  UNK     1      36.730  -9.347  33.051  1.00  0.00     0.067 C 
HETATM    6  C3  UNK     1      34.315  -9.813  33.535  1.00  0.00     0.037 C 
HETATM    7  C4  UNK     1      35.904 -11.645  32.576  1.00  0.00     0.093 C 
HETATM    8  C5  UNK     1      35.337  -8.929  33.500  1.00  0.00     0.022 C 
HETATM    9  C6  UNK     1      32.898  -9.463  33.915  1.00  0.00     0.160 C 
HETATM   10  C7  UNK     1      34.542 -11.237  33.087  1.00  0.00     0.160 C 
HETATM   11  C10 UNK     1      34.392  -6.862  34.645  1.00  0.00     0.059 A 
HETATM   12  C11 UNK     1      33.289  -7.411  35.322  1.00  0.00     0.055 A 
HETATM   13  C16 UNK     1      34.695  -5.495  34.842  1.00  0.00     0.032 A 
HETATM   14  C17 UNK     1      32.562  -6.582  36.206  1.00  0.00     0.031 A 
HETATM   15  C23 UNK     1      33.952  -4.692  35.704  1.00  0.00     0.002 A 
HETATM   16  C24 UNK     1      32.886  -5.240  36.397  1.00  0.00     0.002 A 
HETATM   17  H7  UNK     1      36.065  -7.042  33.480  1.00  0.00     0.166 HD
HETATM   18  H8  UNK     1      32.140  -9.028  35.829  1.00  0.00     0.160 HD
ENDROOT
BRANCH   9  19
HETATM   19  C9  UNK     1      32.152  -8.763  32.816  1.00  0.00     0.042 A 
HETATM   20  C14 UNK     1      30.684  -8.595  32.951  1.00  0.00     0.195 A 
HETATM   21  O4  UNK     1      30.068  -9.009  33.925  1.00  0.00    -0.287 OA
HETATM   22  C19 UNK     1      30.001  -7.901  31.844  1.00  0.00     0.049 A 
HETATM   23  C22 UNK     1      30.753  -7.451  30.758  1.00  0.00     0.089 A 
HETATM   24  C25 UNK     1      28.620  -7.694  31.876  1.00  0.00     0.025 A 
HETATM   25  O2  UNK     1      32.112  -7.627  30.674  1.00  0.00    -0.321 OA
HETATM   26  C26 UNK     1      30.129  -6.792  29.699  1.00  0.00     0.039 A 
HETATM   27  C15 UNK     1      32.733  -8.276  31.713  1.00  0.00     0.156 A 
HETATM   28  C28 UNK     1      28.749  -6.584  29.730  1.00  0.00     0.009 A 
HETATM   29  C27 UNK     1      27.997  -7.033  30.816  1.00  0.00    -0.061 A 
HETATM   30  C29 UNK     1      26.522  -6.807  30.843  1.00  0.00     0.048 C 
ENDBRANCH   9  19
BRANCH   4  31
HETATM   31  C8  UNK     1      38.386 -11.240  32.780  1.00  0.00    -0.050 A 
HETATM   32  C12 UNK     1      38.816 -10.871  31.508  1.00  0.00     0.047 A 
HETATM   33  C18 UNK     1      40.089 -11.239  31.072  1.00  0.00     0.102 A 
HETATM   34  C21 UNK     1      40.927 -11.977  31.908  1.00  0.00     0.101 A 
HETATM   35  C20 UNK     1      40.493 -12.346  33.181  1.00  0.00     0.040 A 
HETATM   36  C13 UNK     1      39.221 -11.977  33.618  1.00  0.00     0.010 A 
BRANCH  33  37
HETATM   37  O3  UNK     1      40.502 -10.872  29.826  1.00  0.00    -0.353 OA
HETATM   38  C30 UNK     1      40.072 -11.683  28.735  1.00  0.00     0.210 C 
ENDBRANCH  33  37
BRANCH  34  39
HETATM   39  O5  UNK     1      42.172 -12.341  31.492  1.00  0.00    -0.353 OA
HETATM   40  C31 UNK     1      43.128 -12.654  32.504  1.00  0.00     0.210 C 
ENDBRANCH  34  39
ENDBRANCH   4  31
TORSDOF 4
ENDMDL
MODEL 9
REMARK VINA RESULT:      -8.3      4.986      7.679
REMARK  4 active torsions:
REMARK  status: ('A' for Active; 'I' for Inactive)
REMARK    1  A    between atoms: C18_25  and  O3_3 
REMARK    2  A    between atoms: C21_28  and  O5_5 
REMARK    3  A    between atoms: C1_8  and  C8_15 
REMARK    4  A    between atoms: C6_13  and  C9_16 
ROOT
HETATM    1  O1  UNK     1      33.481 -12.159  33.103  1.00  0.00    -0.293 OA
HETATM    2  N1  UNK     1      35.319  -7.724  33.544  1.00  0.00    -0.357 N 
HETATM    3  N2  UNK     1      32.893  -8.687  35.034  1.00  0.00    -0.375 N 
HETATM    4  C1  UNK     1      36.909 -11.065  33.087  1.00  0.00     0.031 C 
HETATM    5  C2  UNK     1      36.681  -9.575  32.816  1.00  0.00     0.067 C 
HETATM    6  C3  UNK     1      34.273  -9.926  33.418  1.00  0.00     0.037 C 
HETATM    7  C4  UNK     1      35.756 -11.862  32.494  1.00  0.00     0.093 C 
HETATM    8  C5  UNK     1      35.322  -9.084  33.296  1.00  0.00     0.022 C 
HETATM    9  C6  UNK     1      32.886  -9.506  33.834  1.00  0.00     0.160 C 
HETATM   10  C7  UNK     1      34.432 -11.379  33.037  1.00  0.00     0.160 C 
HETATM   11  C10 UNK     1      34.498  -6.928  34.368  1.00  0.00     0.059 A 
HETATM   12  C11 UNK     1      33.406  -7.401  35.116  1.00  0.00     0.055 A 
HETATM   13  C16 UNK     1      34.856  -5.564  34.481  1.00  0.00     0.032 A 
HETATM   14  C17 UNK     1      32.745  -6.502  35.983  1.00  0.00     0.031 A 
HETATM   15  C23 UNK     1      34.178  -4.691  35.329  1.00  0.00     0.002 A 
HETATM   16  C24 UNK     1      33.123  -5.164  36.091  1.00  0.00     0.002 A 
HETATM   17  H7  UNK     1      36.114  -7.229  33.149  1.00  0.00     0.166 HD
HETATM   18  H8  UNK     1      32.223  -8.947  35.752  1.00  0.00     0.160 HD
ENDROOT
BRANCH   9  19
HETATM   19  C9  UNK     1      32.120  -8.835  32.731  1.00  0.00     0.042 A 
HETATM   20  C14 UNK     1      30.664  -8.611  32.913  1.00  0.00     0.195 A 
HETATM   21  O4  UNK     1      30.074  -8.955  33.929  1.00  0.00    -0.287 OA
HETATM   22  C19 UNK     1      29.961  -7.949  31.799  1.00  0.00     0.049 A 
HETATM   23  C22 UNK     1      30.684  -7.580  30.664  1.00  0.00     0.089 A 
HETATM   24  C25 UNK     1      28.590  -7.694  31.873  1.00  0.00     0.025 A 
HETATM   25  O2  UNK     1      32.032  -7.806  30.537  1.00  0.00    -0.321 OA
HETATM   26  C26 UNK     1      30.040  -6.953  29.597  1.00  0.00     0.039 A 
HETATM   27  C15 UNK     1      32.673  -8.424  31.583  1.00  0.00     0.156 A 
HETATM   28  C28 UNK     1      28.670  -6.696  29.669  1.00  0.00     0.009 A 
HETATM   29  C27 UNK     1      27.947  -7.065  30.804  1.00  0.00    -0.061 A 
HETATM   30  C29 UNK     1      26.483  -6.788  30.876  1.00  0.00     0.048 C 
ENDBRANCH   9  19
BRANCH   4  31
HETATM   31  C8  UNK     1      38.257 -11.539  32.580  1.00  0.00    -0.050 A 
HETATM   32  C12 UNK     1      39.312 -10.637  32.465  1.00  0.00     0.047 A 
HETATM   33  C18 UNK     1      40.551 -11.073  31.997  1.00  0.00     0.102 A 
HETATM   34  C21 UNK     1      40.733 -12.411  31.646  1.00  0.00     0.101 A 
HETATM   35  C20 UNK     1      39.675 -13.312  31.762  1.00  0.00     0.040 A 
HETATM   36  C13 UNK     1      38.435 -12.876  32.229  1.00  0.00     0.010 A 
BRANCH  33  37
HETATM   37  O3  UNK     1      41.578 -10.184  31.890  1.00  0.00    -0.353 OA
HETATM   38  C30 UNK     1      42.213  -9.777  33.101  1.00  0.00     0.210 C 
ENDBRANCH  33  37
BRANCH  34  39
HETATM   39  O5  UNK     1      41.940 -12.849  31.190  1.00  0.00    -0.353 OA
HETATM   40  C31 UNK     1      42.781 -13.522  32.125  1.00  0.00     0.210 C 
ENDBRANCH  34  39
ENDBRANCH   4  31
TORSDOF 4
ENDMDL
MODEL 10
REMARK VINA RESULT:      -8.3      1.900      2.381
REMARK  4 active torsions:
REMARK  status: ('A' for Active; 'I' for Inactive)
REMARK    1  A    between atoms: C18_25  and  O3_3 
REMARK    2  A    between atoms: C21_28  and  O5_5 
REMARK    3  A    between atoms: C1_8  and  C8_15 
REMARK    4  A    between atoms: C6_13  and  C9_16 
ROOT
HETATM    1  O1  UNK     1      34.530  -9.067  32.498  1.00  0.00    -0.293 OA
HETATM    2  N1  UNK     1      29.941  -9.796  31.214  1.00  0.00    -0.357 N 
HETATM    3  N2  UNK     1      31.212  -7.080  31.418  1.00  0.00    -0.375 N 
HETATM    4  C1  UNK     1      33.073 -11.694  30.519  1.00  0.00     0.031 C 
HETATM    5  C2  UNK     1      31.608 -11.513  30.925  1.00  0.00     0.067 C 
HETATM    6  C3  UNK     1      32.238  -9.272  31.855  1.00  0.00     0.037 C 
HETATM    7  C4  UNK     1      33.969 -11.212  31.651  1.00  0.00     0.093 C 
HETATM    8  C5  UNK     1      31.284 -10.091  31.362  1.00  0.00     0.022 C 
HETATM    9  C6  UNK     1      31.984  -7.873  32.358  1.00  0.00     0.160 C 
HETATM   10  C7  UNK     1      33.650  -9.781  32.016  1.00  0.00     0.160 C 
HETATM   11  C10 UNK     1      29.268  -8.566  31.065  1.00  0.00     0.059 A 
HETATM   12  C11 UNK     1      29.882  -7.302  31.095  1.00  0.00     0.055 A 
HETATM   13  C16 UNK     1      27.879  -8.638  30.811  1.00  0.00     0.032 A 
HETATM   14  C17 UNK     1      29.090  -6.163  30.821  1.00  0.00     0.031 A 
HETATM   15  C23 UNK     1      27.114  -7.501  30.563  1.00  0.00     0.002 A 
HETATM   16  C24 UNK     1      27.724  -6.258  30.558  1.00  0.00     0.002 A 
HETATM   17  H7  UNK     1      29.350 -10.611  31.078  1.00  0.00     0.166 HD
HETATM   18  H8  UNK     1      31.567  -6.147  31.229  1.00  0.00     0.160 HD
ENDROOT
BRANCH   9  19
HETATM   19  C9  UNK     1      31.362  -7.844  33.724  1.00  0.00     0.042 A 
HETATM   20  C14 UNK     1      31.202  -6.534  34.403  1.00  0.00     0.195 A 
HETATM   21  O4  UNK     1      31.561  -5.484  33.885  1.00  0.00    -0.287 OA
HETATM   22  C19 UNK     1      30.586  -6.562  35.742  1.00  0.00     0.049 A 
HETATM   23  C22 UNK     1      30.197  -7.788  36.283  1.00  0.00     0.089 A 
HETATM   24  C25 UNK     1      30.392  -5.382  36.463  1.00  0.00     0.025 A 
HETATM   25  O2  UNK     1      30.363  -8.978  35.620  1.00  0.00    -0.321 OA
HETATM   26  C26 UNK     1      29.612  -7.840  37.549  1.00  0.00     0.039 A 
HETATM   27  C15 UNK     1      30.939  -8.935  34.374  1.00  0.00     0.156 A 
HETATM   28  C28 UNK     1      29.417  -6.662  38.271  1.00  0.00     0.009 A 
HETATM   29  C27 UNK     1      29.806  -5.436  37.729  1.00  0.00    -0.061 A 
HETATM   30  C29 UNK     1      29.594  -4.179  38.505  1.00  0.00     0.048 C 
ENDBRANCH   9  19
BRANCH   4  31
HETATM   31  C8  UNK     1      33.381 -13.122  30.111  1.00  0.00    -0.050 A 
HETATM   32  C12 UNK     1      32.482 -14.141  30.417  1.00  0.00     0.047 A 
HETATM   33  C18 UNK     1      32.766 -15.454  30.042  1.00  0.00     0.102 A 
HETATM   34  C21 UNK     1      33.949 -15.745  29.362  1.00  0.00     0.101 A 
HETATM   35  C20 UNK     1      34.849 -14.723  29.058  1.00  0.00     0.040 A 
HETATM   36  C13 UNK     1      34.564 -13.410  29.433  1.00  0.00     0.010 A 
BRANCH  33  37
HETATM   37  O3  UNK     1      31.879 -16.444  30.343  1.00  0.00    -0.353 OA
HETATM   38  C30 UNK     1      30.831 -16.682  29.406  1.00  0.00     0.210 C 
ENDBRANCH  33  37
BRANCH  34  39
HETATM   39  O5  UNK     1      34.236 -17.024  28.990  1.00  0.00    -0.353 OA
HETATM   40  C31 UNK     1      34.927 -17.200  27.755  1.00  0.00     0.210 C 
ENDBRANCH  34  39
ENDBRANCH   4  31
TORSDOF 4
ENDMDL
