MODEL 1
REMARK VINA RESULT:      -8.7      0.000      0.000
REMARK  1 active torsions:
REMARK  status: ('A' for Active; 'I' for Inactive)
REMARK    1  A    between atoms: C2_5  and  C5_8 
ROOT
HETATM    1  O1  UNK     1      20.187   7.643  33.541  1.00  0.00    -0.321 OA
HETATM    2  O2  UNK     1      16.385  10.259  34.989  1.00  0.00    -0.275 OA
HETATM    3  O3  UNK     1      14.521  11.432  35.620  1.00  0.00    -0.260 OA
HETATM    4  C1  UNK     1      18.104   7.075  32.876  1.00  0.00     0.012 A 
HETATM    5  C2  UNK     1      19.029   6.153  32.316  1.00  0.00     0.009 A 
HETATM    6  C3  UNK     1      18.867   7.970  33.620  1.00  0.00     0.088 A 
HETATM    7  C4  UNK     1      16.706   7.248  32.834  1.00  0.00     0.029 A 
HETATM    8  C6  UNK     1      16.135   8.315  33.543  1.00  0.00    -0.001 A 
HETATM    9  C7  UNK     1      16.951   9.180  34.272  1.00  0.00     0.092 A 
HETATM   10  C8  UNK     1      18.340   9.042  34.338  1.00  0.00     0.076 A 
HETATM   11  C9  UNK     1      20.275   6.541  32.750  1.00  0.00     0.155 A 
HETATM   12  C12 UNK     1      14.698   8.546  33.540  1.00  0.00     0.020 A 
HETATM   13  C16 UNK     1      14.175   9.568  34.222  1.00  0.00     0.083 A 
HETATM   14  C17 UNK     1      15.014  10.498  34.999  1.00  0.00     0.288 A 
ENDROOT
BRANCH   5  15
HETATM   15  C5  UNK     1      18.815   5.020  31.466  1.00  0.00    -0.023 A 
HETATM   16  C10 UNK     1      18.316   3.829  31.998  1.00  0.00     0.013 A 
HETATM   17  C14 UNK     1      18.109   2.725  31.170  1.00  0.00     0.007 A 
HETATM   18  C13 UNK     1      18.401   2.811  29.809  1.00  0.00    -0.062 A 
HETATM   19  C15 UNK     1      18.900   3.999  29.275  1.00  0.00     0.007 A 
HETATM   20  C18 UNK     1      18.180   1.631  28.924  1.00  0.00     0.048 C 
HETATM   21  C11 UNK     1      19.108   5.102  30.103  1.00  0.00     0.013 A 
ENDBRANCH   5  15
TORSDOF 1
ENDMDL
MODEL 2
REMARK VINA RESULT:      -8.6      3.238      7.380
REMARK  1 active torsions:
REMARK  status: ('A' for Active; 'I' for Inactive)
REMARK    1  A    between atoms: C2_5  and  C5_8 
ROOT
HETATM    1  O1  UNK     1      18.986   4.910  29.589  1.00  0.00    -0.321 OA
HETATM    2  O2  UNK     1      18.922   0.515  31.610  1.00  0.00    -0.275 OA
HETATM    3  O3  UNK     1      18.856  -1.521  32.657  1.00  0.00    -0.260 OA
HETATM    4  C1  UNK     1      18.329   4.662  31.736  1.00  0.00     0.012 A 
HETATM    5  C2  UNK     1      18.256   6.038  31.393  1.00  0.00     0.009 A 
HETATM    6  C3  UNK     1      18.784   4.011  30.593  1.00  0.00     0.088 A 
HETATM    7  C4  UNK     1      18.060   3.897  32.889  1.00  0.00     0.029 A 
HETATM    8  C6  UNK     1      18.260   2.509  32.843  1.00  0.00    -0.001 A 
HETATM    9  C7  UNK     1      18.717   1.914  31.667  1.00  0.00     0.092 A 
HETATM   10  C8  UNK     1      18.995   2.637  30.504  1.00  0.00     0.076 A 
HETATM   11  C9  UNK     1      18.664   6.134  30.083  1.00  0.00     0.155 A 
HETATM   12  C12 UNK     1      18.000   1.666  33.999  1.00  0.00     0.020 A 
HETATM   13  C16 UNK     1      18.196   0.347  33.932  1.00  0.00     0.083 A 
HETATM   14  C17 UNK     1      18.679  -0.309  32.704  1.00  0.00     0.288 A 
ENDROOT
BRANCH   5  15
HETATM   15  C5  UNK     1      17.854   7.172  32.171  1.00  0.00    -0.023 A 
HETATM   16  C10 UNK     1      16.599   7.751  31.969  1.00  0.00     0.013 A 
HETATM   17  C14 UNK     1      16.208   8.856  32.726  1.00  0.00     0.007 A 
HETATM   18  C13 UNK     1      17.071   9.383  33.686  1.00  0.00    -0.062 A 
HETATM   19  C15 UNK     1      18.325   8.807  33.889  1.00  0.00     0.007 A 
HETATM   20  C18 UNK     1      16.653  10.564  34.496  1.00  0.00     0.048 C 
HETATM   21  C11 UNK     1      18.716   7.704  33.132  1.00  0.00     0.013 A 
ENDBRANCH   5  15
TORSDOF 1
ENDMDL
MODEL 3
REMARK VINA RESULT:      -8.5      4.567      7.689
REMARK  1 active torsions:
REMARK  status: ('A' for Active; 'I' for Inactive)
REMARK    1  A    between atoms: C2_5  and  C5_8 
ROOT
HETATM    1  O1  UNK     1      18.383   2.100  31.623  1.00  0.00    -0.321 OA
HETATM    2  O2  UNK     1      18.070  -0.960  35.357  1.00  0.00    -0.275 OA
HETATM    3  O3  UNK     1      17.916  -2.324  37.191  1.00  0.00    -0.260 OA
HETATM    4  C1  UNK     1      18.228   2.899  33.731  1.00  0.00     0.012 A 
HETATM    5  C2  UNK     1      18.306   3.996  32.832  1.00  0.00     0.009 A 
HETATM    6  C3  UNK     1      18.279   1.756  32.938  1.00  0.00     0.088 A 
HETATM    7  C4  UNK     1      18.119   2.750  35.128  1.00  0.00     0.029 A 
HETATM    8  C6  UNK     1      18.066   1.456  35.668  1.00  0.00    -0.001 A 
HETATM    9  C7  UNK     1      18.121   0.349  34.822  1.00  0.00     0.092 A 
HETATM   10  C8  UNK     1      18.230   0.455  33.433  1.00  0.00     0.076 A 
HETATM   11  C9  UNK     1      18.397   3.457  31.569  1.00  0.00     0.155 A 
HETATM   12  C12 UNK     1      17.953   1.236  37.102  1.00  0.00     0.020 A 
HETATM   13  C16 UNK     1      17.904  -0.003  37.595  1.00  0.00     0.083 A 
HETATM   14  C17 UNK     1      17.962  -1.192  36.725  1.00  0.00     0.288 A 
ENDROOT
BRANCH   5  15
HETATM   15  C5  UNK     1      18.298   5.406  33.081  1.00  0.00    -0.023 A 
HETATM   16  C10 UNK     1      17.192   6.177  32.713  1.00  0.00     0.013 A 
HETATM   17  C14 UNK     1      17.186   7.551  32.955  1.00  0.00     0.007 A 
HETATM   18  C13 UNK     1      18.283   8.157  33.564  1.00  0.00    -0.062 A 
HETATM   19  C15 UNK     1      19.389   7.390  33.932  1.00  0.00     0.007 A 
HETATM   20  C18 UNK     1      18.276   9.626  33.823  1.00  0.00     0.048 C 
HETATM   21  C11 UNK     1      19.396   6.017  33.690  1.00  0.00     0.013 A 
ENDBRANCH   5  15
TORSDOF 1
ENDMDL
MODEL 4
REMARK VINA RESULT:      -8.3      7.899     11.030
REMARK  1 active torsions:
REMARK  status: ('A' for Active; 'I' for Inactive)
REMARK    1  A    between atoms: C2_5  and  C5_8 
ROOT
HETATM    1  O1  UNK     1      18.114  -1.032  36.149  1.00  0.00    -0.321 OA
HETATM    2  O2  UNK     1      18.881   0.480  31.618  1.00  0.00    -0.275 OA
HETATM    3  O3  UNK     1      19.307   1.110  29.457  1.00  0.00    -0.260 OA
HETATM    4  C1  UNK     1      19.468  -2.210  34.778  1.00  0.00     0.012 A 
HETATM    5  C2  UNK     1      19.415  -2.864  36.038  1.00  0.00     0.009 A 
HETATM    6  C3  UNK     1      18.652  -1.089  34.898  1.00  0.00     0.088 A 
HETATM    7  C4  UNK     1      20.118  -2.446  33.549  1.00  0.00     0.029 A 
HETATM    8  C6  UNK     1      19.919  -1.543  32.494  1.00  0.00    -0.001 A 
HETATM    9  C7  UNK     1      19.088  -0.437  32.675  1.00  0.00     0.092 A 
HETATM   10  C8  UNK     1      18.427  -0.169  33.877  1.00  0.00     0.076 A 
HETATM   11  C9  UNK     1      18.581  -2.110  36.831  1.00  0.00     0.155 A 
HETATM   12  C12 UNK     1      20.561  -1.731  31.202  1.00  0.00     0.020 A 
HETATM   13  C16 UNK     1      20.357  -0.860  30.211  1.00  0.00     0.083 A 
HETATM   14  C17 UNK     1      19.486   0.317  30.375  1.00  0.00     0.288 A 
ENDROOT
BRANCH   5  15
HETATM   15  C5  UNK     1      20.054  -4.062  36.493  1.00  0.00    -0.023 A 
HETATM   16  C10 UNK     1      19.784  -5.281  35.868  1.00  0.00     0.013 A 
HETATM   17  C14 UNK     1      20.407  -6.448  36.313  1.00  0.00     0.007 A 
HETATM   18  C13 UNK     1      21.299  -6.398  37.383  1.00  0.00    -0.062 A 
HETATM   19  C15 UNK     1      21.570  -5.181  38.009  1.00  0.00     0.007 A 
HETATM   20  C18 UNK     1      21.964  -7.645  37.858  1.00  0.00     0.048 C 
HETATM   21  C11 UNK     1      20.947  -4.015  37.565  1.00  0.00     0.013 A 
ENDBRANCH   5  15
TORSDOF 1
ENDMDL
MODEL 5
REMARK VINA RESULT:      -8.2     22.799     24.455
REMARK  1 active torsions:
REMARK  status: ('A' for Active; 'I' for Inactive)
REMARK    1  A    between atoms: C2_5  and  C5_8 
ROOT
HETATM    1  O1  UNK     1      15.720   5.576  10.096  1.00  0.00    -0.321 OA
HETATM    2  O2  UNK     1      18.117   9.777  10.182  1.00  0.00    -0.275 OA
HETATM    3  O3  UNK     1      19.170  11.811  10.171  1.00  0.00    -0.260 OA
HETATM    4  C1  UNK     1      14.814   7.414   9.146  1.00  0.00     0.012 A 
HETATM    5  C2  UNK     1      13.915   6.327   8.983  1.00  0.00     0.009 A 
HETATM    6  C3  UNK     1      15.908   6.901   9.836  1.00  0.00     0.088 A 
HETATM    7  C4  UNK     1      14.821   8.777   8.785  1.00  0.00     0.029 A 
HETATM    8  C6  UNK     1      15.928   9.564   9.134  1.00  0.00    -0.001 A 
HETATM    9  C7  UNK     1      16.995   8.992   9.826  1.00  0.00     0.092 A 
HETATM   10  C8  UNK     1      17.026   7.646  10.202  1.00  0.00     0.076 A 
HETATM   11  C9  UNK     1      14.511   5.239   9.577  1.00  0.00     0.155 A 
HETATM   12  C12 UNK     1      15.995  10.976   8.790  1.00  0.00     0.020 A 
HETATM   13  C16 UNK     1      17.058  11.707   9.132  1.00  0.00     0.083 A 
HETATM   14  C17 UNK     1      18.200  11.129   9.863  1.00  0.00     0.288 A 
ENDROOT
BRANCH   5  15
HETATM   15  C5  UNK     1      12.631   6.267   8.351  1.00  0.00    -0.023 A 
HETATM   16  C10 UNK     1      12.511   6.519   6.982  1.00  0.00     0.013 A 
HETATM   17  C14 UNK     1      11.259   6.461   6.368  1.00  0.00     0.007 A 
HETATM   18  C13 UNK     1      10.127   6.152   7.120  1.00  0.00    -0.062 A 
HETATM   19  C15 UNK     1      10.244   5.899   8.486  1.00  0.00     0.007 A 
HETATM   20  C18 UNK     1       8.790   6.089   6.463  1.00  0.00     0.048 C 
HETATM   21  C11 UNK     1      11.495   5.958   9.101  1.00  0.00     0.013 A 
ENDBRANCH   5  15
TORSDOF 1
ENDMDL
MODEL 6
REMARK VINA RESULT:      -7.9     22.717     24.371
REMARK  1 active torsions:
REMARK  status: ('A' for Active; 'I' for Inactive)
REMARK    1  A    between atoms: C2_5  and  C5_8 
ROOT
HETATM    1  O1  UNK     1      14.819   5.122   9.126  1.00  0.00    -0.321 OA
HETATM    2  O2  UNK     1      10.042   5.073   8.365  1.00  0.00    -0.275 OA
HETATM    3  O3  UNK     1       7.778   5.155   8.024  1.00  0.00    -0.260 OA
HETATM    4  C1  UNK     1      13.624   7.030   9.316  1.00  0.00     0.012 A 
HETATM    5  C2  UNK     1      14.988   7.317   9.587  1.00  0.00     0.009 A 
HETATM    6  C3  UNK     1      13.573   5.667   9.038  1.00  0.00     0.088 A 
HETATM    7  C4  UNK     1      12.428   7.775   9.275  1.00  0.00     0.029 A 
HETATM    8  C6  UNK     1      11.231   7.116   8.956  1.00  0.00    -0.001 A 
HETATM    9  C7  UNK     1      11.243   5.747   8.686  1.00  0.00     0.092 A 
HETATM   10  C8  UNK     1      12.408   4.975   8.717  1.00  0.00     0.076 A 
HETATM   11  C9  UNK     1      15.669   6.129   9.457  1.00  0.00     0.155 A 
HETATM   12  C12 UNK     1       9.964   7.829   8.897  1.00  0.00     0.020 A 
HETATM   13  C16 UNK     1       8.837   7.182   8.591  1.00  0.00     0.083 A 
HETATM   14  C17 UNK     1       8.820   5.737   8.303  1.00  0.00     0.288 A 
ENDROOT
BRANCH   5  15
HETATM   15  C5  UNK     1      15.629   8.551   9.931  1.00  0.00    -0.023 A 
HETATM   16  C10 UNK     1      16.916   8.827   9.463  1.00  0.00     0.013 A 
HETATM   17  C14 UNK     1      17.540  10.029   9.799  1.00  0.00     0.007 A 
HETATM   18  C13 UNK     1      16.880  10.956  10.603  1.00  0.00    -0.062 A 
HETATM   19  C15 UNK     1      15.595  10.683  11.072  1.00  0.00     0.007 A 
HETATM   20  C18 UNK     1      17.547  12.241  10.963  1.00  0.00     0.048 C 
HETATM   21  C11 UNK     1      14.971   9.482  10.737  1.00  0.00     0.013 A 
ENDBRANCH   5  15
TORSDOF 1
ENDMDL
MODEL 7
REMARK VINA RESULT:      -7.9     22.703     24.354
REMARK  1 active torsions:
REMARK  status: ('A' for Active; 'I' for Inactive)
REMARK    1  A    between atoms: C2_5  and  C5_8 
ROOT
HETATM    1  O1  UNK     1      14.820   5.120   9.138  1.00  0.00    -0.321 OA
HETATM    2  O2  UNK     1      10.045   5.074   8.363  1.00  0.00    -0.275 OA
HETATM    3  O3  UNK     1       7.782   5.158   8.016  1.00  0.00    -0.260 OA
HETATM    4  C1  UNK     1      13.626   7.029   9.323  1.00  0.00     0.012 A 
HETATM    5  C2  UNK     1      14.989   7.315   9.598  1.00  0.00     0.009 A 
HETATM    6  C3  UNK     1      13.574   5.665   9.046  1.00  0.00     0.088 A 
HETATM    7  C4  UNK     1      12.431   7.774   9.278  1.00  0.00     0.029 A 
HETATM    8  C6  UNK     1      11.234   7.116   8.956  1.00  0.00    -0.001 A 
HETATM    9  C7  UNK     1      11.246   5.748   8.688  1.00  0.00     0.092 A 
HETATM   10  C8  UNK     1      12.409   4.974   8.723  1.00  0.00     0.076 A 
HETATM   11  C9  UNK     1      15.669   6.126   9.471  1.00  0.00     0.155 A 
HETATM   12  C12 UNK     1       9.968   7.830   8.893  1.00  0.00     0.020 A 
HETATM   13  C16 UNK     1       8.841   7.185   8.584  1.00  0.00     0.083 A 
HETATM   14  C17 UNK     1       8.824   5.739   8.298  1.00  0.00     0.288 A 
ENDROOT
BRANCH   5  15
HETATM   15  C5  UNK     1      15.631   8.549   9.943  1.00  0.00    -0.023 A 
HETATM   16  C10 UNK     1      14.972   9.479  10.751  1.00  0.00     0.013 A 
HETATM   17  C14 UNK     1      15.597  10.681  11.086  1.00  0.00     0.007 A 
HETATM   18  C13 UNK     1      16.880  10.954  10.614  1.00  0.00    -0.062 A 
HETATM   19  C15 UNK     1      17.540  10.027   9.807  1.00  0.00     0.007 A 
HETATM   20  C18 UNK     1      17.548  12.239  10.972  1.00  0.00     0.048 C 
HETATM   21  C11 UNK     1      16.915   8.827   9.471  1.00  0.00     0.013 A 
ENDBRANCH   5  15
TORSDOF 1
ENDMDL
MODEL 8
REMARK VINA RESULT:      -7.9     15.463     18.534
REMARK  1 active torsions:
REMARK  status: ('A' for Active; 'I' for Inactive)
REMARK    1  A    between atoms: C2_5  and  C5_8 
ROOT
HETATM    1  O1  UNK     1      23.269 -11.529  35.276  1.00  0.00    -0.321 OA
HETATM    2  O2  UNK     1      27.298 -10.189  37.595  1.00  0.00    -0.275 OA
HETATM    3  O3  UNK     1      29.153  -9.470  38.730  1.00  0.00    -0.260 OA
HETATM    4  C1  UNK     1      23.291  -9.632  36.502  1.00  0.00     0.012 A 
HETATM    5  C2  UNK     1      22.000  -9.791  35.933  1.00  0.00     0.009 A 
HETATM    6  C3  UNK     1      24.034 -10.726  36.069  1.00  0.00     0.088 A 
HETATM    7  C4  UNK     1      23.911  -8.681  37.338  1.00  0.00     0.029 A 
HETATM    8  C6  UNK     1      25.252  -8.871  37.701  1.00  0.00    -0.001 A 
HETATM    9  C7  UNK     1      25.945  -9.988  37.235  1.00  0.00     0.092 A 
HETATM   10  C8  UNK     1      25.366 -10.952  36.405  1.00  0.00     0.076 A 
HETATM   11  C9  UNK     1      22.040 -10.955  35.201  1.00  0.00     0.155 A 
HETATM   12  C12 UNK     1      25.948  -7.926  38.561  1.00  0.00     0.020 A 
HETATM   13  C16 UNK     1      27.225  -8.127  38.895  1.00  0.00     0.083 A 
HETATM   14  C17 UNK     1      27.981  -9.297  38.416  1.00  0.00     0.288 A 
ENDROOT
BRANCH   5  15
HETATM   15  C5  UNK     1      20.829  -8.973  36.036  1.00  0.00    -0.023 A 
HETATM   16  C10 UNK     1      19.867  -9.245  37.012  1.00  0.00     0.013 A 
HETATM   17  C14 UNK     1      18.726  -8.448  37.111  1.00  0.00     0.007 A 
HETATM   18  C13 UNK     1      18.544  -7.379  36.235  1.00  0.00    -0.062 A 
HETATM   19  C15 UNK     1      19.503  -7.106  35.259  1.00  0.00     0.007 A 
HETATM   20  C18 UNK     1      17.325  -6.527  36.341  1.00  0.00     0.048 C 
HETATM   21  C11 UNK     1      20.643  -7.902  35.159  1.00  0.00     0.013 A 
ENDBRANCH   5  15
TORSDOF 1
ENDMDL
MODEL 9
REMARK VINA RESULT:      -7.7      2.175      3.155
REMARK  1 active torsions:
REMARK  status: ('A' for Active; 'I' for Inactive)
REMARK    1  A    between atoms: C2_5  and  C5_8 
ROOT
HETATM    1  O1  UNK     1      18.741   5.628  29.792  1.00  0.00    -0.321 OA
HETATM    2  O2  UNK     1      17.090   9.066  32.768  1.00  0.00    -0.275 OA
HETATM    3  O3  UNK     1      16.297  10.619  34.253  1.00  0.00    -0.260 OA
HETATM    4  C1  UNK     1      18.117   5.097  31.898  1.00  0.00     0.012 A 
HETATM    5  C2  UNK     1      18.559   3.917  31.242  1.00  0.00     0.009 A 
HETATM    6  C3  UNK     1      18.249   6.121  30.964  1.00  0.00     0.088 A 
HETATM    7  C4  UNK     1      17.622   5.410  33.180  1.00  0.00     0.029 A 
HETATM    8  C6  UNK     1      17.279   6.740  33.467  1.00  0.00    -0.001 A 
HETATM    9  C7  UNK     1      17.433   7.722  32.489  1.00  0.00     0.092 A 
HETATM   10  C8  UNK     1      17.920   7.452  31.207  1.00  0.00     0.076 A 
HETATM   11  C9  UNK     1      18.926   4.294  29.971  1.00  0.00     0.155 A 
HETATM   12  C12 UNK     1      16.763   7.126  34.771  1.00  0.00     0.020 A 
HETATM   13  C16 UNK     1      16.443   8.397  35.023  1.00  0.00     0.083 A 
HETATM   14  C17 UNK     1      16.594   9.456  34.008  1.00  0.00     0.288 A 
ENDROOT
BRANCH   5  15
HETATM   15  C5  UNK     1      18.647   2.568  31.713  1.00  0.00    -0.023 A 
HETATM   16  C10 UNK     1      18.278   2.257  33.024  1.00  0.00     0.013 A 
HETATM   17  C14 UNK     1      18.365   0.942  33.482  1.00  0.00     0.007 A 
HETATM   18  C13 UNK     1      18.821  -0.064  32.631  1.00  0.00    -0.062 A 
HETATM   19  C15 UNK     1      19.190   0.243  31.322  1.00  0.00     0.007 A 
HETATM   20  C18 UNK     1      18.913  -1.470  33.121  1.00  0.00     0.048 C 
HETATM   21  C11 UNK     1      19.104   1.558  30.864  1.00  0.00     0.013 A 
ENDBRANCH   5  15
TORSDOF 1
ENDMDL
MODEL 10
REMARK VINA RESULT:      -7.7      9.968     13.339
REMARK  1 active torsions:
REMARK  status: ('A' for Active; 'I' for Inactive)
REMARK    1  A    between atoms: C2_5  and  C5_8 
ROOT
HETATM    1  O1  UNK     1      20.206  -2.838  37.589  1.00  0.00    -0.321 OA
HETATM    2  O2  UNK     1      20.443  -7.635  38.162  1.00  0.00    -0.275 OA
HETATM    3  O3  UNK     1      20.552  -9.918  38.327  1.00  0.00    -0.260 OA
HETATM    4  C1  UNK     1      20.178  -4.195  35.783  1.00  0.00     0.012 A 
HETATM    5  C2  UNK     1      20.098  -2.848  35.342  1.00  0.00     0.009 A 
HETATM    6  C3  UNK     1      20.242  -4.135  37.173  1.00  0.00     0.088 A 
HETATM    7  C4  UNK     1      20.204  -5.458  35.158  1.00  0.00     0.029 A 
HETATM    8  C6  UNK     1      20.293  -6.607  35.958  1.00  0.00    -0.001 A 
HETATM    9  C7  UNK     1      20.354  -6.483  37.346  1.00  0.00     0.092 A 
HETATM   10  C8  UNK     1      20.331  -5.250  38.003  1.00  0.00     0.076 A 
HETATM   11  C9  UNK     1      20.120  -2.066  36.474  1.00  0.00     0.155 A 
HETATM   12  C12 UNK     1      20.323  -7.939  35.374  1.00  0.00     0.020 A 
HETATM   13  C16 UNK     1      20.409  -9.019  36.154  1.00  0.00     0.083 A 
HETATM   14  C17 UNK     1      20.474  -8.918  37.622  1.00  0.00     0.288 A 
ENDROOT
BRANCH   5  15
HETATM   15  C5  UNK     1      20.012  -2.304  34.020  1.00  0.00    -0.023 A 
HETATM   16  C10 UNK     1      20.935  -2.685  33.043  1.00  0.00     0.013 A 
HETATM   17  C14 UNK     1      20.851  -2.155  31.755  1.00  0.00     0.007 A 
HETATM   18  C13 UNK     1      19.844  -1.244  31.442  1.00  0.00    -0.062 A 
HETATM   19  C15 UNK     1      18.920  -0.861  32.414  1.00  0.00     0.007 A 
HETATM   20  C18 UNK     1      19.753  -0.677  30.065  1.00  0.00     0.048 C 
HETATM   21  C11 UNK     1      19.005  -1.390  33.702  1.00  0.00     0.013 A 
ENDBRANCH   5  15
TORSDOF 1
ENDMDL
