MODEL 1
REMARK VINA RESULT:      -8.4      0.000      0.000
REMARK  1 active torsions:
REMARK  status: ('A' for Active; 'I' for Inactive)
REMARK       I    between atoms: C8_14  and  N1_6 
REMARK    1  A    between atoms: C8_14  and  C9_15 
ROOT
HETATM    1  O1  UNK     1      15.650   9.615  35.347  1.00  0.00    -0.353 OA
HETATM    2  O2  UNK     1      15.472   9.320  33.026  1.00  0.00    -0.353 OA
HETATM    3  O3  UNK     1      20.190   6.184  33.147  1.00  0.00    -0.267 OA
HETATM    4  N1  UNK     1      17.954   6.823  33.222  1.00  0.00    -0.347 N 
HETATM    5  C1  UNK     1      16.143   8.876  34.219  1.00  0.00     0.167 C 
HETATM    6  C2  UNK     1      15.863   7.384  34.424  1.00  0.00     0.088 C 
HETATM    7  C3  UNK     1      17.650   9.119  34.088  1.00  0.00     0.088 C 
HETATM    8  C4  UNK     1      16.520   6.521  33.345  1.00  0.00     0.131 C 
HETATM    9  C5  UNK     1      18.266   8.239  33.004  1.00  0.00     0.131 C 
HETATM   10  C6  UNK     1      14.484  10.282  34.864  1.00  0.00     0.197 C 
HETATM   11  C7  UNK     1      14.797  10.516  33.413  1.00  0.00     0.197 C 
HETATM   12  C8  UNK     1      18.995   5.900  33.252  1.00  0.00     0.259 C 
ENDROOT
BRANCH  12  13
HETATM   13  C9  UNK     1      18.647   4.474  33.417  1.00  0.00     0.108 A 
HETATM   14  C10 UNK     1      18.754   3.978  34.657  1.00  0.00     0.037 A 
HETATM   15  C12 UNK     1      18.434   2.584  34.919  1.00  0.00    -0.001 A 
HETATM   16  C13 UNK     1      18.015   1.780  33.864  1.00  0.00     0.089 A 
HETATM   17  C14 UNK     1      18.532   2.025  36.195  1.00  0.00     0.014 A 
HETATM   18  O4  UNK     1      17.903   2.307  32.563  1.00  0.00    -0.274 OA
HETATM   19  C15 UNK     1      17.693   0.437  34.048  1.00  0.00     0.038 A 
HETATM   20  C11 UNK     1      18.202   3.637  32.280  1.00  0.00     0.304 A 
HETATM   21  O5  UNK     1      18.103   4.087  31.144  1.00  0.00    -0.259 OA
HETATM   22  C17 UNK     1      17.794  -0.113  35.324  1.00  0.00     0.003 A 
HETATM   23  C16 UNK     1      18.212   0.679  36.395  1.00  0.00     0.001 A 
ENDBRANCH  12  13
TORSDOF 1
ENDMDL
MODEL 2
REMARK VINA RESULT:      -8.1     23.886     25.842
REMARK  1 active torsions:
REMARK  status: ('A' for Active; 'I' for Inactive)
REMARK       I    between atoms: C8_14  and  N1_6 
REMARK    1  A    between atoms: C8_14  and  C9_15 
ROOT
HETATM    1  O1  UNK     1      10.902   6.156   5.869  1.00  0.00    -0.353 OA
HETATM    2  O2  UNK     1       9.734   6.400   7.890  1.00  0.00    -0.353 OA
HETATM    3  O3  UNK     1      14.632   5.870  10.691  1.00  0.00    -0.267 OA
HETATM    4  N1  UNK     1      12.821   6.784   9.550  1.00  0.00    -0.347 N 
HETATM    5  C1  UNK     1      11.038   6.372   7.283  1.00  0.00     0.167 C 
HETATM    6  C2  UNK     1      11.733   7.715   7.530  1.00  0.00     0.088 C 
HETATM    7  C3  UNK     1      11.865   5.230   7.881  1.00  0.00     0.088 C 
HETATM    8  C4  UNK     1      12.070   7.927   9.007  1.00  0.00     0.131 C 
HETATM    9  C5  UNK     1      12.180   5.480   9.353  1.00  0.00     0.131 C 
HETATM   10  C6  UNK     1       9.514   6.352   5.603  1.00  0.00     0.197 C 
HETATM   11  C7  UNK     1       8.852   5.912   6.879  1.00  0.00     0.197 C 
HETATM   12  C8  UNK     1      14.025   6.847  10.247  1.00  0.00     0.259 C 
ENDROOT
BRANCH  12  13
HETATM   13  C9  UNK     1      14.617   8.180  10.478  1.00  0.00     0.108 A 
HETATM   14  C10 UNK     1      15.696   8.483   9.745  1.00  0.00     0.037 A 
HETATM   15  C12 UNK     1      16.351   9.772   9.902  1.00  0.00    -0.001 A 
HETATM   16  C13 UNK     1      15.838  10.679  10.822  1.00  0.00     0.089 A 
HETATM   17  C14 UNK     1      17.478  10.130   9.159  1.00  0.00     0.014 A 
HETATM   18  O4  UNK     1      14.702  10.356  11.591  1.00  0.00    -0.274 OA
HETATM   19  C15 UNK     1      16.418  11.930  11.021  1.00  0.00     0.038 A 
HETATM   20  C11 UNK     1      14.054   9.130  11.463  1.00  0.00     0.304 A 
HETATM   21  O5  UNK     1      13.067   8.857  12.137  1.00  0.00    -0.259 OA
HETATM   22  C17 UNK     1      17.543  12.279  10.277  1.00  0.00     0.003 A 
HETATM   23  C16 UNK     1      18.071  11.381   9.347  1.00  0.00     0.001 A 
ENDBRANCH  12  13
TORSDOF 1
ENDMDL
MODEL 3
REMARK VINA RESULT:      -8.1      7.721     12.570
REMARK  1 active torsions:
REMARK  status: ('A' for Active; 'I' for Inactive)
REMARK       I    between atoms: C8_14  and  N1_6 
REMARK    1  A    between atoms: C8_14  and  C9_15 
ROOT
HETATM    1  O1  UNK     1      21.904  -8.781  35.900  1.00  0.00    -0.353 OA
HETATM    2  O2  UNK     1      19.736  -8.612  36.781  1.00  0.00    -0.353 OA
HETATM    3  O3  UNK     1      20.735  -3.163  37.974  1.00  0.00    -0.267 OA
HETATM    4  N1  UNK     1      20.113  -5.107  36.856  1.00  0.00    -0.347 N 
HETATM    5  C1  UNK     1      20.894  -7.869  36.362  1.00  0.00     0.167 C 
HETATM    6  C2  UNK     1      20.498  -6.926  35.221  1.00  0.00     0.088 C 
HETATM    7  C3  UNK     1      21.454  -7.068  37.541  1.00  0.00     0.088 C 
HETATM    8  C4  UNK     1      19.558  -5.815  35.693  1.00  0.00     0.131 C 
HETATM    9  C5  UNK     1      20.488  -5.971  37.980  1.00  0.00     0.131 C 
HETATM   10  C6  UNK     1      21.232 -10.033  35.771  1.00  0.00     0.197 C 
HETATM   11  C7  UNK     1      20.174  -9.969  36.836  1.00  0.00     0.197 C 
HETATM   12  C8  UNK     1      20.265  -3.729  36.985  1.00  0.00     0.259 C 
ENDROOT
BRANCH  12  13
HETATM   13  C9  UNK     1      19.828  -2.880  35.859  1.00  0.00     0.108 A 
HETATM   14  C10 UNK     1      20.522  -3.002  34.721  1.00  0.00     0.037 A 
HETATM   15  C12 UNK     1      20.167  -2.207  33.556  1.00  0.00    -0.001 A 
HETATM   16  C13 UNK     1      19.097  -1.322  33.646  1.00  0.00     0.089 A 
HETATM   17  C14 UNK     1      20.864  -2.301  32.349  1.00  0.00     0.014 A 
HETATM   18  O4  UNK     1      18.370  -1.198  34.845  1.00  0.00    -0.274 OA
HETATM   19  C15 UNK     1      18.707  -0.532  32.567  1.00  0.00     0.038 A 
HETATM   20  C11 UNK     1      18.685  -1.945  35.977  1.00  0.00     0.304 A 
HETATM   21  O5  UNK     1      18.047  -1.830  37.017  1.00  0.00    -0.259 OA
HETATM   22  C17 UNK     1      19.407  -0.632  31.367  1.00  0.00     0.003 A 
HETATM   23  C16 UNK     1      20.483  -1.516  31.258  1.00  0.00     0.001 A 
ENDBRANCH  12  13
TORSDOF 1
ENDMDL
MODEL 4
REMARK VINA RESULT:      -8.1     24.365     25.984
REMARK  1 active torsions:
REMARK  status: ('A' for Active; 'I' for Inactive)
REMARK       I    between atoms: C8_14  and  N1_6 
REMARK    1  A    between atoms: C8_14  and  C9_15 
ROOT
HETATM    1  O1  UNK     1      16.718  12.634  10.463  1.00  0.00    -0.353 OA
HETATM    2  O2  UNK     1      17.297  11.772   8.359  1.00  0.00    -0.353 OA
HETATM    3  O3  UNK     1      15.498   6.669  10.045  1.00  0.00    -0.267 OA
HETATM    4  N1  UNK     1      15.540   8.821   9.159  1.00  0.00    -0.347 N 
HETATM    5  C1  UNK     1      16.595  11.503   9.585  1.00  0.00     0.167 C 
HETATM    6  C2  UNK     1      15.116  11.258   9.272  1.00  0.00     0.088 C 
HETATM    7  C3  UNK     1      17.201  10.275  10.273  1.00  0.00     0.088 C 
HETATM    8  C4  UNK     1      14.900   9.962   8.488  1.00  0.00     0.131 C 
HETATM    9  C5  UNK     1      16.964   9.005   9.460  1.00  0.00     0.131 C 
HETATM   10  C6  UNK     1      17.238  13.677   9.641  1.00  0.00     0.197 C 
HETATM   11  C7  UNK     1      18.071  12.939   8.631  1.00  0.00     0.197 C 
HETATM   12  C8  UNK     1      14.934   7.609   9.481  1.00  0.00     0.259 C 
ENDROOT
BRANCH  12  13
HETATM   13  C9  UNK     1      13.514   7.432   9.115  1.00  0.00     0.108 A 
HETATM   14  C10 UNK     1      13.274   6.966   7.883  1.00  0.00     0.037 A 
HETATM   15  C12 UNK     1      11.907   6.758   7.431  1.00  0.00    -0.001 A 
HETATM   16  C13 UNK     1      10.860   7.050   8.298  1.00  0.00     0.089 A 
HETATM   17  C14 UNK     1      11.611   6.275   6.155  1.00  0.00     0.014 A 
HETATM   18  O4  UNK     1      11.118   7.539   9.594  1.00  0.00    -0.274 OA
HETATM   19  C15 UNK     1       9.529   6.874   7.927  1.00  0.00     0.038 A 
HETATM   20  C11 UNK     1      12.415   7.749  10.055  1.00  0.00     0.304 A 
HETATM   21  O5  UNK     1      12.630   8.176  11.184  1.00  0.00    -0.259 OA
HETATM   22  C17 UNK     1       9.241   6.392   6.652  1.00  0.00     0.003 A 
HETATM   23  C16 UNK     1      10.280   6.092   5.768  1.00  0.00     0.001 A 
ENDBRANCH  12  13
TORSDOF 1
ENDMDL
MODEL 5
REMARK VINA RESULT:      -7.8      6.573      9.848
REMARK  1 active torsions:
REMARK  status: ('A' for Active; 'I' for Inactive)
REMARK       I    between atoms: C8_14  and  N1_6 
REMARK    1  A    between atoms: C8_14  and  C9_15 
ROOT
HETATM    1  O1  UNK     1      18.229   1.228  37.718  1.00  0.00    -0.353 OA
HETATM    2  O2  UNK     1      16.559   0.032  36.583  1.00  0.00    -0.353 OA
HETATM    3  O3  UNK     1      20.546  -3.447  34.553  1.00  0.00    -0.267 OA
HETATM    4  N1  UNK     1      18.918  -2.504  35.924  1.00  0.00    -0.347 N 
HETATM    5  C1  UNK     1      17.939   0.024  36.990  1.00  0.00     0.167 C 
HETATM    6  C2  UNK     1      18.187  -1.190  37.891  1.00  0.00     0.088 C 
HETATM    7  C3  UNK     1      18.845  -0.039  35.756  1.00  0.00     0.088 C 
HETATM    8  C4  UNK     1      18.070  -2.509  37.126  1.00  0.00     0.131 C 
HETATM    9  C5  UNK     1      18.699  -1.369  35.022  1.00  0.00     0.131 C 
HETATM   10  C6  UNK     1      16.952   1.803  37.993  1.00  0.00     0.197 C 
HETATM   11  C7  UNK     1      16.118   1.368  36.821  1.00  0.00     0.197 C 
HETATM   12  C8  UNK     1      19.847  -3.479  35.569  1.00  0.00     0.259 C 
ENDROOT
BRANCH  12  13
HETATM   13  C9  UNK     1      20.006  -4.639  36.469  1.00  0.00     0.108 A 
HETATM   14  C10 UNK     1      19.313  -5.738  36.145  1.00  0.00     0.037 A 
HETATM   15  C12 UNK     1      19.405  -6.932  36.971  1.00  0.00    -0.001 A 
HETATM   16  C13 UNK     1      20.221  -6.911  38.096  1.00  0.00     0.089 A 
HETATM   17  C14 UNK     1      18.699  -8.100  36.671  1.00  0.00     0.014 A 
HETATM   18  O4  UNK     1      20.948  -5.752  38.432  1.00  0.00    -0.274 OA
HETATM   19  C15 UNK     1      20.352  -8.020  38.929  1.00  0.00     0.038 A 
HETATM   20  C11 UNK     1      20.882  -4.594  37.662  1.00  0.00     0.304 A 
HETATM   21  O5  UNK     1      21.517  -3.590  37.962  1.00  0.00    -0.259 OA
HETATM   22  C17 UNK     1      19.645  -9.181  38.624  1.00  0.00     0.003 A 
HETATM   23  C16 UNK     1      18.821  -9.221  37.497  1.00  0.00     0.001 A 
ENDBRANCH  12  13
TORSDOF 1
ENDMDL
MODEL 6
REMARK VINA RESULT:      -7.8     23.820     25.731
REMARK  1 active torsions:
REMARK  status: ('A' for Active; 'I' for Inactive)
REMARK       I    between atoms: C8_14  and  N1_6 
REMARK    1  A    between atoms: C8_14  and  C9_15 
ROOT
HETATM    1  O1  UNK     1      11.127   5.800   6.036  1.00  0.00    -0.353 OA
HETATM    2  O2  UNK     1      10.180   6.649   8.007  1.00  0.00    -0.353 OA
HETATM    3  O3  UNK     1      14.963   5.363  10.761  1.00  0.00    -0.267 OA
HETATM    4  N1  UNK     1      13.363   6.507   9.517  1.00  0.00    -0.347 N 
HETATM    5  C1  UNK     1      11.398   6.199   7.389  1.00  0.00     0.167 C 
HETATM    6  C2  UNK     1      12.414   7.346   7.390  1.00  0.00     0.088 C 
HETATM    7  C3  UNK     1      11.957   4.996   8.156  1.00  0.00     0.088 C 
HETATM    8  C4  UNK     1      12.882   7.699   8.802  1.00  0.00     0.131 C 
HETATM    9  C5  UNK     1      12.413   5.391   9.558  1.00  0.00     0.131 C 
HETATM   10  C6  UNK     1       9.815   6.293   5.767  1.00  0.00     0.197 C 
HETATM   11  C7  UNK     1       9.146   6.243   7.112  1.00  0.00     0.197 C 
HETATM   12  C8  UNK     1      14.586   6.377  10.170  1.00  0.00     0.259 C 
ENDROOT
BRANCH  12  13
HETATM   13  C9  UNK     1      15.499   7.538  10.159  1.00  0.00     0.108 A 
HETATM   14  C10 UNK     1      14.998   8.689  10.623  1.00  0.00     0.037 A 
HETATM   15  C12 UNK     1      15.821   9.888  10.653  1.00  0.00    -0.001 A 
HETATM   16  C13 UNK     1      17.131   9.817  10.192  1.00  0.00     0.089 A 
HETATM   17  C14 UNK     1      15.339  11.110  11.127  1.00  0.00     0.014 A 
HETATM   18  O4  UNK     1      17.654   8.602   9.705  1.00  0.00    -0.274 OA
HETATM   19  C15 UNK     1      17.971  10.928  10.192  1.00  0.00     0.038 A 
HETATM   20  C11 UNK     1      16.891   7.438   9.665  1.00  0.00     0.304 A 
HETATM   21  O5  UNK     1      17.354   6.386   9.239  1.00  0.00    -0.259 OA
HETATM   22  C17 UNK     1      17.482  12.144  10.667  1.00  0.00     0.003 A 
HETATM   23  C16 UNK     1      16.170  12.234  11.135  1.00  0.00     0.001 A 
ENDBRANCH  12  13
TORSDOF 1
ENDMDL
MODEL 7
REMARK VINA RESULT:      -7.8      7.074     12.220
REMARK  1 active torsions:
REMARK  status: ('A' for Active; 'I' for Inactive)
REMARK       I    between atoms: C8_14  and  N1_6 
REMARK    1  A    between atoms: C8_14  and  C9_15 
ROOT
HETATM    1  O1  UNK     1      19.877  -8.970  36.184  1.00  0.00    -0.353 OA
HETATM    2  O2  UNK     1      19.113  -8.111  38.230  1.00  0.00    -0.353 OA
HETATM    3  O3  UNK     1      21.968  -3.327  37.194  1.00  0.00    -0.267 OA
HETATM    4  N1  UNK     1      20.283  -4.932  37.254  1.00  0.00    -0.347 N 
HETATM    5  C1  UNK     1      19.764  -7.786  36.989  1.00  0.00     0.167 C 
HETATM    6  C2  UNK     1      18.927  -6.740  36.245  1.00  0.00     0.088 C 
HETATM    7  C3  UNK     1      21.168  -7.240  37.267  1.00  0.00     0.088 C 
HETATM    8  C4  UNK     1      18.917  -5.391  36.965  1.00  0.00     0.131 C 
HETATM    9  C5  UNK     1      21.114  -5.895  37.985  1.00  0.00     0.131 C 
HETATM   10  C6  UNK     1      19.032  -9.926  36.823  1.00  0.00     0.197 C 
HETATM   11  C7  UNK     1      19.105  -9.538  38.273  1.00  0.00     0.197 C 
HETATM   12  C8  UNK     1      20.816  -3.684  36.938  1.00  0.00     0.259 C 
ENDROOT
BRANCH  12  13
HETATM   13  C9  UNK     1      19.939  -2.715  36.252  1.00  0.00     0.108 A 
HETATM   14  C10 UNK     1      19.043  -2.082  37.019  1.00  0.00     0.037 A 
HETATM   15  C12 UNK     1      18.134  -1.109  36.434  1.00  0.00    -0.001 A 
HETATM   16  C13 UNK     1      18.213  -0.849  35.070  1.00  0.00     0.089 A 
HETATM   17  C14 UNK     1      17.183  -0.426  37.196  1.00  0.00     0.014 A 
HETATM   18  O4  UNK     1      19.158  -1.517  34.268  1.00  0.00    -0.274 OA
HETATM   19  C15 UNK     1      17.371   0.071  34.448  1.00  0.00     0.038 A 
HETATM   20  C11 UNK     1      20.041  -2.454  34.798  1.00  0.00     0.304 A 
HETATM   21  O5  UNK     1      20.860  -3.031  34.092  1.00  0.00    -0.259 OA
HETATM   22  C17 UNK     1      16.426   0.747  35.215  1.00  0.00     0.003 A 
HETATM   23  C16 UNK     1      16.333   0.501  36.587  1.00  0.00     0.001 A 
ENDBRANCH  12  13
TORSDOF 1
ENDMDL
MODEL 8
REMARK VINA RESULT:      -7.7     16.792     18.234
REMARK  1 active torsions:
REMARK  status: ('A' for Active; 'I' for Inactive)
REMARK       I    between atoms: C8_14  and  N1_6 
REMARK    1  A    between atoms: C8_14  and  C9_15 
ROOT
HETATM    1  O1  UNK     1      31.303  -4.735  36.969  1.00  0.00    -0.353 OA
HETATM    2  O2  UNK     1      31.843  -6.659  35.739  1.00  0.00    -0.353 OA
HETATM    3  O3  UNK     1      28.743  -9.736  39.350  1.00  0.00    -0.267 OA
HETATM    4  N1  UNK     1      29.373  -8.419  37.538  1.00  0.00    -0.347 N 
HETATM    5  C1  UNK     1      30.993  -6.123  36.769  1.00  0.00     0.167 C 
HETATM    6  C2  UNK     1      29.531  -6.262  36.332  1.00  0.00     0.088 C 
HETATM    7  C3  UNK     1      31.228  -6.877  38.081  1.00  0.00     0.088 C 
HETATM    8  C4  UNK     1      29.083  -7.723  36.275  1.00  0.00     0.131 C 
HETATM    9  C5  UNK     1      30.768  -8.329  37.982  1.00  0.00     0.131 C 
HETATM   10  C6  UNK     1      32.126  -4.382  35.858  1.00  0.00     0.197 C 
HETATM   11  C7  UNK     1      32.845  -5.663  35.540  1.00  0.00     0.197 C 
HETATM   12  C8  UNK     1      28.471  -9.164  38.293  1.00  0.00     0.259 C 
ENDROOT
BRANCH  12  13
HETATM   13  C9  UNK     1      27.087  -9.283  37.791  1.00  0.00     0.108 A 
HETATM   14  C10 UNK     1      26.765 -10.448  37.213  1.00  0.00     0.037 A 
HETATM   15  C12 UNK     1      25.426 -10.660  36.687  1.00  0.00    -0.001 A 
HETATM   16  C13 UNK     1      24.490  -9.637  36.796  1.00  0.00     0.089 A 
HETATM   17  C14 UNK     1      25.048 -11.857  36.076  1.00  0.00     0.014 A 
HETATM   18  O4  UNK     1      24.834  -8.414  37.406  1.00  0.00    -0.274 OA
HETATM   19  C15 UNK     1      23.191  -9.776  36.312  1.00  0.00     0.038 A 
HETATM   20  C11 UNK     1      26.107  -8.181  37.918  1.00  0.00     0.304 A 
HETATM   21  O5  UNK     1      26.397  -7.114  38.447  1.00  0.00    -0.259 OA
HETATM   22  C17 UNK     1      22.822 -10.974  35.703  1.00  0.00     0.003 A 
HETATM   23  C16 UNK     1      23.748 -12.012  35.586  1.00  0.00     0.001 A 
ENDBRANCH  12  13
TORSDOF 1
ENDMDL
MODEL 9
REMARK VINA RESULT:      -7.7     16.582     18.739
REMARK  1 active torsions:
REMARK  status: ('A' for Active; 'I' for Inactive)
REMARK       I    between atoms: C8_14  and  N1_6 
REMARK    1  A    between atoms: C8_14  and  C9_15 
ROOT
HETATM    1  O1  UNK     1      27.554  -9.552  38.466  1.00  0.00    -0.353 OA
HETATM    2  O2  UNK     1      26.535  -7.804  37.278  1.00  0.00    -0.353 OA
HETATM    3  O3  UNK     1      30.435  -4.243  39.333  1.00  0.00    -0.267 OA
HETATM    4  N1  UNK     1      29.339  -5.784  37.977  1.00  0.00    -0.347 N 
HETATM    5  C1  UNK     1      27.700  -8.192  38.027  1.00  0.00     0.167 C 
HETATM    6  C2  UNK     1      28.935  -8.075  37.128  1.00  0.00     0.088 C 
HETATM    7  C3  UNK     1      27.852  -7.289  39.256  1.00  0.00     0.088 C 
HETATM    8  C4  UNK     1      29.252  -6.622  36.771  1.00  0.00     0.131 C 
HETATM    9  C5  UNK     1      28.168  -5.850  38.856  1.00  0.00     0.131 C 
HETATM   10  C6  UNK     1      26.442 -10.055  37.727  1.00  0.00     0.197 C 
HETATM   11  C7  UNK     1      25.584  -8.839  37.523  1.00  0.00     0.197 C 
HETATM   12  C8  UNK     1      30.389  -4.934  38.313  1.00  0.00     0.259 C 
ENDROOT
BRANCH  12  13
HETATM   13  C9  UNK     1      31.530  -4.846  37.380  1.00  0.00     0.108 A 
HETATM   14  C10 UNK     1      32.292  -5.942  37.272  1.00  0.00     0.037 A 
HETATM   15  C12 UNK     1      33.440  -5.951  36.378  1.00  0.00    -0.001 A 
HETATM   16  C13 UNK     1      33.729  -4.808  35.642  1.00  0.00     0.089 A 
HETATM   17  C14 UNK     1      34.261  -7.072  36.235  1.00  0.00     0.014 A 
HETATM   18  O4  UNK     1      32.924  -3.658  35.759  1.00  0.00    -0.274 OA
HETATM   19  C15 UNK     1      34.814  -4.752  34.769  1.00  0.00     0.038 A 
HETATM   20  C11 UNK     1      31.820  -3.617  36.606  1.00  0.00     0.304 A 
HETATM   21  O5  UNK     1      31.125  -2.612  36.702  1.00  0.00    -0.259 OA
HETATM   22  C17 UNK     1      35.629  -5.873  34.632  1.00  0.00     0.003 A 
HETATM   23  C16 UNK     1      35.352  -7.031  35.362  1.00  0.00     0.001 A 
ENDBRANCH  12  13
TORSDOF 1
ENDMDL
MODEL 10
REMARK VINA RESULT:      -7.7      2.203      3.545
REMARK  1 active torsions:
REMARK  status: ('A' for Active; 'I' for Inactive)
REMARK       I    between atoms: C8_14  and  N1_6 
REMARK    1  A    between atoms: C8_14  and  C9_15 
ROOT
HETATM    1  O1  UNK     1      20.426   7.480  33.421  1.00  0.00    -0.353 OA
HETATM    2  O2  UNK     1      18.116   7.371  33.820  1.00  0.00    -0.353 OA
HETATM    3  O3  UNK     1      17.944   2.458  31.001  1.00  0.00    -0.267 OA
HETATM    4  N1  UNK     1      18.151   4.025  32.709  1.00  0.00    -0.347 N 
HETATM    5  C1  UNK     1      19.265   6.636  33.363  1.00  0.00     0.167 C 
HETATM    6  C2  UNK     1      19.473   5.419  34.271  1.00  0.00     0.088 C 
HETATM    7  C3  UNK     1      19.052   6.185  31.915  1.00  0.00     0.088 C 
HETATM    8  C4  UNK     1      18.353   4.389  34.120  1.00  0.00     0.131 C 
HETATM    9  C5  UNK     1      17.927   5.159  31.808  1.00  0.00     0.131 C 
HETATM   10  C6  UNK     1      20.015   8.612  34.187  1.00  0.00     0.197 C 
HETATM   11  C7  UNK     1      18.551   8.729  33.870  1.00  0.00     0.197 C 
HETATM   12  C8  UNK     1      18.115   2.733  32.191  1.00  0.00     0.259 C 
ENDROOT
BRANCH  12  13
HETATM   13  C9  UNK     1      18.287   1.608  33.131  1.00  0.00     0.108 A 
HETATM   14  C10 UNK     1      17.746   1.764  34.346  1.00  0.00     0.037 A 
HETATM   15  C12 UNK     1      17.863   0.711  35.342  1.00  0.00    -0.001 A 
HETATM   16  C13 UNK     1      18.545  -0.455  35.011  1.00  0.00     0.089 A 
HETATM   17  C14 UNK     1      17.315   0.831  36.621  1.00  0.00     0.014 A 
HETATM   18  O4  UNK     1      19.113  -0.615  33.732  1.00  0.00    -0.274 OA
HETATM   19  C15 UNK     1      18.694  -1.501  35.920  1.00  0.00     0.038 A 
HETATM   20  C11 UNK     1      19.017   0.375  32.757  1.00  0.00     0.304 A 
HETATM   21  O5  UNK     1      19.515   0.228  31.647  1.00  0.00    -0.259 OA
HETATM   22  C17 UNK     1      18.144  -1.373  37.193  1.00  0.00     0.003 A 
HETATM   23  C16 UNK     1      17.455  -0.210  37.543  1.00  0.00     0.001 A 
ENDBRANCH  12  13
TORSDOF 1
ENDMDL
