MODEL 1
REMARK VINA RESULT:      -8.6      0.000      0.000
REMARK  4 active torsions:
REMARK  status: ('A' for Active; 'I' for Inactive)
REMARK    1  A    between atoms: C10_15  and  O1_1 
REMARK    2  A    between atoms: C3_8  and  O1_1 
REMARK    3  A    between atoms: C14_19  and  O3_3 
REMARK    4  A    between atoms: C10_15  and  C7_12 
ROOT
HETATM    1  O2  UNK     1      20.882  -1.369  30.338  1.00  0.00    -0.275 OA
HETATM    2  O5  UNK     1      21.218  -0.636  28.196  1.00  0.00    -0.260 OA
HETATM    3  C1  UNK     1      19.228  -0.250  31.751  1.00  0.00     0.032 A 
HETATM    4  C2  UNK     1      20.188  -1.247  31.561  1.00  0.00     0.092 A 
HETATM    5  C3  UNK     1      18.976   0.674  30.640  1.00  0.00     0.098 A 
HETATM    6  C4  UNK     1      18.571  -0.215  32.988  1.00  0.00     0.017 A 
HETATM    7  C5  UNK     1      20.509  -2.178  32.551  1.00  0.00     0.038 A 
HETATM    8  C6  UNK     1      19.632   0.534  29.484  1.00  0.00     0.120 A 
HETATM    9  C8  UNK     1      18.882  -1.143  33.991  1.00  0.00     0.001 A 
HETATM   10  C9  UNK     1      19.851  -2.120  33.774  1.00  0.00     0.003 A 
HETATM   11  C11 UNK     1      20.634  -0.521  29.267  1.00  0.00     0.290 A 
ENDROOT
BRANCH   5  12
HETATM   12  O1  UNK     1      18.063   1.699  30.785  1.00  0.00    -0.274 OA
BRANCH  12  13
HETATM   13  C10 UNK     1      18.293   2.776  29.981  1.00  0.00     0.298 C 
HETATM   14  O4  UNK     1      18.220   2.823  28.762  1.00  0.00    -0.259 OA
BRANCH  13  15
HETATM   15  C7  UNK     1      18.689   3.948  30.806  1.00  0.00     0.040 A 
HETATM   16  C12 UNK     1      18.289   3.999  32.124  1.00  0.00     0.020 A 
HETATM   17  C15 UNK     1      18.660   5.099  32.899  1.00  0.00     0.038 A 
HETATM   18  C14 UNK     1      19.422   6.123  32.336  1.00  0.00     0.068 A 
HETATM   19  C16 UNK     1      19.813   6.047  30.999  1.00  0.00     0.038 A 
HETATM   20  C13 UNK     1      19.442   4.947  30.224  1.00  0.00     0.020 A 
BRANCH  18  21
HETATM   21  O3  UNK     1      19.785   7.194  33.091  1.00  0.00    -0.356 OA
HETATM   22  C17 UNK     1      19.057   7.416  34.298  1.00  0.00     0.210 C 
ENDBRANCH  18  21
ENDBRANCH  13  15
ENDBRANCH  12  13
ENDBRANCH   5  12
TORSDOF 4
ENDMDL
MODEL 2
REMARK VINA RESULT:      -8.5      2.074      3.534
REMARK  4 active torsions:
REMARK  status: ('A' for Active; 'I' for Inactive)
REMARK    1  A    between atoms: C10_15  and  O1_1 
REMARK    2  A    between atoms: C3_8  and  O1_1 
REMARK    3  A    between atoms: C14_19  and  O3_3 
REMARK    4  A    between atoms: C10_15  and  C7_12 
ROOT
HETATM    1  O2  UNK     1      19.265  -0.111  32.988  1.00  0.00    -0.275 OA
HETATM    2  O5  UNK     1      18.610   0.726  35.015  1.00  0.00    -0.260 OA
HETATM    3  C1  UNK     1      18.919   1.220  30.964  1.00  0.00     0.032 A 
HETATM    4  C2  UNK     1      19.385   0.062  31.592  1.00  0.00     0.092 A 
HETATM    5  C3  UNK     1      18.289   2.244  31.805  1.00  0.00     0.098 A 
HETATM    6  C4  UNK     1      19.100   1.319  29.578  1.00  0.00     0.017 A 
HETATM    7  C5  UNK     1      19.998  -0.978  30.889  1.00  0.00     0.038 A 
HETATM    8  C6  UNK     1      18.198   2.070  33.126  1.00  0.00     0.120 A 
HETATM    9  C8  UNK     1      19.714   0.284  28.859  1.00  0.00     0.001 A 
HETATM   10  C9  UNK     1      20.159  -0.863  29.514  1.00  0.00     0.003 A 
HETATM   11  C11 UNK     1      18.698   0.862  33.800  1.00  0.00     0.290 A 
ENDROOT
BRANCH   5  12
HETATM   12  O1  UNK     1      17.782   3.393  31.232  1.00  0.00    -0.274 OA
BRANCH  12  13
HETATM   13  C10 UNK     1      18.646   4.448  31.229  1.00  0.00     0.298 C 
HETATM   14  O4  UNK     1      19.627   4.603  30.517  1.00  0.00    -0.259 OA
BRANCH  13  15
HETATM   15  C7  UNK     1      18.245   5.435  32.266  1.00  0.00     0.040 A 
HETATM   16  C12 UNK     1      16.952   5.914  32.264  1.00  0.00     0.020 A 
HETATM   17  C15 UNK     1      16.576   6.840  33.237  1.00  0.00     0.038 A 
HETATM   18  C14 UNK     1      17.501   7.265  34.191  1.00  0.00     0.068 A 
HETATM   19  C16 UNK     1      18.803   6.764  34.171  1.00  0.00     0.038 A 
HETATM   20  C13 UNK     1      19.180   5.838  33.197  1.00  0.00     0.020 A 
BRANCH  18  21
HETATM   21  O3  UNK     1      17.134   8.166  35.142  1.00  0.00    -0.356 OA
HETATM   22  C17 UNK     1      16.032   9.019  34.837  1.00  0.00     0.210 C 
ENDBRANCH  18  21
ENDBRANCH  13  15
ENDBRANCH  12  13
ENDBRANCH   5  12
TORSDOF 4
ENDMDL
MODEL 3
REMARK VINA RESULT:      -8.4      5.767      8.588
REMARK  4 active torsions:
REMARK  status: ('A' for Active; 'I' for Inactive)
REMARK    1  A    between atoms: C10_15  and  O1_1 
REMARK    2  A    between atoms: C3_8  and  O1_1 
REMARK    3  A    between atoms: C14_19  and  O3_3 
REMARK    4  A    between atoms: C10_15  and  C7_12 
ROOT
HETATM    1  O2  UNK     1      20.767  -8.471  35.023  1.00  0.00    -0.275 OA
HETATM    2  O5  UNK     1      20.828  -7.345  33.031  1.00  0.00    -0.260 OA
HETATM    3  C1  UNK     1      19.897  -7.352  37.017  1.00  0.00     0.032 A 
HETATM    4  C2  UNK     1      20.435  -8.481  36.395  1.00  0.00     0.092 A 
HETATM    5  C3  UNK     1      19.701  -6.151  36.197  1.00  0.00     0.098 A 
HETATM    6  C4  UNK     1      19.575  -7.456  38.376  1.00  0.00     0.017 A 
HETATM    7  C5  UNK     1      20.666  -9.676  37.080  1.00  0.00     0.038 A 
HETATM    8  C6  UNK     1      20.007  -6.165  34.897  1.00  0.00     0.120 A 
HETATM    9  C8  UNK     1      19.799  -8.649  39.077  1.00  0.00     0.001 A 
HETATM   10  C9  UNK     1      20.347  -9.755  38.430  1.00  0.00     0.003 A 
HETATM   11  C11 UNK     1      20.561  -7.353  34.228  1.00  0.00     0.290 A 
ENDROOT
BRANCH   5  12
HETATM   12  O1  UNK     1      19.204  -4.997  36.768  1.00  0.00    -0.274 OA
BRANCH  12  13
HETATM   13  C10 UNK     1      20.101  -3.971  36.835  1.00  0.00     0.298 C 
HETATM   14  O4  UNK     1      21.283  -4.036  37.137  1.00  0.00    -0.259 OA
BRANCH  13  15
HETATM   15  C7  UNK     1      19.429  -2.688  36.499  1.00  0.00     0.040 A 
HETATM   16  C12 UNK     1      18.668  -2.064  37.464  1.00  0.00     0.020 A 
HETATM   17  C15 UNK     1      18.037  -0.859  37.149  1.00  0.00     0.038 A 
HETATM   18  C14 UNK     1      18.183  -0.308  35.875  1.00  0.00     0.068 A 
HETATM   19  C16 UNK     1      18.959  -0.961  34.917  1.00  0.00     0.038 A 
HETATM   20  C13 UNK     1      19.589  -2.165  35.232  1.00  0.00     0.020 A 
BRANCH  18  21
HETATM   21  O3  UNK     1      17.570   0.867  35.568  1.00  0.00    -0.356 OA
HETATM   22  C17 UNK     1      18.221   1.711  34.620  1.00  0.00     0.210 C 
ENDBRANCH  18  21
ENDBRANCH  13  15
ENDBRANCH  12  13
ENDBRANCH   5  12
TORSDOF 4
ENDMDL
MODEL 4
REMARK VINA RESULT:      -8.4     13.795     16.133
REMARK  4 active torsions:
REMARK  status: ('A' for Active; 'I' for Inactive)
REMARK    1  A    between atoms: C10_15  and  O1_1 
REMARK    2  A    between atoms: C3_8  and  O1_1 
REMARK    3  A    between atoms: C14_19  and  O3_3 
REMARK    4  A    between atoms: C10_15  and  C7_12 
ROOT
HETATM    1  O2  UNK     1      19.264  -3.132  12.430  1.00  0.00    -0.275 OA
HETATM    2  O5  UNK     1      18.707  -0.979  11.887  1.00  0.00    -0.260 OA
HETATM    3  C1  UNK     1      19.725  -3.708  14.763  1.00  0.00     0.032 A 
HETATM    4  C2  UNK     1      19.603  -4.079  13.421  1.00  0.00     0.092 A 
HETATM    5  C3  UNK     1      19.501  -2.299  15.103  1.00  0.00     0.098 A 
HETATM    6  C4  UNK     1      20.041  -4.716  15.683  1.00  0.00     0.017 A 
HETATM    7  C5  UNK     1      19.797  -5.391  12.984  1.00  0.00     0.038 A 
HETATM    8  C6  UNK     1      19.167  -1.420  14.154  1.00  0.00     0.120 A 
HETATM    9  C8  UNK     1      20.237  -6.038  15.260  1.00  0.00     0.001 A 
HETATM   10  C9  UNK     1      20.118  -6.373  13.913  1.00  0.00     0.003 A 
HETATM   11  C11 UNK     1      19.021  -1.801  12.740  1.00  0.00     0.290 A 
ENDROOT
BRANCH   5  12
HETATM   12  O1  UNK     1      19.641  -1.872  16.409  1.00  0.00    -0.274 OA
BRANCH  12  13
HETATM   13  C10 UNK     1      18.517  -1.312  16.940  1.00  0.00     0.298 C 
HETATM   14  O4  UNK     1      17.386  -1.774  16.941  1.00  0.00    -0.259 OA
BRANCH  13  15
HETATM   15  C7  UNK     1      18.842   0.012  17.533  1.00  0.00     0.040 A 
HETATM   16  C12 UNK     1      18.922   0.125  18.905  1.00  0.00     0.020 A 
HETATM   17  C15 UNK     1      19.227   1.368  19.462  1.00  0.00     0.038 A 
HETATM   18  C14 UNK     1      19.446   2.469  18.633  1.00  0.00     0.068 A 
HETATM   19  C16 UNK     1      19.359   2.327  17.247  1.00  0.00     0.038 A 
HETATM   20  C13 UNK     1      19.054   1.085  16.691  1.00  0.00     0.020 A 
BRANCH  18  21
HETATM   21  O3  UNK     1      19.745   3.680  19.175  1.00  0.00    -0.356 OA
HETATM   22  C17 UNK     1      20.678   4.496  18.467  1.00  0.00     0.210 C 
ENDBRANCH  18  21
ENDBRANCH  13  15
ENDBRANCH  12  13
ENDBRANCH   5  12
TORSDOF 4
ENDMDL
MODEL 5
REMARK VINA RESULT:      -8.3      3.414      8.723
REMARK  4 active torsions:
REMARK  status: ('A' for Active; 'I' for Inactive)
REMARK    1  A    between atoms: C10_15  and  O1_1 
REMARK    2  A    between atoms: C3_8  and  O1_1 
REMARK    3  A    between atoms: C14_19  and  O3_3 
REMARK    4  A    between atoms: C10_15  and  C7_12 
ROOT
HETATM    1  O2  UNK     1      14.077   8.578  33.081  1.00  0.00    -0.275 OA
HETATM    2  O5  UNK     1      13.575   6.727  31.833  1.00  0.00    -0.260 OA
HETATM    3  C1  UNK     1      16.414   9.248  33.361  1.00  0.00     0.032 A 
HETATM    4  C2  UNK     1      15.053   9.457  33.598  1.00  0.00     0.092 A 
HETATM    5  C3  UNK     1      16.793   8.075  32.565  1.00  0.00     0.098 A 
HETATM    6  C4  UNK     1      17.312  10.182  33.893  1.00  0.00     0.017 A 
HETATM    7  C5  UNK     1      14.580  10.539  34.344  1.00  0.00     0.038 A 
HETATM    8  C6  UNK     1      15.856   7.262  32.071  1.00  0.00     0.120 A 
HETATM    9  C8  UNK     1      16.852  11.273  34.643  1.00  0.00     0.001 A 
HETATM   10  C9  UNK     1      15.489  11.449  34.870  1.00  0.00     0.003 A 
HETATM   11  C11 UNK     1      14.419   7.481  32.302  1.00  0.00     0.290 A 
ENDROOT
BRANCH   5  12
HETATM   12  O1  UNK     1      18.126   7.801  32.328  1.00  0.00    -0.274 OA
BRANCH  12  13
HETATM   13  C10 UNK     1      18.628   6.771  33.068  1.00  0.00     0.298 C 
HETATM   14  O4  UNK     1      19.039   6.813  34.218  1.00  0.00    -0.259 OA
BRANCH  13  15
HETATM   15  C7  UNK     1      18.639   5.525  32.258  1.00  0.00     0.040 A 
HETATM   16  C12 UNK     1      18.186   4.355  32.831  1.00  0.00     0.020 A 
HETATM   17  C15 UNK     1      18.196   3.185  32.071  1.00  0.00     0.038 A 
HETATM   18  C14 UNK     1      18.658   3.211  30.755  1.00  0.00     0.068 A 
HETATM   19  C16 UNK     1      19.111   4.408  30.199  1.00  0.00     0.038 A 
HETATM   20  C13 UNK     1      19.102   5.578  30.959  1.00  0.00     0.020 A 
BRANCH  18  21
HETATM   21  O3  UNK     1      18.666   2.071  30.013  1.00  0.00    -0.356 OA
HETATM   22  C17 UNK     1      17.972   2.102  28.767  1.00  0.00     0.210 C 
ENDBRANCH  18  21
ENDBRANCH  13  15
ENDBRANCH  12  13
ENDBRANCH   5  12
TORSDOF 4
ENDMDL
MODEL 6
REMARK VINA RESULT:      -8.3      5.592      8.679
REMARK  4 active torsions:
REMARK  status: ('A' for Active; 'I' for Inactive)
REMARK    1  A    between atoms: C10_15  and  O1_1 
REMARK    2  A    between atoms: C3_8  and  O1_1 
REMARK    3  A    between atoms: C14_19  and  O3_3 
REMARK    4  A    between atoms: C10_15  and  C7_12 
ROOT
HETATM    1  O2  UNK     1      18.512  -7.376  37.746  1.00  0.00    -0.275 OA
HETATM    2  O5  UNK     1      16.774  -6.644  36.451  1.00  0.00    -0.260 OA
HETATM    3  C1  UNK     1      20.583  -6.077  37.835  1.00  0.00     0.032 A 
HETATM    4  C2  UNK     1      19.821  -7.177  38.236  1.00  0.00     0.092 A 
HETATM    5  C3  UNK     1      19.980  -5.143  36.877  1.00  0.00     0.098 A 
HETATM    6  C4  UNK     1      21.864  -5.943  38.388  1.00  0.00     0.017 A 
HETATM    7  C5  UNK     1      20.297  -8.129  39.140  1.00  0.00     0.038 A 
HETATM    8  C6  UNK     1      18.735  -5.340  36.436  1.00  0.00     0.120 A 
HETATM    9  C8  UNK     1      22.354  -6.890  39.298  1.00  0.00     0.001 A 
HETATM   10  C9  UNK     1      21.573  -7.982  39.670  1.00  0.00     0.003 A 
HETATM   11  C11 UNK     1      17.917  -6.487  36.863  1.00  0.00     0.290 A 
ENDROOT
BRANCH   5  12
HETATM   12  O1  UNK     1      20.701  -4.057  36.421  1.00  0.00    -0.274 OA
BRANCH  12  13
HETATM   13  C10 UNK     1      20.123  -2.850  36.682  1.00  0.00     0.298 C 
HETATM   14  O4  UNK     1      19.929  -2.340  37.775  1.00  0.00    -0.259 OA
BRANCH  13  15
HETATM   15  C7  UNK     1      19.713  -2.199  35.410  1.00  0.00     0.040 A 
HETATM   16  C12 UNK     1      20.346  -2.567  34.241  1.00  0.00     0.020 A 
HETATM   17  C15 UNK     1      19.961  -1.957  33.046  1.00  0.00     0.038 A 
HETATM   18  C14 UNK     1      18.953  -0.992  33.049  1.00  0.00     0.068 A 
HETATM   19  C16 UNK     1      18.329  -0.638  34.246  1.00  0.00     0.038 A 
HETATM   20  C13 UNK     1      18.714  -1.248  35.440  1.00  0.00     0.020 A 
BRANCH  18  21
HETATM   21  O3  UNK     1      18.577  -0.398  31.885  1.00  0.00    -0.356 OA
HETATM   22  C17 UNK     1      19.613  -0.055  30.966  1.00  0.00     0.210 C 
ENDBRANCH  18  21
ENDBRANCH  13  15
ENDBRANCH  12  13
ENDBRANCH   5  12
TORSDOF 4
ENDMDL
MODEL 7
REMARK VINA RESULT:      -8.2      1.944      3.591
REMARK  4 active torsions:
REMARK  status: ('A' for Active; 'I' for Inactive)
REMARK    1  A    between atoms: C10_15  and  O1_1 
REMARK    2  A    between atoms: C3_8  and  O1_1 
REMARK    3  A    between atoms: C14_19  and  O3_3 
REMARK    4  A    between atoms: C10_15  and  C7_12 
ROOT
HETATM    1  O2  UNK     1      20.686  -2.431  32.100  1.00  0.00    -0.275 OA
HETATM    2  O5  UNK     1      20.499  -3.195  34.250  1.00  0.00    -0.260 OA
HETATM    3  C1  UNK     1      19.448  -0.435  31.416  1.00  0.00     0.032 A 
HETATM    4  C2  UNK     1      20.336  -1.473  31.124  1.00  0.00     0.092 A 
HETATM    5  C3  UNK     1      18.882  -0.383  32.769  1.00  0.00     0.098 A 
HETATM    6  C4  UNK     1      19.173   0.484  30.395  1.00  0.00     0.017 A 
HETATM    7  C5  UNK     1      20.931  -1.621  29.870  1.00  0.00     0.038 A 
HETATM    8  C6  UNK     1      19.236  -1.289  33.684  1.00  0.00     0.120 A 
HETATM    9  C8  UNK     1      19.764   0.350  29.131  1.00  0.00     0.001 A 
HETATM   10  C9  UNK     1      20.639  -0.702  28.869  1.00  0.00     0.003 A 
HETATM   11  C11 UNK     1      20.182  -2.378  33.392  1.00  0.00     0.290 A 
ENDROOT
BRANCH   5  12
HETATM   12  O1  UNK     1      17.973   0.602  33.101  1.00  0.00    -0.274 OA
BRANCH  12  13
HETATM   13  C10 UNK     1      18.441   1.518  33.996  1.00  0.00     0.298 C 
HETATM   14  O4  UNK     1      18.882   1.305  35.116  1.00  0.00    -0.259 OA
BRANCH  13  15
HETATM   15  C7  UNK     1      18.323   2.887  33.428  1.00  0.00     0.040 A 
HETATM   16  C12 UNK     1      18.118   3.028  32.072  1.00  0.00     0.020 A 
HETATM   17  C15 UNK     1      18.008   4.313  31.538  1.00  0.00     0.038 A 
HETATM   18  C14 UNK     1      18.106   5.426  32.373  1.00  0.00     0.068 A 
HETATM   19  C16 UNK     1      18.314   5.255  33.742  1.00  0.00     0.038 A 
HETATM   20  C13 UNK     1      18.425   3.971  34.276  1.00  0.00     0.020 A 
BRANCH  18  21
HETATM   21  O3  UNK     1      17.997   6.678  31.853  1.00  0.00    -0.356 OA
HETATM   22  C17 UNK     1      17.902   7.760  32.779  1.00  0.00     0.210 C 
ENDBRANCH  18  21
ENDBRANCH  13  15
ENDBRANCH  12  13
ENDBRANCH   5  12
TORSDOF 4
ENDMDL
MODEL 8
REMARK VINA RESULT:      -8.1      2.484      7.823
REMARK  4 active torsions:
REMARK  status: ('A' for Active; 'I' for Inactive)
REMARK    1  A    between atoms: C10_15  and  O1_1 
REMARK    2  A    between atoms: C3_8  and  O1_1 
REMARK    3  A    between atoms: C14_19  and  O3_3 
REMARK    4  A    between atoms: C10_15  and  C7_12 
ROOT
HETATM    1  O2  UNK     1      17.966   8.671  34.062  1.00  0.00    -0.275 OA
HETATM    2  O5  UNK     1      20.231   8.446  34.300  1.00  0.00    -0.260 OA
HETATM    3  C1  UNK     1      16.741   7.109  32.631  1.00  0.00     0.032 A 
HETATM    4  C2  UNK     1      16.759   8.205  33.498  1.00  0.00     0.092 A 
HETATM    5  C3  UNK     1      18.024   6.470  32.316  1.00  0.00     0.098 A 
HETATM    6  C4  UNK     1      15.497   6.699  32.135  1.00  0.00     0.017 A 
HETATM    7  C5  UNK     1      15.599   8.891  33.863  1.00  0.00     0.038 A 
HETATM    8  C6  UNK     1      19.154   6.915  32.871  1.00  0.00     0.120 A 
HETATM    9  C8  UNK     1      14.323   7.377  32.494  1.00  0.00     0.001 A 
HETATM   10  C9  UNK     1      14.375   8.472  33.354  1.00  0.00     0.003 A 
HETATM   11  C11 UNK     1      19.183   8.058  33.797  1.00  0.00     0.290 A 
ENDROOT
BRANCH   5  12
HETATM   12  O1  UNK     1      18.069   5.405  31.439  1.00  0.00    -0.274 OA
BRANCH  12  13
HETATM   13  C10 UNK     1      18.089   4.181  32.041  1.00  0.00     0.298 C 
HETATM   14  O4  UNK     1      17.933   3.934  33.228  1.00  0.00    -0.259 OA
BRANCH  13  15
HETATM   15  C7  UNK     1      18.361   3.124  31.032  1.00  0.00     0.040 A 
HETATM   16  C12 UNK     1      18.960   1.952  31.441  1.00  0.00     0.020 A 
HETATM   17  C15 UNK     1      19.214   0.959  30.493  1.00  0.00     0.038 A 
HETATM   18  C14 UNK     1      18.864   1.163  29.158  1.00  0.00     0.068 A 
HETATM   19  C16 UNK     1      18.260   2.359  28.770  1.00  0.00     0.038 A 
HETATM   20  C13 UNK     1      18.005   3.352  29.718  1.00  0.00     0.020 A 
BRANCH  18  21
HETATM   21  O3  UNK     1      19.111   0.196  28.234  1.00  0.00    -0.356 OA
HETATM   22  C17 UNK     1      20.023  -0.837  28.603  1.00  0.00     0.210 C 
ENDBRANCH  18  21
ENDBRANCH  13  15
ENDBRANCH  12  13
ENDBRANCH   5  12
TORSDOF 4
ENDMDL
MODEL 9
REMARK VINA RESULT:      -8.1      3.260      8.374
REMARK  4 active torsions:
REMARK  status: ('A' for Active; 'I' for Inactive)
REMARK    1  A    between atoms: C10_15  and  O1_1 
REMARK    2  A    between atoms: C3_8  and  O1_1 
REMARK    3  A    between atoms: C14_19  and  O3_3 
REMARK    4  A    between atoms: C10_15  and  C7_12 
ROOT
HETATM    1  O2  UNK     1      17.096  10.450  33.581  1.00  0.00    -0.275 OA
HETATM    2  O5  UNK     1      19.086  11.346  34.271  1.00  0.00    -0.260 OA
HETATM    3  C1  UNK     1      16.863   8.021  33.401  1.00  0.00     0.032 A 
HETATM    4  C2  UNK     1      16.322   9.305  33.293  1.00  0.00     0.092 A 
HETATM    5  C3  UNK     1      18.267   7.906  33.812  1.00  0.00     0.098 A 
HETATM    6  C4  UNK     1      16.018   6.940  33.119  1.00  0.00     0.017 A 
HETATM    7  C5  UNK     1      15.000   9.532  32.908  1.00  0.00     0.038 A 
HETATM    8  C6  UNK     1      18.979   9.000  34.095  1.00  0.00     0.120 A 
HETATM    9  C8  UNK     1      14.688   7.152  32.732  1.00  0.00     0.001 A 
HETATM   10  C9  UNK     1      14.181   8.445  32.624  1.00  0.00     0.003 A 
HETATM   11  C11 UNK     1      18.416  10.356  33.999  1.00  0.00     0.290 A 
ENDROOT
BRANCH   5  12
HETATM   12  O1  UNK     1      18.861   6.663  33.902  1.00  0.00    -0.274 OA
BRANCH  12  13
HETATM   13  C10 UNK     1      19.872   6.457  33.010  1.00  0.00     0.298 C 
HETATM   14  O4  UNK     1      21.000   6.925  33.044  1.00  0.00    -0.259 OA
BRANCH  13  15
HETATM   15  C7  UNK     1      19.408   5.564  31.917  1.00  0.00     0.040 A 
HETATM   16  C12 UNK     1      18.653   4.456  32.238  1.00  0.00     0.020 A 
HETATM   17  C15 UNK     1      18.217   3.617  31.212  1.00  0.00     0.038 A 
HETATM   18  C14 UNK     1      18.547   3.905  29.887  1.00  0.00     0.068 A 
HETATM   19  C16 UNK     1      19.313   5.033  29.589  1.00  0.00     0.038 A 
HETATM   20  C13 UNK     1      19.749   5.871  30.615  1.00  0.00     0.020 A 
BRANCH  18  21
HETATM   21  O3  UNK     1      18.121   3.089  28.887  1.00  0.00    -0.356 OA
HETATM   22  C17 UNK     1      18.230   1.683  29.104  1.00  0.00     0.210 C 
ENDBRANCH  18  21
ENDBRANCH  13  15
ENDBRANCH  12  13
ENDBRANCH   5  12
TORSDOF 4
ENDMDL
MODEL 10
REMARK VINA RESULT:      -8.1     22.449     24.700
REMARK  4 active torsions:
REMARK  status: ('A' for Active; 'I' for Inactive)
REMARK    1  A    between atoms: C10_15  and  O1_1 
REMARK    2  A    between atoms: C3_8  and  O1_1 
REMARK    3  A    between atoms: C14_19  and  O3_3 
REMARK    4  A    between atoms: C10_15  and  C7_12 
ROOT
HETATM    1  O2  UNK     1      16.388   6.269   9.901  1.00  0.00    -0.275 OA
HETATM    2  O5  UNK     1      15.543   4.145   9.789  1.00  0.00    -0.260 OA
HETATM    3  C1  UNK     1      14.976   8.164   9.266  1.00  0.00     0.032 A 
HETATM    4  C2  UNK     1      16.191   7.657   9.734  1.00  0.00     0.092 A 
HETATM    5  C3  UNK     1      13.917   7.202   8.941  1.00  0.00     0.098 A 
HETATM    6  C4  UNK     1      14.859   9.556   9.152  1.00  0.00     0.017 A 
HETATM    7  C5  UNK     1      17.268   8.481  10.070  1.00  0.00     0.038 A 
HETATM    8  C6  UNK     1      14.115   5.894   9.119  1.00  0.00     0.120 A 
HETATM    9  C8  UNK     1      15.931  10.395   9.486  1.00  0.00     0.001 A 
HETATM   10  C9  UNK     1      17.133   9.858   9.942  1.00  0.00     0.003 A 
HETATM   11  C11 UNK     1      15.385   5.349   9.626  1.00  0.00     0.290 A 
ENDROOT
BRANCH   5  12
HETATM   12  O1  UNK     1      12.708   7.646   8.443  1.00  0.00    -0.274 OA
BRANCH  12  13
HETATM   13  C10 UNK     1      12.242   6.931   7.379  1.00  0.00     0.298 C 
HETATM   14  O4  UNK     1      12.812   6.716   6.320  1.00  0.00    -0.259 OA
BRANCH  13  15
HETATM   15  C7  UNK     1      10.871   6.433   7.666  1.00  0.00     0.040 A 
HETATM   16  C12 UNK     1      10.575   5.996   8.940  1.00  0.00     0.020 A 
HETATM   17  C15 UNK     1       9.288   5.529   9.210  1.00  0.00     0.038 A 
HETATM   18  C14 UNK     1       8.327   5.508   8.199  1.00  0.00     0.068 A 
HETATM   19  C16 UNK     1       8.653   5.955   6.918  1.00  0.00     0.038 A 
HETATM   20  C13 UNK     1       9.939   6.423   6.648  1.00  0.00     0.020 A 
BRANCH  18  21
HETATM   21  O3  UNK     1       7.072   5.054   8.462  1.00  0.00    -0.356 OA
HETATM   22  C17 UNK     1       6.946   4.021   9.438  1.00  0.00     0.210 C 
ENDBRANCH  18  21
ENDBRANCH  13  15
ENDBRANCH  12  13
ENDBRANCH   5  12
TORSDOF 4
ENDMDL
