MODEL 1
REMARK VINA RESULT:      -7.2      0.000      0.000
REMARK  4 active torsions:
REMARK  status: ('A' for Active; 'I' for Inactive)
REMARK    1  A    between atoms: C11_16  and  S1_1 
REMARK    2  A    between atoms: C3_8  and  S1_1 
REMARK    3  A    between atoms: C12_17  and  O3_4 
REMARK    4  A    between atoms: C11_16  and  C12_17 
ROOT
HETATM    1  O1  UNK     1      19.385   1.318  15.075  1.00  0.00    -0.275 OA
HETATM    2  O2  UNK     1      19.477   3.385  16.049  1.00  0.00    -0.260 OA
HETATM    3  C1  UNK     1      19.007  -0.662  16.468  1.00  0.00     0.015 A 
HETATM    4  C2  UNK     1      19.204  -0.074  15.214  1.00  0.00     0.091 A 
HETATM    5  C3  UNK     1      19.017   0.222  17.645  1.00  0.00     0.019 A 
HETATM    6  C4  UNK     1      18.801  -2.049  16.493  1.00  0.00     0.022 A 
HETATM    7  C5  UNK     1      18.813  -2.805  15.313  1.00  0.00    -0.061 A 
HETATM    8  C6  UNK     1      19.219  -0.814  14.028  1.00  0.00     0.039 A 
HETATM    9  C7  UNK     1      19.024  -2.188  14.083  1.00  0.00     0.009 A 
HETATM   10  C8  UNK     1      19.166   1.544  17.485  1.00  0.00     0.102 A 
HETATM   11  C9  UNK     1      18.596  -4.280  15.375  1.00  0.00     0.048 C 
HETATM   12  C10 UNK     1      19.350   2.171  16.166  1.00  0.00     0.289 A 
ENDROOT
BRANCH   5  13
HETATM   13  S1  UNK     1      18.824  -0.453  19.233  1.00  0.00    -0.118 SA
BRANCH  13  14
HETATM   14  C11 UNK     1      18.331   1.033  20.131  1.00  0.00     0.189 C 
BRANCH  14  15
HETATM   15  C12 UNK     1      19.260   1.246  21.292  1.00  0.00     0.149 C 
HETATM   16  O4  UNK     1      19.432   2.328  21.841  1.00  0.00    -0.649 OA
BRANCH  15  17
HETATM   17  O3  UNK     1      19.882   0.105  21.682  1.00  0.00    -0.776 OA
HETATM   18  H10 UNK     1      20.846   0.240  21.812  1.00  0.00     0.167 HD
ENDBRANCH  15  17
ENDBRANCH  14  15
ENDBRANCH  13  14
ENDBRANCH   5  13
TORSDOF 4
ENDMDL
MODEL 2
REMARK VINA RESULT:      -7.0     18.346     20.882
REMARK  4 active torsions:
REMARK  status: ('A' for Active; 'I' for Inactive)
REMARK    1  A    between atoms: C11_16  and  S1_1 
REMARK    2  A    between atoms: C3_8  and  S1_1 
REMARK    3  A    between atoms: C12_17  and  O3_4 
REMARK    4  A    between atoms: C11_16  and  C12_17 
ROOT
HETATM    1  O1  UNK     1      21.354  -8.775  34.283  1.00  0.00    -0.275 OA
HETATM    2  O2  UNK     1      21.334  -7.220  32.606  1.00  0.00    -0.260 OA
HETATM    3  C1  UNK     1      19.918  -8.459  36.243  1.00  0.00     0.015 A 
HETATM    4  C2  UNK     1      20.853  -9.214  35.526  1.00  0.00     0.091 A 
HETATM    5  C3  UNK     1      19.489  -7.175  35.664  1.00  0.00     0.019 A 
HETATM    6  C4  UNK     1      19.458  -9.003  37.452  1.00  0.00     0.022 A 
HETATM    7  C5  UNK     1      19.932 -10.235  37.920  1.00  0.00    -0.061 A 
HETATM    8  C6  UNK     1      21.336 -10.444  35.980  1.00  0.00     0.039 A 
HETATM    9  C7  UNK     1      20.872 -10.954  37.186  1.00  0.00     0.009 A 
HETATM   10  C8  UNK     1      19.960  -6.792  34.470  1.00  0.00     0.102 A 
HETATM   11  C9  UNK     1      19.425 -10.782  39.212  1.00  0.00     0.048 C 
HETATM   12  C10 UNK     1      20.926  -7.593  33.700  1.00  0.00     0.289 A 
ENDROOT
BRANCH   5  13
HETATM   13  S1  UNK     1      18.365  -6.172  36.527  1.00  0.00    -0.118 SA
BRANCH  13  14
HETATM   14  C11 UNK     1      19.427  -4.751  36.858  1.00  0.00     0.189 C 
BRANCH  14  15
HETATM   15  C12 UNK     1      20.567  -5.173  37.739  1.00  0.00     0.149 C 
HETATM   16  O4  UNK     1      21.747  -4.974  37.475  1.00  0.00    -0.649 OA
BRANCH  15  17
HETATM   17  O3  UNK     1      20.152  -5.791  38.874  1.00  0.00    -0.776 OA
HETATM   18  H10 UNK     1      20.040  -5.157  39.615  1.00  0.00     0.167 HD
ENDBRANCH  15  17
ENDBRANCH  14  15
ENDBRANCH  13  14
ENDBRANCH   5  13
TORSDOF 4
ENDMDL
MODEL 3
REMARK VINA RESULT:      -6.9     12.963     15.142
REMARK  4 active torsions:
REMARK  status: ('A' for Active; 'I' for Inactive)
REMARK    1  A    between atoms: C11_16  and  S1_1 
REMARK    2  A    between atoms: C3_8  and  S1_1 
REMARK    3  A    between atoms: C12_17  and  O3_4 
REMARK    4  A    between atoms: C11_16  and  C12_17 
ROOT
HETATM    1  O1  UNK     1      18.851   2.234  30.592  1.00  0.00    -0.275 OA
HETATM    2  O2  UNK     1      17.751   3.875  31.745  1.00  0.00    -0.260 OA
HETATM    3  C1  UNK     1      19.268   0.072  31.665  1.00  0.00     0.015 A 
HETATM    4  C2  UNK     1      19.356   0.918  30.554  1.00  0.00     0.091 A 
HETATM    5  C3  UNK     1      18.646   0.610  32.886  1.00  0.00     0.019 A 
HETATM    6  C4  UNK     1      19.769  -1.229  31.511  1.00  0.00     0.022 A 
HETATM    7  C5  UNK     1      20.347  -1.646  30.304  1.00  0.00    -0.061 A 
HETATM    8  C6  UNK     1      19.930   0.518  29.345  1.00  0.00     0.039 A 
HETATM    9  C7  UNK     1      20.430  -0.772  29.224  1.00  0.00     0.009 A 
HETATM   10  C8  UNK     1      18.150   1.855  32.888  1.00  0.00     0.102 A 
HETATM   11  C9  UNK     1      20.876  -3.036  30.177  1.00  0.00     0.048 C 
HETATM   12  C10 UNK     1      18.220   2.742  31.716  1.00  0.00     0.289 A 
ENDROOT
BRANCH   5  13
HETATM   13  S1  UNK     1      18.547  -0.377  34.310  1.00  0.00    -0.118 SA
BRANCH  13  14
HETATM   14  C11 UNK     1      17.371   0.600  35.269  1.00  0.00     0.189 C 
BRANCH  14  15
HETATM   15  C12 UNK     1      16.052  -0.116  35.320  1.00  0.00     0.149 C 
HETATM   16  O4  UNK     1      15.016   0.387  35.738  1.00  0.00    -0.649 OA
BRANCH  15  17
HETATM   17  O3  UNK     1      16.123  -1.382  34.836  1.00  0.00    -0.776 OA
HETATM   18  H10 UNK     1      15.799  -1.439  33.911  1.00  0.00     0.167 HD
ENDBRANCH  15  17
ENDBRANCH  14  15
ENDBRANCH  13  14
ENDBRANCH   5  13
TORSDOF 4
ENDMDL
MODEL 4
REMARK VINA RESULT:      -6.9     10.756     13.437
REMARK  4 active torsions:
REMARK  status: ('A' for Active; 'I' for Inactive)
REMARK    1  A    between atoms: C11_16  and  S1_1 
REMARK    2  A    between atoms: C3_8  and  S1_1 
REMARK    3  A    between atoms: C12_17  and  O3_4 
REMARK    4  A    between atoms: C11_16  and  C12_17 
ROOT
HETATM    1  O1  UNK     1      16.453   6.068   9.977  1.00  0.00    -0.275 OA
HETATM    2  O2  UNK     1      15.821   3.874   9.835  1.00  0.00    -0.260 OA
HETATM    3  C1  UNK     1      14.844   7.830   9.422  1.00  0.00     0.015 A 
HETATM    4  C2  UNK     1      16.113   7.431   9.855  1.00  0.00     0.091 A 
HETATM    5  C3  UNK     1      13.878   6.774   9.077  1.00  0.00     0.019 A 
HETATM    6  C4  UNK     1      14.596   9.210   9.370  1.00  0.00     0.022 A 
HETATM    7  C5  UNK     1      15.587  10.137   9.718  1.00  0.00    -0.061 A 
HETATM    8  C6  UNK     1      17.112   8.344  10.205  1.00  0.00     0.039 A 
HETATM    9  C7  UNK     1      16.843   9.705  10.133  1.00  0.00     0.009 A 
HETATM   10  C8  UNK     1      14.216   5.486   9.225  1.00  0.00     0.102 A 
HETATM   11  C9  UNK     1      15.292  11.599   9.646  1.00  0.00     0.048 C 
HETATM   12  C10 UNK     1      15.542   5.061   9.702  1.00  0.00     0.289 A 
ENDROOT
BRANCH   5  13
HETATM   13  S1  UNK     1      12.301   7.205   8.491  1.00  0.00    -0.118 SA
BRANCH  13  14
HETATM   14  C11 UNK     1      11.800   5.620   7.788  1.00  0.00     0.189 C 
BRANCH  14  15
HETATM   15  C12 UNK     1      11.127   5.852   6.465  1.00  0.00     0.149 C 
HETATM   16  O4  UNK     1       9.922   5.730   6.280  1.00  0.00    -0.649 OA
BRANCH  15  17
HETATM   17  O3  UNK     1      11.996   6.226   5.493  1.00  0.00    -0.776 OA
HETATM   18  H10 UNK     1      12.922   5.992   5.720  1.00  0.00     0.167 HD
ENDBRANCH  15  17
ENDBRANCH  14  15
ENDBRANCH  13  14
ENDBRANCH   5  13
TORSDOF 4
ENDMDL
MODEL 5
REMARK VINA RESULT:      -6.9     14.548     17.809
REMARK  4 active torsions:
REMARK  status: ('A' for Active; 'I' for Inactive)
REMARK    1  A    between atoms: C11_16  and  S1_1 
REMARK    2  A    between atoms: C3_8  and  S1_1 
REMARK    3  A    between atoms: C12_17  and  O3_4 
REMARK    4  A    between atoms: C11_16  and  C12_17 
ROOT
HETATM    1  O1  UNK     1      15.579   8.422  32.665  1.00  0.00    -0.275 OA
HETATM    2  O2  UNK     1      14.112   6.971  31.679  1.00  0.00    -0.260 OA
HETATM    3  C1  UNK     1      17.850   7.672  33.198  1.00  0.00     0.015 A 
HETATM    4  C2  UNK     1      16.872   8.672  33.170  1.00  0.00     0.091 A 
HETATM    5  C3  UNK     1      17.476   6.338  32.700  1.00  0.00     0.019 A 
HETATM    6  C4  UNK     1      19.113   8.034  33.688  1.00  0.00     0.022 A 
HETATM    7  C5  UNK     1      19.369   9.334  34.143  1.00  0.00    -0.061 A 
HETATM    8  C6  UNK     1      17.111   9.973  33.621  1.00  0.00     0.039 A 
HETATM    9  C7  UNK     1      18.368  10.302  34.112  1.00  0.00     0.009 A 
HETATM   10  C8  UNK     1      16.250   6.132  32.201  1.00  0.00     0.102 A 
HETATM   11  C9  UNK     1      20.723   9.685  34.663  1.00  0.00     0.048 C 
HETATM   12  C10 UNK     1      15.224   7.187  32.148  1.00  0.00     0.289 A 
ENDROOT
BRANCH   5  13
HETATM   13  S1  UNK     1      18.631   5.043  32.750  1.00  0.00    -0.118 SA
BRANCH  13  14
HETATM   14  C11 UNK     1      18.702   4.637  30.993  1.00  0.00     0.189 C 
BRANCH  14  15
HETATM   15  C12 UNK     1      19.518   5.672  30.274  1.00  0.00     0.149 C 
HETATM   16  O4  UNK     1      20.709   5.869  30.480  1.00  0.00    -0.649 OA
BRANCH  15  17
HETATM   17  O3  UNK     1      18.797   6.362  29.354  1.00  0.00    -0.776 OA
HETATM   18  H10 UNK     1      18.637   7.289  29.635  1.00  0.00     0.167 HD
ENDBRANCH  15  17
ENDBRANCH  14  15
ENDBRANCH  13  14
ENDBRANCH   5  13
TORSDOF 4
ENDMDL
MODEL 6
REMARK VINA RESULT:      -6.7     14.206     17.139
REMARK  4 active torsions:
REMARK  status: ('A' for Active; 'I' for Inactive)
REMARK    1  A    between atoms: C11_16  and  S1_1 
REMARK    2  A    between atoms: C3_8  and  S1_1 
REMARK    3  A    between atoms: C12_17  and  O3_4 
REMARK    4  A    between atoms: C11_16  and  C12_17 
ROOT
HETATM    1  O1  UNK     1      20.537  -2.954  33.826  1.00  0.00    -0.275 OA
HETATM    2  O2  UNK     1      20.393  -3.586  36.019  1.00  0.00    -0.260 OA
HETATM    3  C1  UNK     1      19.302  -0.986  33.050  1.00  0.00     0.015 A 
HETATM    4  C2  UNK     1      20.179  -2.049  32.806  1.00  0.00     0.091 A 
HETATM    5  C3  UNK     1      18.746  -0.857  34.407  1.00  0.00     0.019 A 
HETATM    6  C4  UNK     1      19.038  -0.122  31.976  1.00  0.00     0.022 A 
HETATM    7  C5  UNK     1      19.617  -0.333  30.717  1.00  0.00    -0.061 A 
HETATM    8  C6  UNK     1      20.763  -2.272  31.557  1.00  0.00     0.039 A 
HETATM    9  C7  UNK     1      20.476  -1.408  30.508  1.00  0.00     0.009 A 
HETATM   10  C8  UNK     1      19.121  -1.715  35.365  1.00  0.00     0.102 A 
HETATM   11  C9  UNK     1      19.311   0.602  29.595  1.00  0.00     0.048 C 
HETATM   12  C10 UNK     1      20.062  -2.821  35.121  1.00  0.00     0.289 A 
ENDROOT
BRANCH   5  13
HETATM   13  S1  UNK     1      17.617   0.414  34.760  1.00  0.00    -0.118 SA
BRANCH  13  14
HETATM   14  C11 UNK     1      17.278   0.039  36.492  1.00  0.00     0.189 C 
BRANCH  14  15
HETATM   15  C12 UNK     1      17.732   1.186  37.349  1.00  0.00     0.149 C 
HETATM   16  O4  UNK     1      17.930   1.103  38.556  1.00  0.00    -0.649 OA
BRANCH  15  17
HETATM   17  O3  UNK     1      17.918   2.329  36.641  1.00  0.00    -0.776 OA
HETATM   18  H10 UNK     1      17.840   2.177  35.675  1.00  0.00     0.167 HD
ENDBRANCH  15  17
ENDBRANCH  14  15
ENDBRANCH  13  14
ENDBRANCH   5  13
TORSDOF 4
ENDMDL
MODEL 7
REMARK VINA RESULT:      -6.6     15.124     17.394
REMARK  4 active torsions:
REMARK  status: ('A' for Active; 'I' for Inactive)
REMARK    1  A    between atoms: C11_16  and  S1_1 
REMARK    2  A    between atoms: C3_8  and  S1_1 
REMARK    3  A    between atoms: C12_17  and  O3_4 
REMARK    4  A    between atoms: C11_16  and  C12_17 
ROOT
HETATM    1  O1  UNK     1      20.322   7.940  33.449  1.00  0.00    -0.275 OA
HETATM    2  O2  UNK     1      20.158   9.821  34.740  1.00  0.00    -0.260 OA
HETATM    3  C1  UNK     1      18.324   6.588  33.021  1.00  0.00     0.015 A 
HETATM    4  C2  UNK     1      19.689   6.837  32.839  1.00  0.00     0.091 A 
HETATM    5  C3  UNK     1      17.572   7.507  33.890  1.00  0.00     0.019 A 
HETATM    6  C4  UNK     1      17.785   5.485  32.341  1.00  0.00     0.022 A 
HETATM    7  C5  UNK     1      18.588   4.666  31.536  1.00  0.00    -0.061 A 
HETATM    8  C6  UNK     1      20.503   6.029  32.041  1.00  0.00     0.039 A 
HETATM    9  C7  UNK     1      19.946   4.937  31.388  1.00  0.00     0.009 A 
HETATM   10  C8  UNK     1      18.190   8.562  34.438  1.00  0.00     0.102 A 
HETATM   11  C9  UNK     1      17.984   3.497  30.832  1.00  0.00     0.048 C 
HETATM   12  C10 UNK     1      19.621   8.843  34.232  1.00  0.00     0.289 A 
ENDROOT
BRANCH   5  13
HETATM   13  S1  UNK     1      15.886   7.225  34.191  1.00  0.00    -0.118 SA
BRANCH  13  14
HETATM   14  C11 UNK     1      15.176   8.514  33.146  1.00  0.00     0.189 C 
BRANCH  14  15
HETATM   15  C12 UNK     1      15.269   8.097  31.706  1.00  0.00     0.149 C 
HETATM   16  O4  UNK     1      16.138   8.485  30.935  1.00  0.00    -0.649 OA
BRANCH  15  17
HETATM   17  O3  UNK     1      14.291   7.226  31.348  1.00  0.00    -0.776 OA
HETATM   18  H10 UNK     1      13.748   7.570  30.606  1.00  0.00     0.167 HD
ENDBRANCH  15  17
ENDBRANCH  14  15
ENDBRANCH  13  14
ENDBRANCH   5  13
TORSDOF 4
ENDMDL
MODEL 8
REMARK VINA RESULT:      -6.6     13.937     16.598
REMARK  4 active torsions:
REMARK  status: ('A' for Active; 'I' for Inactive)
REMARK    1  A    between atoms: C11_16  and  S1_1 
REMARK    2  A    between atoms: C3_8  and  S1_1 
REMARK    3  A    between atoms: C12_17  and  O3_4 
REMARK    4  A    between atoms: C11_16  and  C12_17 
ROOT
HETATM    1  O1  UNK     1      18.462   1.620  31.358  1.00  0.00    -0.275 OA
HETATM    2  O2  UNK     1      18.423   2.680  29.331  1.00  0.00    -0.260 OA
HETATM    3  C1  UNK     1      18.223   2.930  33.414  1.00  0.00     0.015 A 
HETATM    4  C2  UNK     1      18.373   1.701  32.763  1.00  0.00     0.091 A 
HETATM    5  C3  UNK     1      18.183   4.143  32.581  1.00  0.00     0.019 A 
HETATM    6  C4  UNK     1      18.109   2.897  34.812  1.00  0.00     0.022 A 
HETATM    7  C5  UNK     1      18.163   1.687  35.515  1.00  0.00    -0.061 A 
HETATM    8  C6  UNK     1      18.429   0.486  33.450  1.00  0.00     0.039 A 
HETATM    9  C7  UNK     1      18.325   0.483  34.835  1.00  0.00     0.009 A 
HETATM   10  C8  UNK     1      18.243   4.038  31.247  1.00  0.00     0.102 A 
HETATM   11  C9  UNK     1      18.044   1.688  37.003  1.00  0.00     0.048 C 
HETATM   12  C10 UNK     1      18.378   2.745  30.555  1.00  0.00     0.289 A 
ENDROOT
BRANCH   5  13
HETATM   13  S1  UNK     1      18.044   5.702  33.333  1.00  0.00    -0.118 SA
BRANCH  13  14
HETATM   14  C11 UNK     1      18.046   6.745  31.860  1.00  0.00     0.189 C 
BRANCH  14  15
HETATM   15  C12 UNK     1      16.728   7.459  31.753  1.00  0.00     0.149 C 
HETATM   16  O4  UNK     1      15.850   7.407  32.605  1.00  0.00    -0.649 OA
BRANCH  15  17
HETATM   17  O3  UNK     1      16.618   8.186  30.612  1.00  0.00    -0.776 OA
HETATM   18  H10 UNK     1      17.297   7.934  29.950  1.00  0.00     0.167 HD
ENDBRANCH  15  17
ENDBRANCH  14  15
ENDBRANCH  13  14
ENDBRANCH   5  13
TORSDOF 4
ENDMDL
MODEL 9
REMARK VINA RESULT:      -6.6     23.523     24.904
REMARK  4 active torsions:
REMARK  status: ('A' for Active; 'I' for Inactive)
REMARK    1  A    between atoms: C11_16  and  S1_1 
REMARK    2  A    between atoms: C3_8  and  S1_1 
REMARK    3  A    between atoms: C12_17  and  O3_4 
REMARK    4  A    between atoms: C11_16  and  C12_17 
ROOT
HETATM    1  O1  UNK     1      28.303  -4.847  38.810  1.00  0.00    -0.275 OA
HETATM    2  O2  UNK     1      26.019  -4.952  38.798  1.00  0.00    -0.260 OA
HETATM    3  C1  UNK     1      29.608  -6.777  38.052  1.00  0.00     0.015 A 
HETATM    4  C2  UNK     1      29.540  -5.466  38.535  1.00  0.00     0.091 A 
HETATM    5  C3  UNK     1      28.340  -7.500  37.859  1.00  0.00     0.019 A 
HETATM    6  C4  UNK     1      30.886  -7.286  37.777  1.00  0.00     0.022 A 
HETATM    7  C5  UNK     1      32.036  -6.516  37.997  1.00  0.00    -0.061 A 
HETATM    8  C6  UNK     1      30.678  -4.686  38.761  1.00  0.00     0.039 A 
HETATM    9  C7  UNK     1      31.932  -5.219  38.491  1.00  0.00     0.009 A 
HETATM   10  C8  UNK     1      27.177  -6.882  38.103  1.00  0.00     0.102 A 
HETATM   11  C9  UNK     1      33.380  -7.091  37.699  1.00  0.00     0.048 C 
HETATM   12  C10 UNK     1      27.098  -5.494  38.590  1.00  0.00     0.289 A 
ENDROOT
BRANCH   5  13
HETATM   13  S1  UNK     1      28.360  -9.144  37.304  1.00  0.00    -0.118 SA
BRANCH  13  14
HETATM   14  C11 UNK     1      26.920  -9.776  38.190  1.00  0.00     0.189 C 
BRANCH  14  15
HETATM   15  C12 UNK     1      27.352 -10.321  39.522  1.00  0.00     0.149 C 
HETATM   16  O4  UNK     1      28.517 -10.560  39.818  1.00  0.00    -0.649 OA
BRANCH  15  17
HETATM   17  O3  UNK     1      26.313 -10.509  40.374  1.00  0.00    -0.776 OA
HETATM   18  H10 UNK     1      26.561 -11.080  41.133  1.00  0.00     0.167 HD
ENDBRANCH  15  17
ENDBRANCH  14  15
ENDBRANCH  13  14
ENDBRANCH   5  13
TORSDOF 4
ENDMDL
MODEL 10
REMARK VINA RESULT:      -6.6     14.600     17.918
REMARK  4 active torsions:
REMARK  status: ('A' for Active; 'I' for Inactive)
REMARK    1  A    between atoms: C11_16  and  S1_1 
REMARK    2  A    between atoms: C3_8  and  S1_1 
REMARK    3  A    between atoms: C12_17  and  O3_4 
REMARK    4  A    between atoms: C11_16  and  C12_17 
ROOT
HETATM    1  O1  UNK     1      18.446   9.511  33.974  1.00  0.00    -0.275 OA
HETATM    2  O2  UNK     1      20.619   9.317  34.660  1.00  0.00    -0.260 OA
HETATM    3  C1  UNK     1      17.180   7.499  33.382  1.00  0.00     0.015 A 
HETATM    4  C2  UNK     1      17.254   8.886  33.553  1.00  0.00     0.091 A 
HETATM    5  C3  UNK     1      18.398   6.713  33.637  1.00  0.00     0.019 A 
HETATM    6  C4  UNK     1      15.937   6.974  32.995  1.00  0.00     0.022 A 
HETATM    7  C5  UNK     1      14.834   7.809  32.773  1.00  0.00    -0.061 A 
HETATM    8  C6  UNK     1      16.164   9.732  33.335  1.00  0.00     0.039 A 
HETATM    9  C7  UNK     1      14.948   9.186  32.941  1.00  0.00     0.009 A 
HETATM   10  C8  UNK     1      19.511   7.327  34.060  1.00  0.00     0.102 A 
HETATM   11  C9  UNK     1      13.529   7.218  32.357  1.00  0.00     0.048 C 
HETATM   12  C10 UNK     1      19.589   8.783  34.264  1.00  0.00     0.289 A 
ENDROOT
BRANCH   5  13
HETATM   13  S1  UNK     1      18.382   4.994  33.399  1.00  0.00    -0.118 SA
BRANCH  13  14
HETATM   14  C11 UNK     1      18.712   4.934  31.626  1.00  0.00     0.189 C 
BRANCH  14  15
HETATM   15  C12 UNK     1      18.438   3.549  31.113  1.00  0.00     0.149 C 
HETATM   16  O4  UNK     1      17.552   2.822  31.545  1.00  0.00    -0.649 OA
BRANCH  15  17
HETATM   17  O3  UNK     1      19.269   3.190  30.102  1.00  0.00    -0.776 OA
HETATM   18  H10 UNK     1      19.544   2.250  30.171  1.00  0.00     0.167 HD
ENDBRANCH  15  17
ENDBRANCH  14  15
ENDBRANCH  13  14
ENDBRANCH   5  13
TORSDOF 4
ENDMDL
