MODEL 1
REMARK VINA RESULT:      -7.1      0.000      0.000
REMARK  1 active torsions:
REMARK  status: ('A' for Active; 'I' for Inactive)
REMARK    1  A    between atoms: C3_8  and  C8_13 
ROOT
HETATM    1  O1  UNK     1      19.059  -0.426  32.828  1.00  0.00    -0.309 OA
HETATM    2  O2  UNK     1      18.675   2.827  30.405  1.00  0.00    -0.287 OA
HETATM    3  C1  UNK     1      19.371   0.580  30.639  1.00  0.00     0.048 A 
HETATM    4  C2  UNK     1      19.472  -0.495  31.522  1.00  0.00     0.090 A 
HETATM    5  C3  UNK     1      18.516   0.763  33.286  1.00  0.00     0.111 A 
HETATM    6  C4  UNK     1      18.794   1.844  31.123  1.00  0.00     0.187 A 
HETATM    7  C5  UNK     1      18.365   1.864  32.534  1.00  0.00     0.093 A 
HETATM    8  C6  UNK     1      19.808   0.453  29.318  1.00  0.00     0.018 A 
HETATM    9  C7  UNK     1      20.013  -1.704  31.086  1.00  0.00     0.038 A 
HETATM   10  C9  UNK     1      20.348  -0.758  28.886  1.00  0.00     0.001 A 
HETATM   11  C10 UNK     1      20.451  -1.836  29.768  1.00  0.00     0.003 A 
ENDROOT
BRANCH   5  12
HETATM   12  C8  UNK     1      18.101   0.715  34.723  1.00  0.00     0.237 C 
HETATM   13 Cl1  UNK     1      18.535   2.259  35.497  1.00  0.00    -0.076 Cl
HETATM   14 Cl2  UNK     1      16.341   0.463  34.832  1.00  0.00    -0.076 Cl
HETATM   15 Cl3  UNK     1      18.938  -0.624  35.545  1.00  0.00    -0.076 Cl
ENDBRANCH   5  12
TORSDOF 1
ENDMDL
MODEL 2
REMARK VINA RESULT:      -7.1      0.064      1.319
REMARK  1 active torsions:
REMARK  status: ('A' for Active; 'I' for Inactive)
REMARK    1  A    between atoms: C3_8  and  C8_13 
ROOT
HETATM    1  O1  UNK     1      19.091  -0.461  32.823  1.00  0.00    -0.309 OA
HETATM    2  O2  UNK     1      18.660   2.810  30.431  1.00  0.00    -0.287 OA
HETATM    3  C1  UNK     1      19.375   0.567  30.639  1.00  0.00     0.048 A 
HETATM    4  C2  UNK     1      19.492  -0.515  31.512  1.00  0.00     0.090 A 
HETATM    5  C3  UNK     1      18.544   0.721  33.296  1.00  0.00     0.111 A 
HETATM    6  C4  UNK     1      18.794   1.822  31.140  1.00  0.00     0.187 A 
HETATM    7  C5  UNK     1      18.378   1.827  32.556  1.00  0.00     0.093 A 
HETATM    8  C6  UNK     1      19.800   0.454  29.314  1.00  0.00     0.018 A 
HETATM    9  C7  UNK     1      20.038  -1.717  31.061  1.00  0.00     0.038 A 
HETATM   10  C9  UNK     1      20.345  -0.750  28.866  1.00  0.00     0.001 A 
HETATM   11  C10 UNK     1      20.464  -1.834  29.737  1.00  0.00     0.003 A 
ENDROOT
BRANCH   5  12
HETATM   12  C8  UNK     1      18.143   0.658  34.737  1.00  0.00     0.237 C 
HETATM   13 Cl1  UNK     1      18.944  -0.740  35.495  1.00  0.00    -0.076 Cl
HETATM   14 Cl2  UNK     1      18.637   2.155  35.564  1.00  0.00    -0.076 Cl
HETATM   15 Cl3  UNK     1      16.376   0.475  34.859  1.00  0.00    -0.076 Cl
ENDBRANCH   5  12
TORSDOF 1
ENDMDL
MODEL 3
REMARK VINA RESULT:      -7.1      1.424      2.784
REMARK  1 active torsions:
REMARK  status: ('A' for Active; 'I' for Inactive)
REMARK    1  A    between atoms: C3_8  and  C8_13 
ROOT
HETATM    1  O1  UNK     1      18.687   0.052  32.671  1.00  0.00    -0.309 OA
HETATM    2  O2  UNK     1      21.104  -3.221  32.463  1.00  0.00    -0.287 OA
HETATM    3  C1  UNK     1      20.193  -1.337  31.365  1.00  0.00     0.048 A 
HETATM    4  C2  UNK     1      19.352  -0.233  31.506  1.00  0.00     0.090 A 
HETATM    5  C3  UNK     1      18.863  -0.793  33.754  1.00  0.00     0.111 A 
HETATM    6  C4  UNK     1      20.382  -2.236  32.514  1.00  0.00     0.187 A 
HETATM    7  C5  UNK     1      19.645  -1.883  33.743  1.00  0.00     0.093 A 
HETATM    8  C6  UNK     1      20.845  -1.578  30.154  1.00  0.00     0.018 A 
HETATM    9  C7  UNK     1      19.158   0.635  30.431  1.00  0.00     0.038 A 
HETATM   10  C9  UNK     1      20.649  -0.707  29.082  1.00  0.00     0.001 A 
HETATM   11  C10 UNK     1      19.808   0.398  29.219  1.00  0.00     0.003 A 
ENDROOT
BRANCH   5  12
HETATM   12  C8  UNK     1      18.091  -0.378  34.967  1.00  0.00     0.237 C 
HETATM   13 Cl1  UNK     1      18.290   1.376  35.203  1.00  0.00    -0.076 Cl
HETATM   14 Cl2  UNK     1      16.366  -0.761  34.742  1.00  0.00    -0.076 Cl
HETATM   15 Cl3  UNK     1      18.704  -1.248  36.395  1.00  0.00    -0.076 Cl
ENDBRANCH   5  12
TORSDOF 1
ENDMDL
MODEL 4
REMARK VINA RESULT:      -6.7     14.150     15.886
REMARK  1 active torsions:
REMARK  status: ('A' for Active; 'I' for Inactive)
REMARK    1  A    between atoms: C3_8  and  C8_13 
ROOT
HETATM    1  O1  UNK     1      18.900  -0.989  17.364  1.00  0.00    -0.309 OA
HETATM    2  O2  UNK     1      19.415   2.606  15.514  1.00  0.00    -0.287 OA
HETATM    3  C1  UNK     1      19.120   1.425  17.541  1.00  0.00     0.048 A 
HETATM    4  C2  UNK     1      18.948   0.163  18.109  1.00  0.00     0.090 A 
HETATM    5  C3  UNK     1      19.032  -0.889  15.989  1.00  0.00     0.111 A 
HETATM    6  C4  UNK     1      19.260   1.533  16.080  1.00  0.00     0.187 A 
HETATM    7  C5  UNK     1      19.204   0.265  15.327  1.00  0.00     0.093 A 
HETATM    8  C6  UNK     1      19.161   2.563  18.348  1.00  0.00     0.018 A 
HETATM    9  C7  UNK     1      18.814   0.034  19.491  1.00  0.00     0.038 A 
HETATM   10  C9  UNK     1      19.028   2.431  19.731  1.00  0.00     0.001 A 
HETATM   11  C10 UNK     1      18.855   1.169  20.302  1.00  0.00     0.003 A 
ENDROOT
BRANCH   5  12
HETATM   12  C8  UNK     1      18.967  -2.209  15.286  1.00  0.00     0.237 C 
HETATM   13 Cl1  UNK     1      18.888  -1.921  13.531  1.00  0.00    -0.076 Cl
HETATM   14 Cl2  UNK     1      20.416  -3.169  15.673  1.00  0.00    -0.076 Cl
HETATM   15 Cl3  UNK     1      17.517  -3.098  15.813  1.00  0.00    -0.076 Cl
ENDBRANCH   5  12
TORSDOF 1
ENDMDL
MODEL 5
REMARK VINA RESULT:      -6.5      2.031      3.516
REMARK  1 active torsions:
REMARK  status: ('A' for Active; 'I' for Inactive)
REMARK    1  A    between atoms: C3_8  and  C8_13 
ROOT
HETATM    1  O1  UNK     1      18.504  -0.200  33.747  1.00  0.00    -0.309 OA
HETATM    2  O2  UNK     1      20.634  -3.303  35.310  1.00  0.00    -0.287 OA
HETATM    3  C1  UNK     1      20.030  -2.057  33.394  1.00  0.00     0.048 A 
HETATM    4  C2  UNK     1      19.278  -0.980  32.926  1.00  0.00     0.090 A 
HETATM    5  C3  UNK     1      18.474  -0.497  35.100  1.00  0.00     0.111 A 
HETATM    6  C4  UNK     1      19.999  -2.374  34.830  1.00  0.00     0.187 A 
HETATM    7  C5  UNK     1      19.153  -1.503  35.669  1.00  0.00     0.093 A 
HETATM    8  C6  UNK     1      20.800  -2.818  32.511  1.00  0.00     0.018 A 
HETATM    9  C7  UNK     1      19.292  -0.659  31.569  1.00  0.00     0.038 A 
HETATM   10  C9  UNK     1      20.813  -2.493  31.154  1.00  0.00     0.001 A 
HETATM   11  C10 UNK     1      20.060  -1.416  30.683  1.00  0.00     0.003 A 
ENDROOT
BRANCH   5  12
HETATM   12  C8  UNK     1      17.599   0.424  35.893  1.00  0.00     0.237 C 
HETATM   13 Cl1  UNK     1      18.161   2.096  35.655  1.00  0.00    -0.076 Cl
HETATM   14 Cl2  UNK     1      15.912   0.273  35.343  1.00  0.00    -0.076 Cl
HETATM   15 Cl3  UNK     1      17.693  -0.001  37.620  1.00  0.00    -0.076 Cl
ENDBRANCH   5  12
TORSDOF 1
ENDMDL
MODEL 6
REMARK VINA RESULT:      -6.5      6.547      7.451
REMARK  1 active torsions:
REMARK  status: ('A' for Active; 'I' for Inactive)
REMARK    1  A    between atoms: C3_8  and  C8_13 
ROOT
HETATM    1  O1  UNK     1      17.036   7.024  31.731  1.00  0.00    -0.309 OA
HETATM    2  O2  UNK     1      19.460   7.547  34.965  1.00  0.00    -0.287 OA
HETATM    3  C1  UNK     1      19.243   6.819  32.726  1.00  0.00     0.048 A 
HETATM    4  C2  UNK     1      18.358   6.668  31.658  1.00  0.00     0.090 A 
HETATM    5  C3  UNK     1      16.562   7.559  32.918  1.00  0.00     0.111 A 
HETATM    6  C4  UNK     1      18.742   7.386  33.988  1.00  0.00     0.187 A 
HETATM    7  C5  UNK     1      17.313   7.754  34.012  1.00  0.00     0.093 A 
HETATM    8  C6  UNK     1      20.580   6.438  32.595  1.00  0.00     0.018 A 
HETATM    9  C7  UNK     1      18.810   6.134  30.451  1.00  0.00     0.038 A 
HETATM   10  C9  UNK     1      21.028   5.905  31.386  1.00  0.00     0.001 A 
HETATM   11  C10 UNK     1      20.145   5.752  30.316  1.00  0.00     0.003 A 
ENDROOT
BRANCH   5  12
HETATM   12  C8  UNK     1      15.108   7.911  32.876  1.00  0.00     0.237 C 
HETATM   13 Cl1  UNK     1      14.950   9.676  32.700  1.00  0.00    -0.076 Cl
HETATM   14 Cl2  UNK     1      14.332   7.098  31.495  1.00  0.00    -0.076 Cl
HETATM   15 Cl3  UNK     1      14.321   7.386  34.384  1.00  0.00    -0.076 Cl
ENDBRANCH   5  12
TORSDOF 1
ENDMDL
MODEL 7
REMARK VINA RESULT:      -6.4     23.572     24.651
REMARK  1 active torsions:
REMARK  status: ('A' for Active; 'I' for Inactive)
REMARK    1  A    between atoms: C3_8  and  C8_13 
ROOT
HETATM    1  O1  UNK     1      13.331   7.515   9.026  1.00  0.00    -0.309 OA
HETATM    2  O2  UNK     1      15.764   4.312   9.678  1.00  0.00    -0.287 OA
HETATM    3  C1  UNK     1      15.524   6.664   9.634  1.00  0.00     0.048 A 
HETATM    4  C2  UNK     1      14.637   7.714   9.396  1.00  0.00     0.090 A 
HETATM    5  C3  UNK     1      12.876   6.215   8.887  1.00  0.00     0.111 A 
HETATM    6  C4  UNK     1      15.043   5.281   9.485  1.00  0.00     0.187 A 
HETATM    7  C5  UNK     1      13.631   5.124   9.088  1.00  0.00     0.093 A 
HETATM    8  C6  UNK     1      16.844   6.925  10.008  1.00  0.00     0.018 A 
HETATM    9  C7  UNK     1      15.069   9.033   9.532  1.00  0.00     0.038 A 
HETATM   10  C9  UNK     1      17.272   8.245  10.143  1.00  0.00     0.001 A 
HETATM   11  C10 UNK     1      16.387   9.298   9.906  1.00  0.00     0.003 A 
ENDROOT
BRANCH   5  12
HETATM   12  C8  UNK     1      11.437   6.126   8.483  1.00  0.00     0.237 C 
HETATM   13 Cl1  UNK     1      10.648   4.856   9.450  1.00  0.00    -0.076 Cl
HETATM   14 Cl2  UNK     1      10.634   7.688   8.774  1.00  0.00    -0.076 Cl
HETATM   15 Cl3  UNK     1      11.324   5.719   6.753  1.00  0.00    -0.076 Cl
ENDBRANCH   5  12
TORSDOF 1
ENDMDL
MODEL 8
REMARK VINA RESULT:      -6.4      6.887      9.175
REMARK  1 active torsions:
REMARK  status: ('A' for Active; 'I' for Inactive)
REMARK    1  A    between atoms: C3_8  and  C8_13 
ROOT
HETATM    1  O1  UNK     1      17.570   8.040  32.966  1.00  0.00    -0.309 OA
HETATM    2  O2  UNK     1      13.822   6.898  31.847  1.00  0.00    -0.287 OA
HETATM    3  C1  UNK     1      15.182   8.492  32.940  1.00  0.00     0.048 A 
HETATM    4  C2  UNK     1      16.491   8.823  33.290  1.00  0.00     0.090 A 
HETATM    5  C3  UNK     1      17.345   6.871  32.258  1.00  0.00     0.111 A 
HETATM    6  C4  UNK     1      14.942   7.251  32.188  1.00  0.00     0.187 A 
HETATM    7  C5  UNK     1      16.136   6.446  31.863  1.00  0.00     0.093 A 
HETATM    8  C6  UNK     1      14.122   9.328  33.297  1.00  0.00     0.018 A 
HETATM    9  C7  UNK     1      16.745   9.996  34.002  1.00  0.00     0.038 A 
HETATM   10  C9  UNK     1      14.380  10.500  34.008  1.00  0.00     0.001 A 
HETATM   11  C10 UNK     1      15.688  10.834  34.361  1.00  0.00     0.003 A 
ENDROOT
BRANCH   5  12
HETATM   12  C8  UNK     1      18.596   6.104  31.961  1.00  0.00     0.237 C 
HETATM   13 Cl1  UNK     1      18.364   4.412  32.463  1.00  0.00    -0.076 Cl
HETATM   14 Cl2  UNK     1      18.942   6.171  30.216  1.00  0.00    -0.076 Cl
HETATM   15 Cl3  UNK     1      19.961   6.813  32.858  1.00  0.00    -0.076 Cl
ENDBRANCH   5  12
TORSDOF 1
ENDMDL
MODEL 9
REMARK VINA RESULT:      -6.4      2.597      3.756
REMARK  1 active torsions:
REMARK  status: ('A' for Active; 'I' for Inactive)
REMARK    1  A    between atoms: C3_8  and  C8_13 
ROOT
HETATM    1  O1  UNK     1      18.188   1.642  32.427  1.00  0.00    -0.309 OA
HETATM    2  O2  UNK     1      18.408   5.394  34.002  1.00  0.00    -0.287 OA
HETATM    3  C1  UNK     1      18.478   4.028  32.073  1.00  0.00     0.048 A 
HETATM    4  C2  UNK     1      18.391   2.719  31.602  1.00  0.00     0.090 A 
HETATM    5  C3  UNK     1      18.061   1.870  33.787  1.00  0.00     0.111 A 
HETATM    6  C4  UNK     1      18.343   4.273  33.518  1.00  0.00     0.187 A 
HETATM    7  C5  UNK     1      18.125   3.081  34.361  1.00  0.00     0.093 A 
HETATM    8  C6  UNK     1      18.686   5.087  31.186  1.00  0.00     0.018 A 
HETATM    9  C7  UNK     1      18.514   2.461  30.236  1.00  0.00     0.038 A 
HETATM   10  C9  UNK     1      18.807   4.826  29.821  1.00  0.00     0.001 A 
HETATM   11  C10 UNK     1      18.722   3.516  29.346  1.00  0.00     0.003 A 
ENDROOT
BRANCH   5  12
HETATM   12  C8  UNK     1      17.841   0.622  34.584  1.00  0.00     0.237 C 
HETATM   13 Cl1  UNK     1      18.488  -0.763  33.671  1.00  0.00    -0.076 Cl
HETATM   14 Cl2  UNK     1      18.678   0.752  36.150  1.00  0.00    -0.076 Cl
HETATM   15 Cl3  UNK     1      16.098   0.391  34.866  1.00  0.00    -0.076 Cl
ENDBRANCH   5  12
TORSDOF 1
ENDMDL
MODEL 10
REMARK VINA RESULT:      -6.3     13.708     14.644
REMARK  1 active torsions:
REMARK  status: ('A' for Active; 'I' for Inactive)
REMARK    1  A    between atoms: C3_8  and  C8_13 
ROOT
HETATM    1  O1  UNK     1      30.809  -6.474  37.183  1.00  0.00    -0.309 OA
HETATM    2  O2  UNK     1      28.369  -4.013  39.325  1.00  0.00    -0.287 OA
HETATM    3  C1  UNK     1      28.934  -6.223  38.707  1.00  0.00     0.048 A 
HETATM    4  C2  UNK     1      29.805  -7.007  37.951  1.00  0.00     0.090 A 
HETATM    5  C3  UNK     1      30.963  -5.098  37.162  1.00  0.00     0.111 A 
HETATM    6  C4  UNK     1      29.095  -4.761  38.686  1.00  0.00     0.187 A 
HETATM    7  C5  UNK     1      30.191  -4.241  37.846  1.00  0.00     0.093 A 
HETATM    8  C6  UNK     1      27.929  -6.821  39.471  1.00  0.00     0.018 A 
HETATM    9  C7  UNK     1      29.674  -8.396  37.955  1.00  0.00     0.038 A 
HETATM   10  C9  UNK     1      27.800  -8.210  39.473  1.00  0.00     0.001 A 
HETATM   11  C10 UNK     1      28.671  -8.997  38.717  1.00  0.00     0.003 A 
ENDROOT
BRANCH   5  12
HETATM   12  C8  UNK     1      32.091  -4.636  36.293  1.00  0.00     0.237 C 
HETATM   13 Cl1  UNK     1      32.220  -2.865  36.414  1.00  0.00    -0.076 Cl
HETATM   14 Cl2  UNK     1      33.612  -5.388  36.833  1.00  0.00    -0.076 Cl
HETATM   15 Cl3  UNK     1      31.774  -5.100  34.603  1.00  0.00    -0.076 Cl
ENDBRANCH   5  12
TORSDOF 1
ENDMDL
