MODEL 1
REMARK VINA RESULT:      -8.6      0.000      0.000
REMARK  7 active torsions:
REMARK  status: ('A' for Active; 'I' for Inactive)
REMARK    1  A    between atoms: C18_27  and  O5_5 
REMARK    2  A    between atoms: C21_30  and  O6_6 
REMARK    3  A    between atoms: C28_37  and  O7_7 
REMARK       I    between atoms: C12_21  and  N2_9 
REMARK    4  A    between atoms: C24_33  and  N2_9 
REMARK    5  A    between atoms: C1_10  and  C9_18 
REMARK    6  A    between atoms: C11_20  and  C4_13 
REMARK    7  A    between atoms: C12_21  and  C8_17 
ROOT
HETATM    1  O1  UNK     1      34.756  -6.999  30.444  1.00  0.00    -0.293 OA
HETATM    2  N1  UNK     1      36.373 -10.270  33.452  1.00  0.00    -0.362 N 
HETATM    3  C1  UNK     1      36.115  -6.538  33.829  1.00  0.00     0.031 C 
HETATM    4  C2  UNK     1      36.828  -7.899  33.909  1.00  0.00     0.067 C 
HETATM    5  C3  UNK     1      35.422  -8.678  31.979  1.00  0.00     0.024 C 
HETATM    6  C4  UNK     1      34.741  -9.784  31.183  1.00  0.00     0.104 C 
HETATM    7  C5  UNK     1      36.169  -8.960  33.066  1.00  0.00     0.021 C 
HETATM    8  C6  UNK     1      35.908  -6.156  32.358  1.00  0.00     0.093 C 
HETATM    9  C7  UNK     1      35.300  -7.262  31.517  1.00  0.00     0.159 C 
HETATM   10  C8  UNK     1      35.155 -11.186  31.639  1.00  0.00     0.045 C 
HETATM   11  C10 UNK     1      35.925 -11.370  32.738  1.00  0.00     0.018 C 
HETATM   12  C15 UNK     1      36.395 -12.698  33.271  1.00  0.00     0.069 C 
HETATM   13  H7  UNK     1      36.952 -10.440  34.265  1.00  0.00     0.165 HD
ENDROOT
BRANCH  10  14
HETATM   14  C12 UNK     1      34.674 -12.308  30.818  1.00  0.00     0.255 C 
HETATM   15  O3  UNK     1      35.107 -12.454  29.679  1.00  0.00    -0.268 OA
HETATM   16  N2  UNK     1      33.744 -13.084  31.493  1.00  0.00    -0.321 N 
HETATM   17  H15 UNK     1      33.507 -12.821  32.447  1.00  0.00     0.169 HD
BRANCH  16  18
HETATM   18  C24 UNK     1      33.075 -14.236  31.014  1.00  0.00     0.068 A 
HETATM   19  C28 UNK     1      31.717 -14.187  30.746  1.00  0.00     0.095 A 
HETATM   20  C32 UNK     1      31.072 -15.329  30.275  1.00  0.00     0.039 A 
HETATM   21  C34 UNK     1      31.794 -16.506  30.076  1.00  0.00     0.003 A 
HETATM   22  C33 UNK     1      33.161 -16.541  30.350  1.00  0.00     0.002 A 
HETATM   23  C29 UNK     1      33.807 -15.397  30.822  1.00  0.00     0.032 A 
BRANCH  19  24
HETATM   24  O7  UNK     1      30.993 -13.047  30.934  1.00  0.00    -0.354 OA
HETATM   25  C35 UNK     1      29.871 -12.843  30.078  1.00  0.00     0.210 C 
ENDBRANCH  19  24
ENDBRANCH  16  18
ENDBRANCH  10  14
BRANCH   6  26
HETATM   26  C11 UNK     1      33.245  -9.632  31.260  1.00  0.00     0.029 A 
HETATM   27  C16 UNK     1      32.484  -9.467  29.995  1.00  0.00     0.194 A 
HETATM   28  O4  UNK     1      33.034  -9.453  28.902  1.00  0.00    -0.287 OA
HETATM   29  C19 UNK     1      31.023  -9.321  30.127  1.00  0.00     0.048 A 
HETATM   30  C22 UNK     1      30.451  -9.346  31.399  1.00  0.00     0.089 A 
HETATM   31  C23 UNK     1      30.218  -9.161  28.996  1.00  0.00     0.018 A 
HETATM   32  O2  UNK     1      31.192  -9.500  32.543  1.00  0.00    -0.321 OA
HETATM   33  C25 UNK     1      29.069  -9.209  31.547  1.00  0.00     0.038 A 
HETATM   34  C17 UNK     1      32.552  -9.635  32.404  1.00  0.00     0.154 A 
HETATM   35  C27 UNK     1      28.264  -9.049  30.419  1.00  0.00     0.003 A 
HETATM   36  C26 UNK     1      28.837  -9.024  29.147  1.00  0.00     0.001 A 
ENDBRANCH   6  26
BRANCH   3  37
HETATM   37  C9  UNK     1      34.880  -6.495  34.724  1.00  0.00    -0.050 A 
HETATM   38  C13 UNK     1      33.678  -5.995  34.225  1.00  0.00     0.047 A 
HETATM   39  C18 UNK     1      32.548  -5.956  35.042  1.00  0.00     0.102 A 
HETATM   40  C21 UNK     1      32.623  -6.416  36.357  1.00  0.00     0.101 A 
HETATM   41  C20 UNK     1      33.827  -6.917  36.853  1.00  0.00     0.040 A 
HETATM   42  C14 UNK     1      34.956  -6.956  36.036  1.00  0.00     0.010 A 
BRANCH  39  43
HETATM   43  O5  UNK     1      31.379  -5.465  34.546  1.00  0.00    -0.353 OA
HETATM   44  C30 UNK     1      30.946  -5.974  33.286  1.00  0.00     0.210 C 
ENDBRANCH  39  43
BRANCH  40  45
HETATM   45  O6  UNK     1      31.527  -6.384  37.165  1.00  0.00    -0.353 OA
HETATM   46  C31 UNK     1      31.562  -5.483  38.270  1.00  0.00     0.210 C 
ENDBRANCH  40  45
ENDBRANCH   3  37
TORSDOF 7
ENDMDL
MODEL 2
REMARK VINA RESULT:      -8.5      3.066      8.011
REMARK  7 active torsions:
REMARK  status: ('A' for Active; 'I' for Inactive)
REMARK    1  A    between atoms: C18_27  and  O5_5 
REMARK    2  A    between atoms: C21_30  and  O6_6 
REMARK    3  A    between atoms: C28_37  and  O7_7 
REMARK       I    between atoms: C12_21  and  N2_9 
REMARK    4  A    between atoms: C24_33  and  N2_9 
REMARK    5  A    between atoms: C1_10  and  C9_18 
REMARK    6  A    between atoms: C11_20  and  C4_13 
REMARK    7  A    between atoms: C12_21  and  C8_17 
ROOT
HETATM    1  O1  UNK     1      30.646  -5.436  30.297  1.00  0.00    -0.293 OA
HETATM    2  N1  UNK     1      29.672  -9.726  32.032  1.00  0.00    -0.362 N 
HETATM    3  C1  UNK     1      31.820  -8.713  29.117  1.00  0.00     0.031 C 
HETATM    4  C2  UNK     1      30.735  -9.544  29.824  1.00  0.00     0.067 C 
HETATM    5  C3  UNK     1      30.253  -7.556  31.281  1.00  0.00     0.024 C 
HETATM    6  C4  UNK     1      29.752  -6.944  32.584  1.00  0.00     0.104 C 
HETATM    7  C5  UNK     1      30.215  -8.889  31.077  1.00  0.00     0.021 C 
HETATM    8  C6  UNK     1      31.323  -7.275  28.933  1.00  0.00     0.093 C 
HETATM    9  C7  UNK     1      30.747  -6.658  30.194  1.00  0.00     0.159 C 
HETATM   10  C8  UNK     1      29.062  -7.965  33.493  1.00  0.00     0.045 C 
HETATM   11  C10 UNK     1      29.061  -9.286  33.196  1.00  0.00     0.018 C 
HETATM   12  C15 UNK     1      28.410 -10.372  34.012  1.00  0.00     0.069 C 
HETATM   13  H7  UNK     1      29.649 -10.719  31.834  1.00  0.00     0.165 HD
ENDROOT
BRANCH  10  14
HETATM   14  C12 UNK     1      28.403  -7.428  34.695  1.00  0.00     0.255 C 
HETATM   15  O3  UNK     1      27.395  -6.738  34.575  1.00  0.00    -0.268 OA
HETATM   16  N2  UNK     1      29.059  -7.804  35.857  1.00  0.00    -0.321 N 
HETATM   17  H15 UNK     1      29.882  -8.394  35.770  1.00  0.00     0.169 HD
BRANCH  16  18
HETATM   18  C24 UNK     1      28.708  -7.471  37.188  1.00  0.00     0.068 A 
HETATM   19  C28 UNK     1      29.111  -6.261  37.728  1.00  0.00     0.095 A 
HETATM   20  C32 UNK     1      28.759  -5.947  39.040  1.00  0.00     0.039 A 
HETATM   21  C34 UNK     1      28.005  -6.848  39.794  1.00  0.00     0.003 A 
HETATM   22  C33 UNK     1      27.605  -8.062  39.236  1.00  0.00     0.002 A 
HETATM   23  C29 UNK     1      27.959  -8.376  37.923  1.00  0.00     0.032 A 
BRANCH  19  24
HETATM   24  O7  UNK     1      29.848  -5.369  37.009  1.00  0.00    -0.354 OA
HETATM   25  C35 UNK     1      30.236  -4.166  37.671  1.00  0.00     0.210 C 
ENDBRANCH  19  24
ENDBRANCH  16  18
ENDBRANCH  10  14
BRANCH   6  26
HETATM   26  C11 UNK     1      30.889  -6.281  33.315  1.00  0.00     0.029 A 
HETATM   27  C16 UNK     1      32.005  -7.128  33.807  1.00  0.00     0.194 A 
HETATM   28  O4  UNK     1      32.026  -8.339  33.637  1.00  0.00    -0.287 OA
HETATM   29  C19 UNK     1      33.092  -6.428  34.517  1.00  0.00     0.048 A 
HETATM   30  C22 UNK     1      33.014  -5.045  34.681  1.00  0.00     0.089 A 
HETATM   31  C23 UNK     1      34.186  -7.137  35.019  1.00  0.00     0.018 A 
HETATM   32  O2  UNK     1      31.964  -4.299  34.210  1.00  0.00    -0.321 OA
HETATM   33  C25 UNK     1      34.032  -4.362  35.350  1.00  0.00     0.038 A 
HETATM   34  C17 UNK     1      30.958  -4.965  33.551  1.00  0.00     0.154 A 
HETATM   35  C27 UNK     1      35.126  -5.068  35.852  1.00  0.00     0.003 A 
HETATM   36  C26 UNK     1      35.203  -6.452  35.687  1.00  0.00     0.001 A 
ENDBRANCH   6  26
BRANCH   3  37
HETATM   37  C9  UNK     1      33.183  -8.883  29.783  1.00  0.00    -0.050 A 
HETATM   38  C13 UNK     1      33.997  -7.771  29.991  1.00  0.00     0.047 A 
HETATM   39  C18 UNK     1      35.243  -7.924  30.599  1.00  0.00     0.102 A 
HETATM   40  C21 UNK     1      35.672  -9.190  30.998  1.00  0.00     0.101 A 
HETATM   41  C20 UNK     1      34.855 -10.301  30.789  1.00  0.00     0.040 A 
HETATM   42  C14 UNK     1      33.610 -10.148  30.180  1.00  0.00     0.010 A 
BRANCH  39  43
HETATM   43  O5  UNK     1      36.030  -6.832  30.798  1.00  0.00    -0.353 OA
HETATM   44  C30 UNK     1      35.809  -6.081  31.990  1.00  0.00     0.210 C 
ENDBRANCH  39  43
BRANCH  40  45
HETATM   45  O6  UNK     1      36.886  -9.354  31.594  1.00  0.00    -0.353 OA
HETATM   46  C31 UNK     1      36.897  -9.506  33.012  1.00  0.00     0.210 C 
ENDBRANCH  40  45
ENDBRANCH   3  37
TORSDOF 7
ENDMDL
MODEL 3
REMARK VINA RESULT:      -8.3      5.293      8.087
REMARK  7 active torsions:
REMARK  status: ('A' for Active; 'I' for Inactive)
REMARK    1  A    between atoms: C18_27  and  O5_5 
REMARK    2  A    between atoms: C21_30  and  O6_6 
REMARK    3  A    between atoms: C28_37  and  O7_7 
REMARK       I    between atoms: C12_21  and  N2_9 
REMARK    4  A    between atoms: C24_33  and  N2_9 
REMARK    5  A    between atoms: C1_10  and  C9_18 
REMARK    6  A    between atoms: C11_20  and  C4_13 
REMARK    7  A    between atoms: C12_21  and  C8_17 
ROOT
HETATM    1  O1  UNK     1      31.231 -10.144  34.993  1.00  0.00    -0.293 OA
HETATM    2  N1  UNK     1      28.837  -8.954  38.893  1.00  0.00    -0.362 N 
HETATM    3  C1  UNK     1      32.410  -8.282  37.935  1.00  0.00     0.031 C 
HETATM    4  C2  UNK     1      31.284  -8.735  38.882  1.00  0.00     0.067 C 
HETATM    5  C3  UNK     1      29.962  -9.439  36.866  1.00  0.00     0.024 C 
HETATM    6  C4  UNK     1      28.636  -9.715  36.167  1.00  0.00     0.104 C 
HETATM    7  C5  UNK     1      30.002  -9.056  38.159  1.00  0.00     0.021 C 
HETATM    8  C6  UNK     1      32.552  -9.292  36.791  1.00  0.00     0.093 C 
HETATM    9  C7  UNK     1      31.239  -9.647  36.119  1.00  0.00     0.159 C 
HETATM   10  C8  UNK     1      27.442  -9.690  37.126  1.00  0.00     0.045 C 
HETATM   11  C10 UNK     1      27.583  -9.306  38.417  1.00  0.00     0.018 C 
HETATM   12  C15 UNK     1      26.484  -9.251  39.445  1.00  0.00     0.069 C 
HETATM   13  H7  UNK     1      28.911  -8.677  39.865  1.00  0.00     0.165 HD
ENDROOT
BRANCH  10  14
HETATM   14  C12 UNK     1      26.147 -10.108  36.566  1.00  0.00     0.255 C 
HETATM   15  O3  UNK     1      26.105 -11.036  35.764  1.00  0.00    -0.268 OA
HETATM   16  N2  UNK     1      25.098  -9.345  37.058  1.00  0.00    -0.321 N 
HETATM   17  H15 UNK     1      25.316  -8.615  37.733  1.00  0.00     0.169 HD
BRANCH  16  18
HETATM   18  C24 UNK     1      23.724  -9.466  36.741  1.00  0.00     0.068 A 
HETATM   19  C28 UNK     1      22.821  -8.524  37.206  1.00  0.00     0.095 A 
HETATM   20  C32 UNK     1      21.470  -8.656  36.885  1.00  0.00     0.039 A 
HETATM   21  C34 UNK     1      21.042  -9.728  36.102  1.00  0.00     0.003 A 
HETATM   22  C33 UNK     1      21.963 -10.668  35.640  1.00  0.00     0.002 A 
HETATM   23  C29 UNK     1      23.314 -10.536  35.962  1.00  0.00     0.032 A 
BRANCH  19  24
HETATM   24  O7  UNK     1      23.220  -7.470  37.972  1.00  0.00    -0.354 OA
HETATM   25  C35 UNK     1      22.879  -7.509  39.357  1.00  0.00     0.210 C 
ENDBRANCH  19  24
ENDBRANCH  16  18
ENDBRANCH  10  14
BRANCH   6  26
HETATM   26  C11 UNK     1      28.426  -8.729  35.049  1.00  0.00     0.029 A 
HETATM   27  C16 UNK     1      28.448  -9.229  33.651  1.00  0.00     0.194 A 
HETATM   28  O4  UNK     1      28.630 -10.409  33.384  1.00  0.00    -0.287 OA
HETATM   29  C19 UNK     1      28.239  -8.222  32.594  1.00  0.00     0.048 A 
HETATM   30  C22 UNK     1      28.036  -6.890  32.956  1.00  0.00     0.089 A 
HETATM   31  C23 UNK     1      28.242  -8.593  31.246  1.00  0.00     0.018 A 
HETATM   32  O2  UNK     1      28.022  -6.471  34.262  1.00  0.00    -0.321 OA
HETATM   33  C25 UNK     1      27.835  -5.921  31.972  1.00  0.00     0.038 A 
HETATM   34  C17 UNK     1      28.219  -7.420  35.236  1.00  0.00     0.154 A 
HETATM   35  C27 UNK     1      27.838  -6.288  30.626  1.00  0.00     0.003 A 
HETATM   36  C26 UNK     1      28.041  -7.621  30.264  1.00  0.00     0.001 A 
ENDBRANCH   6  26
BRANCH   3  37
HETATM   37  C9  UNK     1      32.256  -6.817  37.536  1.00  0.00    -0.050 A 
HETATM   38  C13 UNK     1      31.148  -6.092  37.971  1.00  0.00     0.047 A 
HETATM   39  C18 UNK     1      31.006  -4.753  37.606  1.00  0.00     0.102 A 
HETATM   40  C21 UNK     1      31.973  -4.143  36.806  1.00  0.00     0.101 A 
HETATM   41  C20 UNK     1      33.081  -4.871  36.373  1.00  0.00     0.040 A 
HETATM   42  C14 UNK     1      33.222  -6.209  36.737  1.00  0.00     0.010 A 
BRANCH  39  43
HETATM   43  O5  UNK     1      29.920  -4.053  38.036  1.00  0.00    -0.353 OA
HETATM   44  C30 UNK     1      28.945  -4.769  38.790  1.00  0.00     0.210 C 
ENDBRANCH  39  43
BRANCH  40  45
HETATM   45  O6  UNK     1      31.846  -2.835  36.444  1.00  0.00    -0.353 OA
HETATM   46  C31 UNK     1      33.048  -2.124  36.156  1.00  0.00     0.210 C 
ENDBRANCH  40  45
ENDBRANCH   3  37
TORSDOF 7
ENDMDL
MODEL 4
REMARK VINA RESULT:      -8.3      3.132      7.877
REMARK  7 active torsions:
REMARK  status: ('A' for Active; 'I' for Inactive)
REMARK    1  A    between atoms: C18_27  and  O5_5 
REMARK    2  A    between atoms: C21_30  and  O6_6 
REMARK    3  A    between atoms: C28_37  and  O7_7 
REMARK       I    between atoms: C12_21  and  N2_9 
REMARK    4  A    between atoms: C24_33  and  N2_9 
REMARK    5  A    between atoms: C1_10  and  C9_18 
REMARK    6  A    between atoms: C11_20  and  C4_13 
REMARK    7  A    between atoms: C12_21  and  C8_17 
ROOT
HETATM    1  O1  UNK     1      30.620  -5.373  30.315  1.00  0.00    -0.293 OA
HETATM    2  N1  UNK     1      29.654  -9.684  32.003  1.00  0.00    -0.362 N 
HETATM    3  C1  UNK     1      31.788  -8.637  29.090  1.00  0.00     0.031 C 
HETATM    4  C2  UNK     1      30.706  -9.476  29.793  1.00  0.00     0.067 C 
HETATM    5  C3  UNK     1      30.232  -7.505  31.276  1.00  0.00     0.024 C 
HETATM    6  C4  UNK     1      29.737  -6.908  32.588  1.00  0.00     0.104 C 
HETATM    7  C5  UNK     1      30.193  -8.835  31.056  1.00  0.00     0.021 C 
HETATM    8  C6  UNK     1      31.290  -7.196  28.926  1.00  0.00     0.093 C 
HETATM    9  C7  UNK     1      30.720  -6.595  30.197  1.00  0.00     0.159 C 
HETATM   10  C8  UNK     1      29.051  -7.940  33.488  1.00  0.00     0.045 C 
HETATM   11  C10 UNK     1      29.049  -9.257  33.176  1.00  0.00     0.018 C 
HETATM   12  C15 UNK     1      28.402 -10.352  33.982  1.00  0.00     0.069 C 
HETATM   13  H7  UNK     1      29.630 -10.674  31.794  1.00  0.00     0.165 HD
ENDROOT
BRANCH  10  14
HETATM   14  C12 UNK     1      28.399  -7.417  34.700  1.00  0.00     0.255 C 
HETATM   15  O3  UNK     1      27.434  -6.666  34.591  1.00  0.00    -0.268 OA
HETATM   16  N2  UNK     1      29.007  -7.878  35.857  1.00  0.00    -0.321 N 
HETATM   17  H15 UNK     1      29.797  -8.511  35.760  1.00  0.00     0.169 HD
BRANCH  16  18
HETATM   18  C24 UNK     1      28.647  -7.583  37.194  1.00  0.00     0.068 A 
HETATM   19  C28 UNK     1      27.878  -8.480  37.918  1.00  0.00     0.095 A 
HETATM   20  C32 UNK     1      27.532  -8.175  39.234  1.00  0.00     0.039 A 
HETATM   21  C34 UNK     1      27.960  -6.978  39.808  1.00  0.00     0.003 A 
HETATM   22  C33 UNK     1      28.733  -6.085  39.067  1.00  0.00     0.002 A 
HETATM   23  C29 UNK     1      29.080  -6.390  37.750  1.00  0.00     0.032 A 
BRANCH  19  24
HETATM   24  O7  UNK     1      27.450  -9.654  37.375  1.00  0.00    -0.354 OA
HETATM   25  C35 UNK     1      26.080  -9.726  36.985  1.00  0.00     0.210 C 
ENDBRANCH  19  24
ENDBRANCH  16  18
ENDBRANCH  10  14
BRANCH   6  26
HETATM   26  C11 UNK     1      30.878  -6.254  33.321  1.00  0.00     0.029 A 
HETATM   27  C16 UNK     1      31.985  -7.110  33.817  1.00  0.00     0.194 A 
HETATM   28  O4  UNK     1      31.997  -8.321  33.648  1.00  0.00    -0.287 OA
HETATM   29  C19 UNK     1      33.076  -6.419  34.529  1.00  0.00     0.048 A 
HETATM   30  C22 UNK     1      33.009  -5.035  34.692  1.00  0.00     0.089 A 
HETATM   31  C23 UNK     1      34.164  -7.136  35.034  1.00  0.00     0.018 A 
HETATM   32  O2  UNK     1      31.967  -4.281  34.217  1.00  0.00    -0.321 OA
HETATM   33  C25 UNK     1      34.031  -4.360  35.362  1.00  0.00     0.038 A 
HETATM   34  C17 UNK     1      30.957  -4.939  33.556  1.00  0.00     0.154 A 
HETATM   35  C27 UNK     1      35.118  -5.074  35.868  1.00  0.00     0.003 A 
HETATM   36  C26 UNK     1      35.184  -6.459  35.704  1.00  0.00     0.001 A 
ENDBRANCH   6  26
BRANCH   3  37
HETATM   37  C9  UNK     1      33.154  -8.814  29.747  1.00  0.00    -0.050 A 
HETATM   38  C13 UNK     1      33.966  -7.704  29.971  1.00  0.00     0.047 A 
HETATM   39  C18 UNK     1      35.215  -7.865  30.571  1.00  0.00     0.102 A 
HETATM   40  C21 UNK     1      35.649  -9.136  30.947  1.00  0.00     0.101 A 
HETATM   41  C20 UNK     1      34.833 -10.246  30.723  1.00  0.00     0.040 A 
HETATM   42  C14 UNK     1      33.585 -10.085  30.122  1.00  0.00     0.010 A 
BRANCH  39  43
HETATM   43  O5  UNK     1      36.001  -6.774  30.785  1.00  0.00    -0.353 OA
HETATM   44  C30 UNK     1      35.825  -6.081  32.019  1.00  0.00     0.210 C 
ENDBRANCH  39  43
BRANCH  40  45
HETATM   45  O6  UNK     1      36.866  -9.307  31.535  1.00  0.00    -0.353 OA
HETATM   46  C31 UNK     1      36.879  -9.532  32.943  1.00  0.00     0.210 C 
ENDBRANCH  40  45
ENDBRANCH   3  37
TORSDOF 7
ENDMDL
MODEL 5
REMARK VINA RESULT:      -8.2      2.450      4.688
REMARK  7 active torsions:
REMARK  status: ('A' for Active; 'I' for Inactive)
REMARK    1  A    between atoms: C18_27  and  O5_5 
REMARK    2  A    between atoms: C21_30  and  O6_6 
REMARK    3  A    between atoms: C28_37  and  O7_7 
REMARK       I    between atoms: C12_21  and  N2_9 
REMARK    4  A    between atoms: C24_33  and  N2_9 
REMARK    5  A    between atoms: C1_10  and  C9_18 
REMARK    6  A    between atoms: C11_20  and  C4_13 
REMARK    7  A    between atoms: C12_21  and  C8_17 
ROOT
HETATM    1  O1  UNK     1      31.286  -7.246  31.652  1.00  0.00    -0.293 OA
HETATM    2  N1  UNK     1      34.748  -6.421  34.765  1.00  0.00    -0.362 N 
HETATM    3  C1  UNK     1      31.143  -5.353  34.800  1.00  0.00     0.031 C 
HETATM    4  C2  UNK     1      32.661  -5.136  34.933  1.00  0.00     0.067 C 
HETATM    5  C3  UNK     1      33.007  -6.977  33.260  1.00  0.00     0.024 C 
HETATM    6  C4  UNK     1      33.850  -8.094  32.657  1.00  0.00     0.104 C 
HETATM    7  C5  UNK     1      33.471  -6.224  34.278  1.00  0.00     0.021 C 
HETATM    8  C6  UNK     1      30.793  -5.623  33.332  1.00  0.00     0.093 C 
HETATM    9  C7  UNK     1      31.664  -6.678  32.676  1.00  0.00     0.159 C 
HETATM   10  C8  UNK     1      35.281  -8.116  33.200  1.00  0.00     0.045 C 
HETATM   11  C10 UNK     1      35.662  -7.309  34.218  1.00  0.00     0.018 C 
HETATM   12  C15 UNK     1      37.039  -7.244  34.823  1.00  0.00     0.069 C 
HETATM   13  H7  UNK     1      35.065  -5.826  35.521  1.00  0.00     0.165 HD
ENDROOT
BRANCH  10  14
HETATM   14  C12 UNK     1      36.210  -9.057  32.552  1.00  0.00     0.255 C 
HETATM   15  O3  UNK     1      36.646  -8.803  31.433  1.00  0.00    -0.268 OA
HETATM   16  N2  UNK     1      36.472 -10.160  33.350  1.00  0.00    -0.321 N 
HETATM   17  H15 UNK     1      36.028 -10.203  34.264  1.00  0.00     0.169 HD
BRANCH  16  18
HETATM   18  C24 UNK     1      37.314 -11.258  33.050  1.00  0.00     0.068 A 
HETATM   19  C28 UNK     1      36.763 -12.504  32.797  1.00  0.00     0.095 A 
HETATM   20  C32 UNK     1      37.604 -13.576  32.503  1.00  0.00     0.039 A 
HETATM   21  C34 UNK     1      38.986 -13.387  32.465  1.00  0.00     0.003 A 
HETATM   22  C33 UNK     1      39.526 -12.127  32.721  1.00  0.00     0.002 A 
HETATM   23  C29 UNK     1      38.684 -11.055  33.016  1.00  0.00     0.032 A 
BRANCH  19  24
HETATM   24  O7  UNK     1      35.416 -12.709  32.830  1.00  0.00    -0.354 OA
HETATM   25  C35 UNK     1      34.958 -14.046  32.640  1.00  0.00     0.210 C 
ENDBRANCH  19  24
ENDBRANCH  16  18
ENDBRANCH  10  14
BRANCH   6  26
HETATM   26  C11 UNK     1      33.185  -9.425  32.886  1.00  0.00     0.029 A 
HETATM   27  C16 UNK     1      32.874 -10.274  31.708  1.00  0.00     0.194 A 
HETATM   28  O4  UNK     1      33.142  -9.926  30.566  1.00  0.00    -0.287 OA
HETATM   29  C19 UNK     1      32.222 -11.567  31.988  1.00  0.00     0.048 A 
HETATM   30  C22 UNK     1      31.941 -11.912  33.311  1.00  0.00     0.089 A 
HETATM   31  C23 UNK     1      31.889 -12.437  30.947  1.00  0.00     0.018 A 
HETATM   32  O2  UNK     1      32.246 -11.097  34.371  1.00  0.00    -0.321 OA
HETATM   33  C25 UNK     1      31.325 -13.131  33.599  1.00  0.00     0.038 A 
HETATM   34  C17 UNK     1      32.853  -9.896  34.095  1.00  0.00     0.154 A 
HETATM   35  C27 UNK     1      30.991 -14.002  32.561  1.00  0.00     0.003 A 
HETATM   36  C26 UNK     1      31.273 -13.656  31.238  1.00  0.00     0.001 A 
ENDBRANCH   6  26
BRANCH   3  37
HETATM   37  C9  UNK     1      30.627  -6.365  35.819  1.00  0.00    -0.050 A 
HETATM   38  C13 UNK     1      29.906  -7.477  35.390  1.00  0.00     0.047 A 
HETATM   39  C18 UNK     1      29.433  -8.402  36.321  1.00  0.00     0.102 A 
HETATM   40  C21 UNK     1      29.684  -8.212  37.680  1.00  0.00     0.101 A 
HETATM   41  C20 UNK     1      30.407  -7.099  38.107  1.00  0.00     0.040 A 
HETATM   42  C14 UNK     1      30.879  -6.173  37.176  1.00  0.00     0.010 A 
BRANCH  39  43
HETATM   43  O5  UNK     1      28.729  -9.485  35.892  1.00  0.00    -0.353 OA
HETATM   44  C30 UNK     1      28.898  -9.869  34.529  1.00  0.00     0.210 C 
ENDBRANCH  39  43
BRANCH  40  45
HETATM   45  O6  UNK     1      29.229  -9.109  38.600  1.00  0.00    -0.353 OA
HETATM   46  C31 UNK     1      28.001  -8.799  39.254  1.00  0.00     0.210 C 
ENDBRANCH  40  45
ENDBRANCH   3  37
TORSDOF 7
ENDMDL
MODEL 6
REMARK VINA RESULT:      -8.0      1.669      2.067
REMARK  7 active torsions:
REMARK  status: ('A' for Active; 'I' for Inactive)
REMARK    1  A    between atoms: C18_27  and  O5_5 
REMARK    2  A    between atoms: C21_30  and  O6_6 
REMARK    3  A    between atoms: C28_37  and  O7_7 
REMARK       I    between atoms: C12_21  and  N2_9 
REMARK    4  A    between atoms: C24_33  and  N2_9 
REMARK    5  A    between atoms: C1_10  and  C9_18 
REMARK    6  A    between atoms: C11_20  and  C4_13 
REMARK    7  A    between atoms: C12_21  and  C8_17 
ROOT
HETATM    1  O1  UNK     1      35.234  -6.091  31.330  1.00  0.00    -0.293 OA
HETATM    2  N1  UNK     1      37.104  -9.478  34.048  1.00  0.00    -0.362 N 
HETATM    3  C1  UNK     1      35.648  -6.140  34.982  1.00  0.00     0.031 C 
HETATM    4  C2  UNK     1      36.709  -7.254  35.014  1.00  0.00     0.067 C 
HETATM    5  C3  UNK     1      36.043  -7.868  32.672  1.00  0.00     0.024 C 
HETATM    6  C4  UNK     1      35.914  -8.882  31.542  1.00  0.00     0.104 C 
HETATM    7  C5  UNK     1      36.596  -8.209  33.855  1.00  0.00     0.021 C 
HETATM    8  C6  UNK     1      35.647  -5.476  33.600  1.00  0.00     0.093 C 
HETATM    9  C7  UNK     1      35.596  -6.461  32.446  1.00  0.00     0.159 C 
HETATM   10  C8  UNK     1      36.631 -10.201  31.843  1.00  0.00     0.045 C 
HETATM   11  C10 UNK     1      37.172 -10.448  33.059  1.00  0.00     0.018 C 
HETATM   12  C15 UNK     1      37.902 -11.703  33.461  1.00  0.00     0.069 C 
HETATM   13  H7  UNK     1      37.524  -9.690  34.945  1.00  0.00     0.165 HD
ENDROOT
BRANCH  10  14
HETATM   14  C12 UNK     1      36.697 -11.174  30.740  1.00  0.00     0.255 C 
HETATM   15  O3  UNK     1      37.335 -10.899  29.728  1.00  0.00    -0.268 OA
HETATM   16  N2  UNK     1      35.986 -12.330  31.024  1.00  0.00    -0.321 N 
HETATM   17  H15 UNK     1      35.522 -12.394  31.927  1.00  0.00     0.169 HD
BRANCH  16  18
HETATM   18  C24 UNK     1      35.833 -13.470  30.199  1.00  0.00     0.068 A 
HETATM   19  C28 UNK     1      34.699 -13.610  29.415  1.00  0.00     0.095 A 
HETATM   20  C32 UNK     1      34.562 -14.738  28.607  1.00  0.00     0.039 A 
HETATM   21  C34 UNK     1      35.562 -15.711  28.593  1.00  0.00     0.003 A 
HETATM   22  C33 UNK     1      36.698 -15.556  29.386  1.00  0.00     0.002 A 
HETATM   23  C29 UNK     1      36.835 -14.427  30.195  1.00  0.00     0.032 A 
BRANCH  19  24
HETATM   24  O7  UNK     1      33.711 -12.672  29.416  1.00  0.00    -0.354 OA
HETATM   25  C35 UNK     1      32.553 -12.949  30.202  1.00  0.00     0.210 C 
ENDBRANCH  19  24
ENDBRANCH  16  18
ENDBRANCH  10  14
BRANCH   6  26
HETATM   26  C11 UNK     1      34.462  -9.136  31.237  1.00  0.00     0.029 A 
HETATM   27  C16 UNK     1      33.954  -8.803  29.882  1.00  0.00     0.194 A 
HETATM   28  O4  UNK     1      34.677  -8.333  29.013  1.00  0.00    -0.287 OA
HETATM   29  C19 UNK     1      32.525  -9.069  29.636  1.00  0.00     0.048 A 
HETATM   30  C22 UNK     1      31.749  -9.606  30.664  1.00  0.00     0.089 A 
HETATM   31  C23 UNK     1      31.952  -8.790  28.393  1.00  0.00     0.018 A 
HETATM   32  O2  UNK     1      32.259  -9.899  31.903  1.00  0.00    -0.321 OA
HETATM   33  C25 UNK     1      30.394  -9.867  30.453  1.00  0.00     0.038 A 
HETATM   34  C17 UNK     1      33.592  -9.645  32.117  1.00  0.00     0.154 A 
HETATM   35  C27 UNK     1      29.819  -9.589  29.213  1.00  0.00     0.003 A 
HETATM   36  C26 UNK     1      30.596  -9.052  28.185  1.00  0.00     0.001 A 
ENDBRANCH   6  26
BRANCH   3  37
HETATM   37  C9  UNK     1      34.300  -6.629  35.503  1.00  0.00    -0.050 A 
HETATM   38  C13 UNK     1      33.135  -6.335  34.798  1.00  0.00     0.047 A 
HETATM   39  C18 UNK     1      31.902  -6.782  35.273  1.00  0.00     0.102 A 
HETATM   40  C21 UNK     1      31.837  -7.522  36.454  1.00  0.00     0.101 A 
HETATM   41  C20 UNK     1      33.005  -7.816  37.158  1.00  0.00     0.040 A 
HETATM   42  C14 UNK     1      34.238  -7.368  36.682  1.00  0.00     0.010 A 
BRANCH  39  43
HETATM   43  O5  UNK     1      30.769  -6.490  34.577  1.00  0.00    -0.353 OA
HETATM   44  C30 UNK     1      30.523  -7.246  33.393  1.00  0.00     0.210 C 
ENDBRANCH  39  43
BRANCH  40  45
HETATM   45  O6  UNK     1      30.640  -7.965  36.929  1.00  0.00    -0.353 OA
HETATM   46  C31 UNK     1      30.174  -7.393  38.148  1.00  0.00     0.210 C 
ENDBRANCH  40  45
ENDBRANCH   3  37
TORSDOF 7
ENDMDL
MODEL 7
REMARK VINA RESULT:      -8.0      2.648      8.263
REMARK  7 active torsions:
REMARK  status: ('A' for Active; 'I' for Inactive)
REMARK    1  A    between atoms: C18_27  and  O5_5 
REMARK    2  A    between atoms: C21_30  and  O6_6 
REMARK    3  A    between atoms: C28_37  and  O7_7 
REMARK       I    between atoms: C12_21  and  N2_9 
REMARK    4  A    between atoms: C24_33  and  N2_9 
REMARK    5  A    between atoms: C1_10  and  C9_18 
REMARK    6  A    between atoms: C11_20  and  C4_13 
REMARK    7  A    between atoms: C12_21  and  C8_17 
ROOT
HETATM    1  O1  UNK     1      31.826  -7.507  30.262  1.00  0.00    -0.293 OA
HETATM    2  N1  UNK     1      29.220 -10.577  32.741  1.00  0.00    -0.362 N 
HETATM    3  C1  UNK     1      31.688 -11.168  29.967  1.00  0.00     0.031 C 
HETATM    4  C2  UNK     1      30.344 -11.344  30.695  1.00  0.00     0.067 C 
HETATM    5  C3  UNK     1      30.616  -9.025  31.621  1.00  0.00     0.024 C 
HETATM    6  C4  UNK     1      30.345  -7.973  32.689  1.00  0.00     0.104 C 
HETATM    7  C5  UNK     1      30.075 -10.258  31.704  1.00  0.00     0.021 C 
HETATM    8  C6  UNK     1      31.789  -9.740  29.418  1.00  0.00     0.093 C 
HETATM    9  C7  UNK     1      31.452  -8.667  30.436  1.00  0.00     0.159 C 
HETATM   10  C8  UNK     1      29.286  -8.414  33.702  1.00  0.00     0.045 C 
HETATM   11  C10 UNK     1      28.787  -9.672  33.698  1.00  0.00     0.018 C 
HETATM   12  C15 UNK     1      27.742 -10.209  34.640  1.00  0.00     0.069 C 
HETATM   13  H7  UNK     1      28.823 -11.509  32.759  1.00  0.00     0.165 HD
ENDROOT
BRANCH  10  14
HETATM   14  C12 UNK     1      28.845  -7.396  34.670  1.00  0.00     0.255 C 
HETATM   15  O3  UNK     1      27.853  -6.715  34.423  1.00  0.00    -0.268 OA
HETATM   16  N2  UNK     1      29.664  -7.352  35.787  1.00  0.00    -0.321 N 
HETATM   17  H15 UNK     1      30.444  -8.004  35.832  1.00  0.00     0.169 HD
BRANCH  16  18
HETATM   18  C24 UNK     1      29.541  -6.501  36.912  1.00  0.00     0.068 A 
HETATM   19  C28 UNK     1      28.792  -6.903  38.006  1.00  0.00     0.095 A 
HETATM   20  C32 UNK     1      28.679  -6.054  39.106  1.00  0.00     0.039 A 
HETATM   21  C34 UNK     1      29.319  -4.814  39.097  1.00  0.00     0.003 A 
HETATM   22  C33 UNK     1      30.070  -4.423  37.989  1.00  0.00     0.002 A 
HETATM   23  C29 UNK     1      30.182  -5.272  36.888  1.00  0.00     0.032 A 
BRANCH  19  24
HETATM   24  O7  UNK     1      28.160  -8.110  38.033  1.00  0.00    -0.354 OA
HETATM   25  C35 UNK     1      26.746  -8.105  37.845  1.00  0.00     0.210 C 
ENDBRANCH  19  24
ENDBRANCH  16  18
ENDBRANCH  10  14
BRANCH   6  26
HETATM   26  C11 UNK     1      31.625  -7.613  33.396  1.00  0.00     0.029 A 
HETATM   27  C16 UNK     1      31.880  -6.185  33.716  1.00  0.00     0.194 A 
HETATM   28  O4  UNK     1      31.086  -5.301  33.424  1.00  0.00    -0.287 OA
HETATM   29  C19 UNK     1      33.148  -5.887  34.407  1.00  0.00     0.048 A 
HETATM   30  C22 UNK     1      34.015  -6.936  34.716  1.00  0.00     0.089 A 
HETATM   31  C23 UNK     1      33.480  -4.575  34.751  1.00  0.00     0.018 A 
HETATM   32  O2  UNK     1      33.740  -8.243  34.402  1.00  0.00    -0.321 OA
HETATM   33  C25 UNK     1      35.220  -6.677  35.370  1.00  0.00     0.038 A 
HETATM   34  C17 UNK     1      32.555  -8.505  33.757  1.00  0.00     0.154 A 
HETATM   35  C27 UNK     1      35.554  -5.367  35.715  1.00  0.00     0.003 A 
HETATM   36  C26 UNK     1      34.686  -4.318  35.406  1.00  0.00     0.001 A 
ENDBRANCH   6  26
BRANCH   3  37
HETATM   37  C9  UNK     1      32.858 -11.655  30.817  1.00  0.00    -0.050 A 
HETATM   38  C13 UNK     1      34.071 -10.970  30.786  1.00  0.00     0.047 A 
HETATM   39  C18 UNK     1      35.141 -11.414  31.563  1.00  0.00     0.102 A 
HETATM   40  C21 UNK     1      34.995 -12.542  32.370  1.00  0.00     0.101 A 
HETATM   41  C20 UNK     1      33.780 -13.226  32.400  1.00  0.00     0.040 A 
HETATM   42  C14 UNK     1      32.710 -12.782  31.622  1.00  0.00     0.010 A 
BRANCH  39  43
HETATM   43  O5  UNK     1      36.322 -10.738  31.525  1.00  0.00    -0.353 OA
HETATM   44  C30 UNK     1      36.302  -9.374  31.943  1.00  0.00     0.210 C 
ENDBRANCH  39  43
BRANCH  40  45
HETATM   45  O6  UNK     1      36.032 -12.986  33.134  1.00  0.00    -0.353 OA
HETATM   46  C31 UNK     1      36.134 -14.394  33.334  1.00  0.00     0.210 C 
ENDBRANCH  40  45
ENDBRANCH   3  37
TORSDOF 7
ENDMDL
MODEL 8
REMARK VINA RESULT:      -7.7      2.669      8.396
REMARK  7 active torsions:
REMARK  status: ('A' for Active; 'I' for Inactive)
REMARK    1  A    between atoms: C18_27  and  O5_5 
REMARK    2  A    between atoms: C21_30  and  O6_6 
REMARK    3  A    between atoms: C28_37  and  O7_7 
REMARK       I    between atoms: C12_21  and  N2_9 
REMARK    4  A    between atoms: C24_33  and  N2_9 
REMARK    5  A    between atoms: C1_10  and  C9_18 
REMARK    6  A    between atoms: C11_20  and  C4_13 
REMARK    7  A    between atoms: C12_21  and  C8_17 
ROOT
HETATM    1  O1  UNK     1      30.786  -6.704  30.252  1.00  0.00    -0.293 OA
HETATM    2  N1  UNK     1      29.153 -10.136  33.065  1.00  0.00    -0.362 N 
HETATM    3  C1  UNK     1      31.216 -10.340  29.928  1.00  0.00     0.031 C 
HETATM    4  C2  UNK     1      30.051 -10.729  30.857  1.00  0.00     0.067 C 
HETATM    5  C3  UNK     1      30.076  -8.387  31.762  1.00  0.00     0.024 C 
HETATM    6  C4  UNK     1      29.806  -7.382  32.876  1.00  0.00     0.104 C 
HETATM    7  C5  UNK     1      29.768  -9.692  31.911  1.00  0.00     0.021 C 
HETATM    8  C6  UNK     1      30.989  -8.922  29.392  1.00  0.00     0.093 C 
HETATM    9  C7  UNK     1      30.643  -7.908  30.466  1.00  0.00     0.159 C 
HETATM   10  C8  UNK     1      29.009  -7.982  34.037  1.00  0.00     0.045 C 
HETATM   11  C10 UNK     1      28.732  -9.306  34.093  1.00  0.00     0.018 C 
HETATM   12  C15 UNK     1      27.954  -9.998  35.179  1.00  0.00     0.069 C 
HETATM   13  H7  UNK     1      28.925 -11.121  33.132  1.00  0.00     0.165 HD
ENDROOT
BRANCH  10  14
HETATM   14  C12 UNK     1      28.563  -7.040  35.077  1.00  0.00     0.255 C 
HETATM   15  O3  UNK     1      27.450  -6.529  34.994  1.00  0.00    -0.268 OA
HETATM   16  N2  UNK     1      29.525  -6.857  36.059  1.00  0.00    -0.321 N 
HETATM   17  H15 UNK     1      30.396  -7.375  35.974  1.00  0.00     0.169 HD
BRANCH  16  18
HETATM   18  C24 UNK     1      29.439  -6.028  37.203  1.00  0.00     0.068 A 
HETATM   19  C28 UNK     1      28.727  -6.452  38.313  1.00  0.00     0.095 A 
HETATM   20  C32 UNK     1      28.650  -5.625  39.433  1.00  0.00     0.039 A 
HETATM   21  C34 UNK     1      29.289  -4.385  39.428  1.00  0.00     0.003 A 
HETATM   22  C33 UNK     1      30.003  -3.972  38.303  1.00  0.00     0.002 A 
HETATM   23  C29 UNK     1      30.079  -4.799  37.182  1.00  0.00     0.032 A 
BRANCH  19  24
HETATM   24  O7  UNK     1      28.095  -7.660  38.337  1.00  0.00    -0.354 OA
HETATM   25  C35 UNK     1      26.669  -7.646  38.324  1.00  0.00     0.210 C 
ENDBRANCH  19  24
ENDBRANCH  16  18
ENDBRANCH  10  14
BRANCH   6  26
HETATM   26  C11 UNK     1      31.103  -6.805  33.377  1.00  0.00     0.029 A 
HETATM   27  C16 UNK     1      32.194  -7.739  33.755  1.00  0.00     0.194 A 
HETATM   28  O4  UNK     1      32.070  -8.953  33.672  1.00  0.00    -0.287 OA
HETATM   29  C19 UNK     1      33.442  -7.122  34.241  1.00  0.00     0.048 A 
HETATM   30  C22 UNK     1      33.528  -5.732  34.316  1.00  0.00     0.089 A 
HETATM   31  C23 UNK     1      34.528  -7.916  34.622  1.00  0.00     0.018 A 
HETATM   32  O2  UNK     1      32.495  -4.904  33.955  1.00  0.00    -0.321 OA
HETATM   33  C25 UNK     1      34.700  -5.127  34.772  1.00  0.00     0.038 A 
HETATM   34  C17 UNK     1      31.338  -5.494  33.505  1.00  0.00     0.154 A 
HETATM   35  C27 UNK     1      35.785  -5.917  35.154  1.00  0.00     0.003 A 
HETATM   36  C26 UNK     1      35.699  -7.308  35.078  1.00  0.00     0.001 A 
ENDBRANCH   6  26
BRANCH   3  37
HETATM   37  C9  UNK     1      32.570 -10.615  30.576  1.00  0.00    -0.050 A 
HETATM   38  C13 UNK     1      32.765 -11.784  31.308  1.00  0.00     0.047 A 
HETATM   39  C18 UNK     1      34.002 -12.036  31.901  1.00  0.00     0.102 A 
HETATM   40  C21 UNK     1      35.042 -11.116  31.761  1.00  0.00     0.101 A 
HETATM   41  C20 UNK     1      34.844  -9.947  31.027  1.00  0.00     0.040 A 
HETATM   42  C14 UNK     1      33.606  -9.695  30.435  1.00  0.00     0.010 A 
BRANCH  39  43
HETATM   43  O5  UNK     1      34.183 -13.182  32.614  1.00  0.00    -0.353 OA
HETATM   44  C30 UNK     1      33.497 -14.345  32.155  1.00  0.00     0.210 C 
ENDBRANCH  39  43
BRANCH  40  45
HETATM   45  O6  UNK     1      36.255 -11.351  32.334  1.00  0.00    -0.353 OA
HETATM   46  C31 UNK     1      36.755 -10.354  33.223  1.00  0.00     0.210 C 
ENDBRANCH  40  45
ENDBRANCH   3  37
TORSDOF 7
ENDMDL
MODEL 9
REMARK VINA RESULT:      -7.7      2.486      4.766
REMARK  7 active torsions:
REMARK  status: ('A' for Active; 'I' for Inactive)
REMARK    1  A    between atoms: C18_27  and  O5_5 
REMARK    2  A    between atoms: C21_30  and  O6_6 
REMARK    3  A    between atoms: C28_37  and  O7_7 
REMARK       I    between atoms: C12_21  and  N2_9 
REMARK    4  A    between atoms: C24_33  and  N2_9 
REMARK    5  A    between atoms: C1_10  and  C9_18 
REMARK    6  A    between atoms: C11_20  and  C4_13 
REMARK    7  A    between atoms: C12_21  and  C8_17 
ROOT
HETATM    1  O1  UNK     1      31.385  -7.436  31.282  1.00  0.00    -0.293 OA
HETATM    2  N1  UNK     1      35.033  -6.823  34.228  1.00  0.00    -0.362 N 
HETATM    3  C1  UNK     1      31.477  -5.631  34.483  1.00  0.00     0.031 C 
HETATM    4  C2  UNK     1      33.006  -5.471  34.541  1.00  0.00     0.067 C 
HETATM    5  C3  UNK     1      33.196  -7.274  32.803  1.00  0.00     0.024 C 
HETATM    6  C4  UNK     1      33.965  -8.402  32.126  1.00  0.00     0.104 C 
HETATM    7  C5  UNK     1      33.740  -6.568  33.815  1.00  0.00     0.021 C 
HETATM    8  C6  UNK     1      31.040  -5.846  33.029  1.00  0.00     0.093 C 
HETATM    9  C7  UNK     1      31.836  -6.912  32.300  1.00  0.00     0.159 C 
HETATM   10  C8  UNK     1      35.421  -8.490  32.591  1.00  0.00     0.045 C 
HETATM   11  C10 UNK     1      35.884  -7.727  33.609  1.00  0.00     0.018 C 
HETATM   12  C15 UNK     1      37.293  -7.727  34.140  1.00  0.00     0.069 C 
HETATM   13  H7  UNK     1      35.411  -6.262  34.981  1.00  0.00     0.165 HD
ENDROOT
BRANCH  10  14
HETATM   14  C12 UNK     1      36.280  -9.444  31.870  1.00  0.00     0.255 C 
HETATM   15  O3  UNK     1      36.718  -9.146  30.762  1.00  0.00    -0.268 OA
HETATM   16  N2  UNK     1      36.480 -10.611  32.591  1.00  0.00    -0.321 N 
HETATM   17  H15 UNK     1      36.046 -10.684  33.508  1.00  0.00     0.169 HD
BRANCH  16  18
HETATM   18  C24 UNK     1      37.246 -11.738  32.208  1.00  0.00     0.068 A 
HETATM   19  C28 UNK     1      38.629 -11.694  32.286  1.00  0.00     0.095 A 
HETATM   20  C32 UNK     1      39.370 -12.812  31.905  1.00  0.00     0.039 A 
HETATM   21  C34 UNK     1      38.718 -13.960  31.453  1.00  0.00     0.003 A 
HETATM   22  C33 UNK     1      37.326 -13.989  31.382  1.00  0.00     0.002 A 
HETATM   23  C29 UNK     1      36.584 -12.870  31.762  1.00  0.00     0.032 A 
BRANCH  19  24
HETATM   24  O7  UNK     1      39.284 -10.582  32.724  1.00  0.00    -0.354 OA
HETATM   25  C35 UNK     1      40.693 -10.533  32.508  1.00  0.00     0.210 C 
ENDBRANCH  19  24
ENDBRANCH  16  18
ENDBRANCH  10  14
BRANCH   6  26
HETATM   26  C11 UNK     1      33.265  -9.715  32.355  1.00  0.00     0.029 A 
HETATM   27  C16 UNK     1      32.989 -10.584  31.183  1.00  0.00     0.194 A 
HETATM   28  O4  UNK     1      33.312 -10.266  30.046  1.00  0.00    -0.287 OA
HETATM   29  C19 UNK     1      32.300 -11.858  31.461  1.00  0.00     0.048 A 
HETATM   30  C22 UNK     1      31.955 -12.168  32.777  1.00  0.00     0.089 A 
HETATM   31  C23 UNK     1      31.996 -12.745  30.426  1.00  0.00     0.018 A 
HETATM   32  O2  UNK     1      32.229 -11.336  33.832  1.00  0.00    -0.321 OA
HETATM   33  C25 UNK     1      31.303 -13.369  33.064  1.00  0.00     0.038 A 
HETATM   34  C17 UNK     1      32.871 -10.152  33.557  1.00  0.00     0.154 A 
HETATM   35  C27 UNK     1      30.998 -14.256  32.032  1.00  0.00     0.003 A 
HETATM   36  C26 UNK     1      31.343 -13.945  30.716  1.00  0.00     0.001 A 
ENDBRANCH   6  26
BRANCH   3  37
HETATM   37  C9  UNK     1      30.978  -6.653  35.501  1.00  0.00    -0.050 A 
HETATM   38  C13 UNK     1      30.318  -7.801  35.067  1.00  0.00     0.047 A 
HETATM   39  C18 UNK     1      29.862  -8.735  35.997  1.00  0.00     0.102 A 
HETATM   40  C21 UNK     1      30.067  -8.519  37.359  1.00  0.00     0.101 A 
HETATM   41  C20 UNK     1      30.728  -7.369  37.791  1.00  0.00     0.040 A 
HETATM   42  C14 UNK     1      31.183  -6.435  36.862  1.00  0.00     0.010 A 
BRANCH  39  43
HETATM   43  O5  UNK     1      29.219  -9.854  35.562  1.00  0.00    -0.353 OA
HETATM   44  C30 UNK     1      28.962  -9.951  34.163  1.00  0.00     0.210 C 
ENDBRANCH  39  43
BRANCH  40  45
HETATM   45  O6  UNK     1      29.627  -9.424  38.278  1.00  0.00    -0.353 OA
HETATM   46  C31 UNK     1      28.380  -9.150  38.913  1.00  0.00     0.210 C 
ENDBRANCH  40  45
ENDBRANCH   3  37
TORSDOF 7
ENDMDL
MODEL 10
REMARK VINA RESULT:      -7.6      1.853      2.796
REMARK  7 active torsions:
REMARK  status: ('A' for Active; 'I' for Inactive)
REMARK    1  A    between atoms: C18_27  and  O5_5 
REMARK    2  A    between atoms: C21_30  and  O6_6 
REMARK    3  A    between atoms: C28_37  and  O7_7 
REMARK       I    between atoms: C12_21  and  N2_9 
REMARK    4  A    between atoms: C24_33  and  N2_9 
REMARK    5  A    between atoms: C1_10  and  C9_18 
REMARK    6  A    between atoms: C11_20  and  C4_13 
REMARK    7  A    between atoms: C12_21  and  C8_17 
ROOT
HETATM    1  O1  UNK     1      33.950  -9.469  29.527  1.00  0.00    -0.293 OA
HETATM    2  N1  UNK     1      34.691 -12.242  33.286  1.00  0.00    -0.362 N 
HETATM    3  C1  UNK     1      36.024  -8.817  32.491  1.00  0.00     0.031 C 
HETATM    4  C2  UNK     1      36.135 -10.284  32.943  1.00  0.00     0.067 C 
HETATM    5  C3  UNK     1      34.182 -10.822  31.459  1.00  0.00     0.024 C 
HETATM    6  C4  UNK     1      32.972 -11.677  31.099  1.00  0.00     0.104 C 
HETATM    7  C5  UNK     1      34.954 -11.120  32.524  1.00  0.00     0.021 C 
HETATM    8  C6  UNK     1      35.698  -8.768  30.994  1.00  0.00     0.093 C 
HETATM    9  C7  UNK     1      34.546  -9.666  30.586  1.00  0.00     0.159 C 
HETATM   10  C8  UNK     1      32.875 -12.952  31.942  1.00  0.00     0.045 C 
HETATM   11  C10 UNK     1      33.708 -13.173  32.986  1.00  0.00     0.018 C 
HETATM   12  C15 UNK     1      33.705 -14.389  33.873  1.00  0.00     0.069 C 
HETATM   13  H7  UNK     1      35.303 -12.439  34.068  1.00  0.00     0.165 HD
ENDROOT
BRANCH  10  14
HETATM   14  C12 UNK     1      31.832 -13.915  31.549  1.00  0.00     0.255 C 
HETATM   15  O3  UNK     1      30.650 -13.603  31.658  1.00  0.00    -0.268 OA
HETATM   16  N2  UNK     1      32.372 -15.104  31.086  1.00  0.00    -0.321 N 
HETATM   17  H15 UNK     1      33.386 -15.186  31.052  1.00  0.00     0.169 HD
BRANCH  16  18
HETATM   18  C24 UNK     1      31.672 -16.245  30.626  1.00  0.00     0.068 A 
HETATM   19  C28 UNK     1      31.220 -17.191  31.532  1.00  0.00     0.095 A 
HETATM   20  C32 UNK     1      30.532 -18.310  31.066  1.00  0.00     0.039 A 
HETATM   21  C34 UNK     1      30.302 -18.467  29.698  1.00  0.00     0.003 A 
HETATM   22  C33 UNK     1      30.762 -17.506  28.799  1.00  0.00     0.002 A 
HETATM   23  C29 UNK     1      31.452 -16.387  29.266  1.00  0.00     0.032 A 
BRANCH  19  24
HETATM   24  O7  UNK     1      31.435 -17.057  32.871  1.00  0.00    -0.354 OA
HETATM   25  C35 UNK     1      30.283 -16.929  33.703  1.00  0.00     0.210 C 
ENDBRANCH  19  24
ENDBRANCH  16  18
ENDBRANCH  10  14
BRANCH   6  26
HETATM   26  C11 UNK     1      31.710 -10.868  31.230  1.00  0.00     0.029 A 
HETATM   27  C16 UNK     1      30.867 -10.670  30.024  1.00  0.00     0.194 A 
HETATM   28  O4  UNK     1      31.167 -11.142  28.936  1.00  0.00    -0.287 OA
HETATM   29  C19 UNK     1      29.643  -9.869  30.206  1.00  0.00     0.048 A 
HETATM   30  C22 UNK     1      29.350  -9.356  31.471  1.00  0.00     0.089 A 
HETATM   31  C23 UNK     1      28.783  -9.626  29.132  1.00  0.00     0.018 A 
HETATM   32  O2  UNK     1      30.157  -9.563  32.560  1.00  0.00    -0.321 OA
HETATM   33  C25 UNK     1      28.196  -8.595  31.667  1.00  0.00     0.038 A 
HETATM   34  C17 UNK     1      31.295 -10.311  32.374  1.00  0.00     0.154 A 
HETATM   35  C27 UNK     1      27.337  -8.351  30.595  1.00  0.00     0.003 A 
HETATM   36  C26 UNK     1      27.630  -8.865  29.331  1.00  0.00     0.001 A 
ENDBRANCH   6  26
BRANCH   3  37
HETATM   37  C9  UNK     1      35.113  -8.011  33.413  1.00  0.00    -0.050 A 
HETATM   38  C13 UNK     1      34.451  -8.645  34.462  1.00  0.00     0.047 A 
HETATM   39  C18 UNK     1      33.617  -7.909  35.305  1.00  0.00     0.102 A 
HETATM   40  C21 UNK     1      33.449  -6.540  35.096  1.00  0.00     0.101 A 
HETATM   41  C20 UNK     1      34.114  -5.908  34.046  1.00  0.00     0.040 A 
HETATM   42  C14 UNK     1      34.946  -6.644  33.203  1.00  0.00     0.010 A 
BRANCH  39  43
HETATM   43  O5  UNK     1      32.975  -8.537  36.328  1.00  0.00    -0.353 OA
HETATM   44  C30 UNK     1      31.984  -9.501  35.976  1.00  0.00     0.210 C 
ENDBRANCH  39  43
BRANCH  40  45
HETATM   45  O6  UNK     1      32.639  -5.809  35.913  1.00  0.00    -0.353 OA
HETATM   46  C31 UNK     1      31.307  -5.575  35.463  1.00  0.00     0.210 C 
ENDBRANCH  40  45
ENDBRANCH   3  37
TORSDOF 7
ENDMDL
