MODEL 1
REMARK VINA RESULT:      -7.5      0.000      0.000
REMARK  4 active torsions:
REMARK  status: ('A' for Active; 'I' for Inactive)
REMARK    1  A    between atoms: C5_10  and  O2_2 
REMARK    2  A    between atoms: C10_15  and  O3_3 
REMARK    3  A    between atoms: C11_16  and  O3_3 
REMARK    4  A    between atoms: C10_15  and  C4_9 
ROOT
HETATM    1  O1  UNK     1      18.516   1.083  31.953  1.00  0.00    -0.271 OA
HETATM    2  O4  UNK     1      17.523   1.605  33.942  1.00  0.00    -0.259 OA
HETATM    3  C1  UNK     1      19.545  -1.101  31.662  1.00  0.00     0.002 A 
HETATM    4  C2  UNK     1      19.216   0.153  31.158  1.00  0.00     0.123 A 
HETATM    5  C3  UNK     1      19.157  -1.436  33.023  1.00  0.00     0.038 A 
HETATM    6  C4  UNK     1      18.493  -0.550  33.773  1.00  0.00     0.115 A 
HETATM    7  C5  UNK     1      19.558   0.537  29.863  1.00  0.00     0.102 A 
HETATM    8  C6  UNK     1      20.238  -1.995  30.843  1.00  0.00     0.014 A 
HETATM    9  C7  UNK     1      20.249  -0.361  29.053  1.00  0.00     0.040 A 
HETATM   10  C8  UNK     1      18.132   0.790  33.258  1.00  0.00     0.304 A 
HETATM   11  C9  UNK     1      20.589  -1.624  29.541  1.00  0.00     0.004 A 
ENDROOT
BRANCH   6  12
HETATM   12  C10 UNK     1      18.146  -0.981  35.133  1.00  0.00     0.299 C 
HETATM   13  O5  UNK     1      16.998  -1.131  35.519  1.00  0.00    -0.259 OA
BRANCH  12  14
HETATM   14  O3  UNK     1      19.292  -1.169  35.833  1.00  0.00    -0.318 OA
BRANCH  14  15
HETATM   15  C11 UNK     1      19.260  -2.239  36.782  1.00  0.00     0.174 C 
HETATM   16  C12 UNK     1      19.986  -3.434  36.203  1.00  0.00     0.034 C 
ENDBRANCH  14  15
ENDBRANCH  12  14
ENDBRANCH   6  12
BRANCH   7  17
HETATM   17  O2  UNK     1      19.230   1.767  29.384  1.00  0.00    -0.353 OA
HETATM   18  C13 UNK     1      18.007   1.876  28.657  1.00  0.00     0.210 C 
ENDBRANCH   7  17
TORSDOF 4
ENDMDL
MODEL 2
REMARK VINA RESULT:      -7.4      2.507      5.349
REMARK  4 active torsions:
REMARK  status: ('A' for Active; 'I' for Inactive)
REMARK    1  A    between atoms: C5_10  and  O2_2 
REMARK    2  A    between atoms: C10_15  and  O3_3 
REMARK    3  A    between atoms: C11_16  and  O3_3 
REMARK    4  A    between atoms: C10_15  and  C4_9 
ROOT
HETATM    1  O1  UNK     1      18.775   0.653  32.621  1.00  0.00    -0.271 OA
HETATM    2  O4  UNK     1      17.907   2.502  33.644  1.00  0.00    -0.259 OA
HETATM    3  C1  UNK     1      19.429   0.771  30.282  1.00  0.00     0.002 A 
HETATM    4  C2  UNK     1      19.302   0.047  31.463  1.00  0.00     0.123 A 
HETATM    5  C3  UNK     1      19.008   2.164  30.262  1.00  0.00     0.038 A 
HETATM    6  C4  UNK     1      18.508   2.734  31.364  1.00  0.00     0.115 A 
HETATM    7  C5  UNK     1      19.686  -1.289  31.550  1.00  0.00     0.102 A 
HETATM    8  C6  UNK     1      19.957   0.136  29.156  1.00  0.00     0.014 A 
HETATM    9  C7  UNK     1      20.212  -1.915  30.422  1.00  0.00     0.040 A 
HETATM   10  C8  UNK     1      18.364   1.983  32.631  1.00  0.00     0.304 A 
HETATM   11  C9  UNK     1      20.347  -1.204  29.227  1.00  0.00     0.004 A 
ENDROOT
BRANCH   6  12
HETATM   12  C10 UNK     1      18.111   4.141  31.244  1.00  0.00     0.299 C 
HETATM   13  O5  UNK     1      17.363   4.700  32.029  1.00  0.00    -0.259 OA
BRANCH  12  14
HETATM   14  O3  UNK     1      18.711   4.668  30.146  1.00  0.00    -0.318 OA
BRANCH  14  15
HETATM   15  C11 UNK     1      19.275   5.970  30.324  1.00  0.00     0.174 C 
HETATM   16  C12 UNK     1      20.616   5.838  31.012  1.00  0.00     0.034 C 
ENDBRANCH  14  15
ENDBRANCH  12  14
ENDBRANCH   6  12
BRANCH   7  17
HETATM   17  O2  UNK     1      19.556  -1.985  32.710  1.00  0.00    -0.353 OA
HETATM   18  C13 UNK     1      20.738  -2.576  33.250  1.00  0.00     0.210 C 
ENDBRANCH   7  17
TORSDOF 4
ENDMDL
MODEL 3
REMARK VINA RESULT:      -6.9      3.259      5.381
REMARK  4 active torsions:
REMARK  status: ('A' for Active; 'I' for Inactive)
REMARK    1  A    between atoms: C5_10  and  O2_2 
REMARK    2  A    between atoms: C10_15  and  O3_3 
REMARK    3  A    between atoms: C11_16  and  O3_3 
REMARK    4  A    between atoms: C10_15  and  C4_9 
ROOT
HETATM    1  O1  UNK     1      17.902   3.427  33.260  1.00  0.00    -0.271 OA
HETATM    2  O4  UNK     1      17.908   1.332  34.171  1.00  0.00    -0.259 OA
HETATM    3  C1  UNK     1      18.756   3.759  31.008  1.00  0.00     0.002 A 
HETATM    4  C2  UNK     1      18.192   4.273  32.171  1.00  0.00     0.123 A 
HETATM    5  C3  UNK     1      19.042   2.335  30.934  1.00  0.00     0.038 A 
HETATM    6  C4  UNK     1      18.765   1.536  31.971  1.00  0.00     0.115 A 
HETATM    7  C5  UNK     1      17.893   5.627  32.306  1.00  0.00     0.102 A 
HETATM    8  C6  UNK     1      19.028   4.629  29.950  1.00  0.00     0.014 A 
HETATM    9  C7  UNK     1      18.168   6.488  31.246  1.00  0.00     0.040 A 
HETATM   10  C8  UNK     1      18.164   2.061  33.218  1.00  0.00     0.304 A 
HETATM   11  C9  UNK     1      18.735   5.991  30.070  1.00  0.00     0.004 A 
ENDROOT
BRANCH   6  12
HETATM   12  C10 UNK     1      19.090   0.115  31.801  1.00  0.00     0.299 C 
HETATM   13  O5  UNK     1      18.329  -0.790  32.102  1.00  0.00    -0.259 OA
BRANCH  12  14
HETATM   14  O3  UNK     1      20.335   0.016  31.272  1.00  0.00    -0.318 OA
BRANCH  14  15
HETATM   15  C11 UNK     1      20.556  -1.126  30.440  1.00  0.00     0.174 C 
HETATM   16  C12 UNK     1      20.576  -0.685  28.992  1.00  0.00     0.034 C 
ENDBRANCH  14  15
ENDBRANCH  12  14
ENDBRANCH   6  12
BRANCH   7  17
HETATM   17  O2  UNK     1      17.343   6.116  33.449  1.00  0.00    -0.353 OA
HETATM   18  C13 UNK     1      16.243   7.014  33.309  1.00  0.00     0.210 C 
ENDBRANCH   7  17
TORSDOF 4
ENDMDL
MODEL 4
REMARK VINA RESULT:      -6.9     12.655     15.533
REMARK  4 active torsions:
REMARK  status: ('A' for Active; 'I' for Inactive)
REMARK    1  A    between atoms: C5_10  and  O2_2 
REMARK    2  A    between atoms: C10_15  and  O3_3 
REMARK    3  A    between atoms: C11_16  and  O3_3 
REMARK    4  A    between atoms: C10_15  and  C4_9 
ROOT
HETATM    1  O1  UNK     1      19.292   1.684  17.125  1.00  0.00    -0.271 OA
HETATM    2  O4  UNK     1      19.141   0.876  14.994  1.00  0.00    -0.259 OA
HETATM    3  C1  UNK     1      19.195   0.142  19.003  1.00  0.00     0.002 A 
HETATM    4  C2  UNK     1      19.311   1.439  18.513  1.00  0.00     0.123 A 
HETATM    5  C3  UNK     1      19.053  -0.957  18.060  1.00  0.00     0.038 A 
HETATM    6  C4  UNK     1      19.034  -0.718  16.744  1.00  0.00     0.115 A 
HETATM    7  C5  UNK     1      19.451   2.534  19.362  1.00  0.00     0.102 A 
HETATM    8  C6  UNK     1      19.221  -0.061  20.384  1.00  0.00     0.014 A 
HETATM    9  C7  UNK     1      19.475   2.324  20.738  1.00  0.00     0.040 A 
HETATM   10  C8  UNK     1      19.157   0.653  16.200  1.00  0.00     0.304 A 
HETATM   11  C9  UNK     1      19.359   1.029  21.249  1.00  0.00     0.004 A 
ENDROOT
BRANCH   6  12
HETATM   12  C10 UNK     1      18.886  -1.891  15.874  1.00  0.00     0.299 C 
HETATM   13  O5  UNK     1      17.811  -2.404  15.612  1.00  0.00    -0.259 OA
BRANCH  12  14
HETATM   14  O3  UNK     1      20.116  -2.268  15.442  1.00  0.00    -0.318 OA
BRANCH  14  15
HETATM   15  C11 UNK     1      20.476  -3.621  15.731  1.00  0.00     0.174 C 
HETATM   16  C12 UNK     1      21.599  -3.628  16.746  1.00  0.00     0.034 C 
ENDBRANCH  14  15
ENDBRANCH  12  14
ENDBRANCH   6  12
BRANCH   7  17
HETATM   17  O2  UNK     1      19.562   3.797  18.869  1.00  0.00    -0.353 OA
HETATM   18  C13 UNK     1      20.873   4.250  18.534  1.00  0.00     0.210 C 
ENDBRANCH   7  17
TORSDOF 4
ENDMDL
MODEL 5
REMARK VINA RESULT:      -6.8      3.448      5.439
REMARK  4 active torsions:
REMARK  status: ('A' for Active; 'I' for Inactive)
REMARK    1  A    between atoms: C5_10  and  O2_2 
REMARK    2  A    between atoms: C10_15  and  O3_3 
REMARK    3  A    between atoms: C11_16  and  O3_3 
REMARK    4  A    between atoms: C10_15  and  C4_9 
ROOT
HETATM    1  O1  UNK     1      19.575  -1.188  34.716  1.00  0.00    -0.271 OA
HETATM    2  O4  UNK     1      20.712  -3.083  34.136  1.00  0.00    -0.259 OA
HETATM    3  C1  UNK     1      18.548  -1.029  36.914  1.00  0.00     0.002 A 
HETATM    4  C2  UNK     1      18.826  -0.471  35.671  1.00  0.00     0.123 A 
HETATM    5  C3  UNK     1      19.043  -2.364  37.213  1.00  0.00     0.038 A 
HETATM    6  C4  UNK     1      19.753  -3.040  36.303  1.00  0.00     0.115 A 
HETATM    7  C5  UNK     1      18.382   0.802  35.321  1.00  0.00     0.102 A 
HETATM    8  C6  UNK     1      17.805  -0.287  37.834  1.00  0.00     0.014 A 
HETATM    9  C7  UNK     1      17.641   1.536  36.245  1.00  0.00     0.040 A 
HETATM   10  C8  UNK     1      20.061  -2.467  34.974  1.00  0.00     0.304 A 
HETATM   11  C9  UNK     1      17.352   0.992  37.499  1.00  0.00     0.004 A 
ENDROOT
BRANCH   6  12
HETATM   12  C10 UNK     1      20.207  -4.379  36.698  1.00  0.00     0.299 C 
HETATM   13  O5  UNK     1      21.316  -4.607  37.152  1.00  0.00    -0.259 OA
BRANCH  12  14
HETATM   14  O3  UNK     1      19.203  -5.262  36.469  1.00  0.00    -0.318 OA
BRANCH  14  15
HETATM   15  C11 UNK     1      19.523  -6.333  35.576  1.00  0.00     0.174 C 
HETATM   16  C12 UNK     1      18.324  -7.249  35.455  1.00  0.00     0.034 C 
ENDBRANCH  14  15
ENDBRANCH  12  14
ENDBRANCH   6  12
BRANCH   7  17
HETATM   17  O2  UNK     1      18.660   1.335  34.102  1.00  0.00    -0.353 OA
HETATM   18  C13 UNK     1      18.195   2.660  33.850  1.00  0.00     0.210 C 
ENDBRANCH   7  17
TORSDOF 4
ENDMDL
MODEL 6
REMARK VINA RESULT:      -6.8     23.259     26.197
REMARK  4 active torsions:
REMARK  status: ('A' for Active; 'I' for Inactive)
REMARK    1  A    between atoms: C5_10  and  O2_2 
REMARK    2  A    between atoms: C10_15  and  O3_3 
REMARK    3  A    between atoms: C11_16  and  O3_3 
REMARK    4  A    between atoms: C10_15  and  C4_9 
ROOT
HETATM    1  O1  UNK     1      11.173   7.101   9.480  1.00  0.00    -0.271 OA
HETATM    2  O4  UNK     1      12.911   7.304  10.948  1.00  0.00    -0.259 OA
HETATM    3  C1  UNK     1      11.607   6.376   7.199  1.00  0.00     0.002 A 
HETATM    4  C2  UNK     1      10.714   6.782   8.186  1.00  0.00     0.123 A 
HETATM    5  C3  UNK     1      13.022   6.287   7.525  1.00  0.00     0.038 A 
HETATM    6  C4  UNK     1      13.453   6.591   8.754  1.00  0.00     0.115 A 
HETATM    7  C5  UNK     1       9.347   6.889   7.940  1.00  0.00     0.102 A 
HETATM    8  C6  UNK     1      11.113   6.067   5.930  1.00  0.00     0.014 A 
HETATM    9  C7  UNK     1       8.863   6.579   6.671  1.00  0.00     0.040 A 
HETATM   10  C8  UNK     1      12.521   7.025   9.820  1.00  0.00     0.304 A 
HETATM   11  C9  UNK     1       9.744   6.169   5.668  1.00  0.00     0.004 A 
ENDROOT
BRANCH   6  12
HETATM   12  C10 UNK     1      14.897   6.470   8.985  1.00  0.00     0.299 C 
HETATM   13  O5  UNK     1      15.509   5.420   8.886  1.00  0.00    -0.259 OA
BRANCH  12  14
HETATM   14  O3  UNK     1      15.387   7.693   9.310  1.00  0.00    -0.318 OA
BRANCH  14  15
HETATM   15  C11 UNK     1      16.508   7.685  10.198  1.00  0.00     0.174 C 
HETATM   16  C12 UNK     1      16.037   8.045  11.591  1.00  0.00     0.034 C 
ENDBRANCH  14  15
ENDBRANCH  12  14
ENDBRANCH   6  12
BRANCH   7  17
HETATM   17  O2  UNK     1       8.486   7.287   8.913  1.00  0.00    -0.353 OA
HETATM   18  C13 UNK     1       7.693   6.276   9.535  1.00  0.00     0.210 C 
ENDBRANCH   7  17
TORSDOF 4
ENDMDL
MODEL 7
REMARK VINA RESULT:      -6.7      2.104      3.531
REMARK  4 active torsions:
REMARK  status: ('A' for Active; 'I' for Inactive)
REMARK    1  A    between atoms: C5_10  and  O2_2 
REMARK    2  A    between atoms: C10_15  and  O3_3 
REMARK    3  A    between atoms: C11_16  and  O3_3 
REMARK    4  A    between atoms: C10_15  and  C4_9 
ROOT
HETATM    1  O1  UNK     1      18.765   0.514  31.695  1.00  0.00    -0.271 OA
HETATM    2  O4  UNK     1      18.814  -1.541  32.691  1.00  0.00    -0.259 OA
HETATM    3  C1  UNK     1      18.316   2.489  33.040  1.00  0.00     0.002 A 
HETATM    4  C2  UNK     1      18.594   1.908  31.807  1.00  0.00     0.123 A 
HETATM    5  C3  UNK     1      18.203   1.634  34.212  1.00  0.00     0.038 A 
HETATM    6  C4  UNK     1      18.366   0.311  34.100  1.00  0.00     0.115 A 
HETATM    7  C5  UNK     1      18.715   2.670  30.647  1.00  0.00     0.102 A 
HETATM    8  C6  UNK     1      18.155   3.874  33.111  1.00  0.00     0.014 A 
HETATM    9  C7  UNK     1      18.552   4.051  30.726  1.00  0.00     0.040 A 
HETATM   10  C8  UNK     1      18.663  -0.329  32.799  1.00  0.00     0.304 A 
HETATM   11  C9  UNK     1      18.272   4.653  31.955  1.00  0.00     0.004 A 
ENDROOT
BRANCH   6  12
HETATM   12  C10 UNK     1      18.234  -0.466  35.337  1.00  0.00     0.299 C 
HETATM   13  O5  UNK     1      19.076  -1.258  35.729  1.00  0.00    -0.259 OA
BRANCH  12  14
HETATM   14  O3  UNK     1      17.054  -0.146  35.926  1.00  0.00    -0.318 OA
BRANCH  14  15
HETATM   15  C11 UNK     1      17.064  -0.149  37.356  1.00  0.00     0.174 C 
HETATM   16  C12 UNK     1      17.529   1.204  37.850  1.00  0.00     0.034 C 
ENDBRANCH  14  15
ENDBRANCH  12  14
ENDBRANCH   6  12
BRANCH   7  17
HETATM   17  O2  UNK     1      18.986   2.089  29.448  1.00  0.00    -0.353 OA
HETATM   18  C13 UNK     1      17.883   1.859  28.572  1.00  0.00     0.210 C 
ENDBRANCH   7  17
TORSDOF 4
ENDMDL
MODEL 8
REMARK VINA RESULT:      -6.6     13.369     16.687
REMARK  4 active torsions:
REMARK  status: ('A' for Active; 'I' for Inactive)
REMARK    1  A    between atoms: C5_10  and  O2_2 
REMARK    2  A    between atoms: C10_15  and  O3_3 
REMARK    3  A    between atoms: C11_16  and  O3_3 
REMARK    4  A    between atoms: C10_15  and  C4_9 
ROOT
HETATM    1  O1  UNK     1      19.521   0.253  14.587  1.00  0.00    -0.271 OA
HETATM    2  O4  UNK     1      19.881   2.255  15.629  1.00  0.00    -0.259 OA
HETATM    3  C1  UNK     1      18.693  -1.637  15.873  1.00  0.00     0.002 A 
HETATM    4  C2  UNK     1      19.112  -1.093  14.663  1.00  0.00     0.123 A 
HETATM    5  C3  UNK     1      18.685  -0.794  17.058  1.00  0.00     0.038 A 
HETATM    6  C4  UNK     1      19.074   0.484  16.980  1.00  0.00     0.115 A 
HETATM    7  C5  UNK     1      19.144  -1.846  13.491  1.00  0.00     0.102 A 
HETATM    8  C6  UNK     1      18.294  -2.975  15.907  1.00  0.00     0.014 A 
HETATM    9  C7  UNK     1      18.745  -3.180  13.534  1.00  0.00     0.040 A 
HETATM   10  C8  UNK     1      19.523   1.084  15.704  1.00  0.00     0.304 A 
HETATM   11  C9  UNK     1      18.321  -3.744  14.740  1.00  0.00     0.004 A 
ENDROOT
BRANCH   6  12
HETATM   12  C10 UNK     1      19.030   1.252  18.230  1.00  0.00     0.299 C 
HETATM   13  O5  UNK     1      18.587   2.386  18.307  1.00  0.00    -0.259 OA
BRANCH  12  14
HETATM   14  O3  UNK     1      19.552   0.492  19.225  1.00  0.00    -0.318 OA
BRANCH  14  15
HETATM   15  C11 UNK     1      18.891   0.602  20.488  1.00  0.00     0.174 C 
HETATM   16  C12 UNK     1      19.672   1.550  21.373  1.00  0.00     0.034 C 
ENDBRANCH  14  15
ENDBRANCH  12  14
ENDBRANCH   6  12
BRANCH   7  17
HETATM   17  O2  UNK     1      19.557  -1.302  12.315  1.00  0.00    -0.353 OA
HETATM   18  C13 UNK     1      20.583  -1.992  11.604  1.00  0.00     0.210 C 
ENDBRANCH   7  17
TORSDOF 4
ENDMDL
MODEL 9
REMARK VINA RESULT:      -6.6      2.231      6.111
REMARK  4 active torsions:
REMARK  status: ('A' for Active; 'I' for Inactive)
REMARK    1  A    between atoms: C5_10  and  O2_2 
REMARK    2  A    between atoms: C10_15  and  O3_3 
REMARK    3  A    between atoms: C11_16  and  O3_3 
REMARK    4  A    between atoms: C10_15  and  C4_9 
ROOT
HETATM    1  O1  UNK     1      18.284   2.865  34.651  1.00  0.00    -0.271 OA
HETATM    2  O4  UNK     1      18.141   4.679  33.271  1.00  0.00    -0.259 OA
HETATM    3  C1  UNK     1      18.491   0.640  33.691  1.00  0.00     0.002 A 
HETATM    4  C2  UNK     1      18.405   1.469  34.805  1.00  0.00     0.123 A 
HETATM    5  C3  UNK     1      18.454   1.237  32.365  1.00  0.00     0.038 A 
HETATM    6  C4  UNK     1      18.340   2.563  32.225  1.00  0.00     0.115 A 
HETATM    7  C5  UNK     1      18.434   0.962  36.102  1.00  0.00     0.102 A 
HETATM    8  C6  UNK     1      18.611  -0.737  33.885  1.00  0.00     0.014 A 
HETATM    9  C7  UNK     1      18.554  -0.414  36.287  1.00  0.00     0.040 A 
HETATM   10  C8  UNK     1      18.246   3.464  33.395  1.00  0.00     0.304 A 
HETATM   11  C9  UNK     1      18.642  -1.262  35.180  1.00  0.00     0.004 A 
ENDROOT
BRANCH   6  12
HETATM   12  C10 UNK     1      18.311   3.069  30.848  1.00  0.00     0.299 C 
HETATM   13  O5  UNK     1      18.935   4.050  30.478  1.00  0.00    -0.259 OA
BRANCH  12  14
HETATM   14  O3  UNK     1      17.497   2.273  30.110  1.00  0.00    -0.318 OA
BRANCH  14  15
HETATM   15  C11 UNK     1      17.899   2.081  28.751  1.00  0.00     0.174 C 
HETATM   16  C12 UNK     1      18.709   0.806  28.651  1.00  0.00     0.034 C 
ENDBRANCH  14  15
ENDBRANCH  12  14
ENDBRANCH   6  12
BRANCH   7  17
HETATM   17  O2  UNK     1      18.348   1.783  37.182  1.00  0.00    -0.353 OA
HETATM   18  C13 UNK     1      17.595   1.312  38.299  1.00  0.00     0.210 C 
ENDBRANCH   7  17
TORSDOF 4
ENDMDL
MODEL 10
REMARK VINA RESULT:      -6.6      3.429      6.350
REMARK  4 active torsions:
REMARK  status: ('A' for Active; 'I' for Inactive)
REMARK    1  A    between atoms: C5_10  and  O2_2 
REMARK    2  A    between atoms: C10_15  and  O3_3 
REMARK    3  A    between atoms: C11_16  and  O3_3 
REMARK    4  A    between atoms: C10_15  and  C4_9 
ROOT
HETATM    1  O1  UNK     1      18.209   1.692  32.111  1.00  0.00    -0.271 OA
HETATM    2  O4  UNK     1      18.153   3.308  30.496  1.00  0.00    -0.259 OA
HETATM    3  C1  UNK     1      18.320   2.339  34.452  1.00  0.00     0.002 A 
HETATM    4  C2  UNK     1      18.267   1.349  33.476  1.00  0.00     0.123 A 
HETATM    5  C3  UNK     1      18.316   3.734  34.040  1.00  0.00     0.038 A 
HETATM    6  C4  UNK     1      18.261   4.055  32.743  1.00  0.00     0.115 A 
HETATM    7  C5  UNK     1      18.268  -0.005  33.803  1.00  0.00     0.102 A 
HETATM    8  C6  UNK     1      18.375   1.959  35.795  1.00  0.00     0.014 A 
HETATM    9  C7  UNK     1      18.322  -0.376  35.145  1.00  0.00     0.040 A 
HETATM   10  C8  UNK     1      18.204   3.019  31.687  1.00  0.00     0.304 A 
HETATM   11  C9  UNK     1      18.377   0.604  36.139  1.00  0.00     0.004 A 
ENDROOT
BRANCH   6  12
HETATM   12  C10 UNK     1      18.262   5.488  32.427  1.00  0.00     0.299 C 
HETATM   13  O5  UNK     1      19.265   6.107  32.111  1.00  0.00    -0.259 OA
BRANCH  12  14
HETATM   14  O3  UNK     1      16.996   5.959  32.551  1.00  0.00    -0.318 OA
BRANCH  14  15
HETATM   15  C11 UNK     1      16.881   7.253  33.151  1.00  0.00     0.174 C 
HETATM   16  C12 UNK     1      16.709   7.090  34.646  1.00  0.00     0.034 C 
ENDBRANCH  14  15
ENDBRANCH  12  14
ENDBRANCH   6  12
BRANCH   7  17
HETATM   17  O2  UNK     1      18.216  -0.962  32.839  1.00  0.00    -0.353 OA
HETATM   18  C13 UNK     1      19.437  -1.629  32.519  1.00  0.00     0.210 C 
ENDBRANCH   7  17
TORSDOF 4
ENDMDL
