MODEL 1
REMARK VINA RESULT:      -8.7      0.000      0.000
REMARK  3 active torsions:
REMARK  status: ('A' for Active; 'I' for Inactive)
REMARK    1  A    between atoms: C15_20  and  O3_3 
REMARK    2  A    between atoms: C19_24  and  O3_3 
REMARK       I    between atoms: C5_10  and  N1_5 
REMARK    3  A    between atoms: C5_10  and  C8_13 
ROOT
HETATM    1  O1  UNK     1      18.589  -1.283  35.569  1.00  0.00    -0.271 OA
HETATM    2  O4  UNK     1      18.606  -2.152  37.682  1.00  0.00    -0.259 OA
HETATM    3  C8  UNK     1      19.996  -3.215  36.084  1.00  0.00     0.108 A 
HETATM    4  C11 UNK     1      20.445  -3.259  34.824  1.00  0.00     0.037 A 
HETATM    5  C12 UNK     1      19.976  -2.290  33.845  1.00  0.00     0.002 A 
HETATM    6  C13 UNK     1      19.058  -1.323  34.242  1.00  0.00     0.123 A 
HETATM    7  C14 UNK     1      19.019  -2.195  36.529  1.00  0.00     0.304 A 
HETATM    8  C15 UNK     1      18.569  -0.367  33.353  1.00  0.00     0.103 A 
HETATM    9  C16 UNK     1      20.417  -2.298  32.519  1.00  0.00     0.014 A 
HETATM   10  C17 UNK     1      19.014  -0.382  32.033  1.00  0.00     0.040 A 
HETATM   11  C18 UNK     1      19.936  -1.345  31.617  1.00  0.00     0.004 A 
ENDROOT
BRANCH   3  12
HETATM   12  C5  UNK     1      20.531  -4.242  37.005  1.00  0.00     0.264 C 
HETATM   13  O2  UNK     1      21.597  -3.999  37.569  1.00  0.00    -0.267 OA
HETATM   14  N1  UNK     1      19.768  -5.390  37.143  1.00  0.00    -0.313 N 
HETATM   15  C1  UNK     1      18.486  -5.688  36.466  1.00  0.00     0.137 A 
HETATM   16  C4  UNK     1      20.093  -6.492  37.966  1.00  0.00     0.043 A 
HETATM   17  C2  UNK     1      18.017  -7.071  36.928  1.00  0.00     0.061 A 
HETATM   18  C3  UNK     1      19.106  -7.475  37.866  1.00  0.00    -0.030 A 
HETATM   19  C6  UNK     1      19.192  -8.661  38.579  1.00  0.00     0.009 A 
HETATM   20  C9  UNK     1      20.294  -8.857  39.411  1.00  0.00     0.001 A 
HETATM   21  C10 UNK     1      21.287  -7.873  39.516  1.00  0.00     0.002 A 
HETATM   22  C7  UNK     1      21.192  -6.680  38.792  1.00  0.00     0.030 A 
ENDBRANCH   3  12
BRANCH   8  23
HETATM   23  O3  UNK     1      17.672   0.573  33.755  1.00  0.00    -0.349 OA
BRANCH  23  24
HETATM   24  C19 UNK     1      18.120   1.928  33.787  1.00  0.00     0.171 C 
HETATM   25  C20 UNK     1      18.535   2.277  35.200  1.00  0.00     0.034 C 
ENDBRANCH  23  24
ENDBRANCH   8  23
TORSDOF 3
ENDMDL
MODEL 2
REMARK VINA RESULT:      -8.5      1.645      2.705
REMARK  3 active torsions:
REMARK  status: ('A' for Active; 'I' for Inactive)
REMARK    1  A    between atoms: C15_20  and  O3_3 
REMARK    2  A    between atoms: C19_24  and  O3_3 
REMARK       I    between atoms: C5_10  and  N1_5 
REMARK    3  A    between atoms: C5_10  and  C8_13 
ROOT
HETATM    1  O1  UNK     1      19.521  -1.402  34.772  1.00  0.00    -0.271 OA
HETATM    2  O4  UNK     1      20.724  -3.260  34.204  1.00  0.00    -0.259 OA
HETATM    3  C8  UNK     1      19.927  -3.151  36.433  1.00  0.00     0.108 A 
HETATM    4  C11 UNK     1      19.246  -2.466  37.359  1.00  0.00     0.037 A 
HETATM    5  C12 UNK     1      18.651  -1.180  37.030  1.00  0.00     0.002 A 
HETATM    6  C13 UNK     1      18.803  -0.678  35.742  1.00  0.00     0.123 A 
HETATM    7  C14 UNK     1      20.102  -2.636  35.056  1.00  0.00     0.304 A 
HETATM    8  C15 UNK     1      18.258   0.548  35.363  1.00  0.00     0.103 A 
HETATM    9  C16 UNK     1      17.932  -0.431  37.966  1.00  0.00     0.014 A 
HETATM   10  C17 UNK     1      17.543   1.288  36.302  1.00  0.00     0.040 A 
HETATM   11  C18 UNK     1      17.379   0.800  37.600  1.00  0.00     0.004 A 
ENDROOT
BRANCH   3  12
HETATM   12  C5  UNK     1      20.494  -4.447  36.862  1.00  0.00     0.264 C 
HETATM   13  O2  UNK     1      21.677  -4.467  37.198  1.00  0.00    -0.267 OA
HETATM   14  N1  UNK     1      19.624  -5.526  36.846  1.00  0.00    -0.313 N 
HETATM   15  C1  UNK     1      18.199  -5.508  36.443  1.00  0.00     0.137 A 
HETATM   16  C4  UNK     1      19.956  -6.849  37.214  1.00  0.00     0.043 A 
HETATM   17  C2  UNK     1      17.649  -6.930  36.587  1.00  0.00     0.061 A 
HETATM   18  C3  UNK     1      18.843  -7.681  37.078  1.00  0.00    -0.030 A 
HETATM   19  C6  UNK     1      18.909  -9.032  37.379  1.00  0.00     0.009 A 
HETATM   20  C9  UNK     1      20.123  -9.554  37.826  1.00  0.00     0.001 A 
HETATM   21  C10 UNK     1      21.243  -8.723  37.966  1.00  0.00     0.002 A 
HETATM   22  C7  UNK     1      21.167  -7.361  37.660  1.00  0.00     0.030 A 
ENDBRANCH   3  12
BRANCH   8  23
HETATM   23  O3  UNK     1      18.414   1.027  34.100  1.00  0.00    -0.349 OA
BRANCH  23  24
HETATM   24  C19 UNK     1      18.204   2.425  33.904  1.00  0.00     0.171 C 
HETATM   25  C20 UNK     1      18.186   2.718  32.419  1.00  0.00     0.034 C 
ENDBRANCH  23  24
ENDBRANCH   8  23
TORSDOF 3
ENDMDL
MODEL 3
REMARK VINA RESULT:      -8.3      7.370     12.157
REMARK  3 active torsions:
REMARK  status: ('A' for Active; 'I' for Inactive)
REMARK    1  A    between atoms: C15_20  and  O3_3 
REMARK    2  A    between atoms: C19_24  and  O3_3 
REMARK       I    between atoms: C5_10  and  N1_5 
REMARK    3  A    between atoms: C5_10  and  C8_13 
ROOT
HETATM    1  O1  UNK     1      18.976   3.953  30.477  1.00  0.00    -0.271 OA
HETATM    2  O4  UNK     1      18.980   6.202  30.069  1.00  0.00    -0.259 OA
HETATM    3  C8  UNK     1      18.411   5.522  32.267  1.00  0.00     0.108 A 
HETATM    4  C11 UNK     1      18.224   4.514  33.127  1.00  0.00     0.037 A 
HETATM    5  C12 UNK     1      18.409   3.137  32.695  1.00  0.00     0.002 A 
HETATM    6  C13 UNK     1      18.782   2.889  31.379  1.00  0.00     0.123 A 
HETATM    7  C14 UNK     1      18.807   5.281  30.860  1.00  0.00     0.304 A 
HETATM    8  C15 UNK     1      18.976   1.594  30.902  1.00  0.00     0.103 A 
HETATM    9  C16 UNK     1      18.225   2.055  33.560  1.00  0.00     0.014 A 
HETATM   10  C17 UNK     1      18.790   0.520  31.770  1.00  0.00     0.040 A 
HETATM   11  C18 UNK     1      18.416   0.750  33.096  1.00  0.00     0.004 A 
ENDROOT
BRANCH   3  12
HETATM   12  C5  UNK     1      18.198   6.885  32.799  1.00  0.00     0.264 C 
HETATM   13  O2  UNK     1      19.171   7.466  33.277  1.00  0.00    -0.267 OA
HETATM   14  N1  UNK     1      16.907   7.380  32.705  1.00  0.00    -0.313 N 
HETATM   15  C1  UNK     1      15.733   6.684  32.131  1.00  0.00     0.137 A 
HETATM   16  C4  UNK     1      16.486   8.652  33.150  1.00  0.00     0.043 A 
HETATM   17  C2  UNK     1      14.526   7.621  32.245  1.00  0.00     0.061 A 
HETATM   18  C3  UNK     1      15.122   8.823  32.900  1.00  0.00    -0.030 A 
HETATM   19  C6  UNK     1      14.465   9.993  33.246  1.00  0.00     0.009 A 
HETATM   20  C9  UNK     1      15.198  11.012  33.855  1.00  0.00     0.001 A 
HETATM   21  C10 UNK     1      16.567  10.846  34.108  1.00  0.00     0.002 A 
HETATM   22  C7  UNK     1      17.222   9.662  33.755  1.00  0.00     0.030 A 
ENDBRANCH   3  12
BRANCH   8  23
HETATM   23  O3  UNK     1      19.341   1.366  29.612  1.00  0.00    -0.349 OA
BRANCH  23  24
HETATM   24  C19 UNK     1      20.111   0.193  29.352  1.00  0.00     0.171 C 
HETATM   25  C20 UNK     1      19.449  -0.596  28.243  1.00  0.00     0.034 C 
ENDBRANCH  23  24
ENDBRANCH   8  23
TORSDOF 3
ENDMDL
MODEL 4
REMARK VINA RESULT:      -8.3      5.660     11.219
REMARK  3 active torsions:
REMARK  status: ('A' for Active; 'I' for Inactive)
REMARK    1  A    between atoms: C15_20  and  O3_3 
REMARK    2  A    between atoms: C19_24  and  O3_3 
REMARK       I    between atoms: C5_10  and  N1_5 
REMARK    3  A    between atoms: C5_10  and  C8_13 
ROOT
HETATM    1  O1  UNK     1      18.708   1.963  32.910  1.00  0.00    -0.271 OA
HETATM    2  O4  UNK     1      18.117   3.479  34.513  1.00  0.00    -0.259 OA
HETATM    3  C8  UNK     1      17.939   4.191  32.260  1.00  0.00     0.108 A 
HETATM    4  C11 UNK     1      18.087   3.894  30.964  1.00  0.00     0.037 A 
HETATM    5  C12 UNK     1      18.566   2.580  30.563  1.00  0.00     0.002 A 
HETATM    6  C13 UNK     1      18.865   1.644  31.547  1.00  0.00     0.123 A 
HETATM    7  C14 UNK     1      18.252   3.211  33.325  1.00  0.00     0.304 A 
HETATM    8  C15 UNK     1      19.328   0.368  31.230  1.00  0.00     0.103 A 
HETATM    9  C16 UNK     1      18.736   2.227  29.221  1.00  0.00     0.014 A 
HETATM   10  C17 UNK     1      19.494   0.023  29.890  1.00  0.00     0.040 A 
HETATM   11  C18 UNK     1      19.198   0.950  28.888  1.00  0.00     0.004 A 
ENDROOT
BRANCH   3  12
HETATM   12  C5  UNK     1      17.447   5.552  32.567  1.00  0.00     0.264 C 
HETATM   13  O2  UNK     1      16.246   5.769  32.415  1.00  0.00    -0.267 OA
HETATM   14  N1  UNK     1      18.400   6.458  33.003  1.00  0.00    -0.313 N 
HETATM   15  C1  UNK     1      19.847   6.201  33.188  1.00  0.00     0.137 A 
HETATM   16  C4  UNK     1      18.148   7.805  33.349  1.00  0.00     0.043 A 
HETATM   17  C2  UNK     1      20.497   7.497  33.683  1.00  0.00     0.061 A 
HETATM   18  C3  UNK     1      19.333   8.430  33.745  1.00  0.00    -0.030 A 
HETATM   19  C6  UNK     1      19.353   9.760  34.135  1.00  0.00     0.009 A 
HETATM   20  C9  UNK     1      18.154  10.473  34.126  1.00  0.00     0.001 A 
HETATM   21  C10 UNK     1      16.962   9.850  33.730  1.00  0.00     0.002 A 
HETATM   22  C7  UNK     1      16.952   8.508  33.338  1.00  0.00     0.030 A 
ENDBRANCH   3  12
BRANCH   8  23
HETATM   23  O3  UNK     1      19.616  -0.538  32.203  1.00  0.00    -0.349 OA
BRANCH  23  24
HETATM   24  C19 UNK     1      19.908  -1.871  31.784  1.00  0.00     0.171 C 
HETATM   25  C20 UNK     1      20.912  -2.479  32.739  1.00  0.00     0.034 C 
ENDBRANCH  23  24
ENDBRANCH   8  23
TORSDOF 3
ENDMDL
MODEL 5
REMARK VINA RESULT:      -8.3      6.758     11.475
REMARK  3 active torsions:
REMARK  status: ('A' for Active; 'I' for Inactive)
REMARK    1  A    between atoms: C15_20  and  O3_3 
REMARK    2  A    between atoms: C19_24  and  O3_3 
REMARK       I    between atoms: C5_10  and  N1_5 
REMARK    3  A    between atoms: C5_10  and  C8_13 
ROOT
HETATM    1  O1  UNK     1      19.273   2.838  30.227  1.00  0.00    -0.271 OA
HETATM    2  O4  UNK     1      18.915   5.036  29.716  1.00  0.00    -0.259 OA
HETATM    3  C8  UNK     1      18.073   4.278  31.797  1.00  0.00     0.108 A 
HETATM    4  C11 UNK     1      17.923   3.262  32.656  1.00  0.00     0.037 A 
HETATM    5  C12 UNK     1      18.455   1.947  32.335  1.00  0.00     0.002 A 
HETATM    6  C13 UNK     1      19.119   1.765  31.126  1.00  0.00     0.123 A 
HETATM    7  C14 UNK     1      18.775   4.108  30.505  1.00  0.00     0.304 A 
HETATM    8  C15 UNK     1      19.652   0.531  30.759  1.00  0.00     0.103 A 
HETATM    9  C16 UNK     1      18.321   0.858  33.201  1.00  0.00     0.014 A 
HETATM   10  C17 UNK     1      19.515  -0.549  31.628  1.00  0.00     0.040 A 
HETATM   11  C18 UNK     1      18.851  -0.386  32.846  1.00  0.00     0.004 A 
ENDROOT
BRANCH   3  12
HETATM   12  C5  UNK     1      17.498   5.575  32.213  1.00  0.00     0.264 C 
HETATM   13  O2  UNK     1      16.292   5.745  32.037  1.00  0.00    -0.267 OA
HETATM   14  N1  UNK     1      18.385   6.483  32.768  1.00  0.00    -0.313 N 
HETATM   15  C1  UNK     1      19.837   6.285  32.981  1.00  0.00     0.137 A 
HETATM   16  C4  UNK     1      18.049   7.776  33.229  1.00  0.00     0.043 A 
HETATM   17  C2  UNK     1      20.399   7.558  33.620  1.00  0.00     0.061 A 
HETATM   18  C3  UNK     1      19.185   8.420  33.725  1.00  0.00    -0.030 A 
HETATM   19  C6  UNK     1      19.120   9.706  34.240  1.00  0.00     0.009 A 
HETATM   20  C9  UNK     1      17.885  10.354  34.253  1.00  0.00     0.001 A 
HETATM   21  C10 UNK     1      16.742   9.712  33.756  1.00  0.00     0.002 A 
HETATM   22  C7  UNK     1      16.817   8.414  33.240  1.00  0.00     0.030 A 
ENDBRANCH   3  12
BRANCH   8  23
HETATM   23  O3  UNK     1      20.299   0.369  29.574  1.00  0.00    -0.349 OA
BRANCH  23  24
HETATM   24  C19 UNK     1      20.040  -0.835  28.851  1.00  0.00     0.171 C 
HETATM   25  C20 UNK     1      18.971  -0.565  27.813  1.00  0.00     0.034 C 
ENDBRANCH  23  24
ENDBRANCH   8  23
TORSDOF 3
ENDMDL
MODEL 6
REMARK VINA RESULT:      -8.1      2.117      7.897
REMARK  3 active torsions:
REMARK  status: ('A' for Active; 'I' for Inactive)
REMARK    1  A    between atoms: C15_20  and  O3_3 
REMARK    2  A    between atoms: C19_24  and  O3_3 
REMARK       I    between atoms: C5_10  and  N1_5 
REMARK    3  A    between atoms: C5_10  and  C8_13 
ROOT
HETATM    1  O1  UNK     1      19.377  -6.653  37.811  1.00  0.00    -0.271 OA
HETATM    2  O4  UNK     1      17.899  -5.602  36.420  1.00  0.00    -0.259 OA
HETATM    3  C8  UNK     1      20.016  -4.573  36.695  1.00  0.00     0.108 A 
HETATM    4  C11 UNK     1      21.224  -4.604  37.270  1.00  0.00     0.037 A 
HETATM    5  C12 UNK     1      21.580  -5.691  38.170  1.00  0.00     0.002 A 
HETATM    6  C13 UNK     1      20.646  -6.692  38.419  1.00  0.00     0.123 A 
HETATM    7  C14 UNK     1      19.007  -5.627  36.945  1.00  0.00     0.304 A 
HETATM    8  C15 UNK     1      20.924  -7.760  39.270  1.00  0.00     0.103 A 
HETATM    9  C16 UNK     1      22.829  -5.764  38.793  1.00  0.00     0.014 A 
HETATM   10  C17 UNK     1      22.171  -7.825  39.887  1.00  0.00     0.040 A 
HETATM   11  C18 UNK     1      23.122  -6.830  39.648  1.00  0.00     0.004 A 
ENDROOT
BRANCH   3  12
HETATM   12  C5  UNK     1      19.749  -3.429  35.797  1.00  0.00     0.264 C 
HETATM   13  O2  UNK     1      20.141  -3.515  34.634  1.00  0.00    -0.267 OA
HETATM   14  N1  UNK     1      19.073  -2.359  36.361  1.00  0.00    -0.313 N 
HETATM   15  C1  UNK     1      18.600  -2.250  37.760  1.00  0.00     0.137 A 
HETATM   16  C4  UNK     1      18.718  -1.169  35.687  1.00  0.00     0.043 A 
HETATM   17  C2  UNK     1      17.910  -0.891  37.921  1.00  0.00     0.061 A 
HETATM   18  C3  UNK     1      18.048  -0.305  36.555  1.00  0.00    -0.030 A 
HETATM   19  C6  UNK     1      17.592   0.934  36.132  1.00  0.00     0.009 A 
HETATM   20  C9  UNK     1      17.818   1.308  34.808  1.00  0.00     0.001 A 
HETATM   21  C10 UNK     1      18.490   0.444  33.932  1.00  0.00     0.002 A 
HETATM   22  C7  UNK     1      18.945  -0.805  34.367  1.00  0.00     0.030 A 
ENDBRANCH   3  12
BRANCH   8  23
HETATM   23  O3  UNK     1      20.001  -8.731  39.504  1.00  0.00    -0.349 OA
BRANCH  23  24
HETATM   24  C19 UNK     1      20.191  -9.981  38.842  1.00  0.00     0.171 C 
HETATM   25  C20 UNK     1      19.157 -10.121  37.746  1.00  0.00     0.034 C 
ENDBRANCH  23  24
ENDBRANCH   8  23
TORSDOF 3
ENDMDL
MODEL 7
REMARK VINA RESULT:      -8.1      7.374     11.000
REMARK  3 active torsions:
REMARK  status: ('A' for Active; 'I' for Inactive)
REMARK    1  A    between atoms: C15_20  and  O3_3 
REMARK    2  A    between atoms: C19_24  and  O3_3 
REMARK       I    between atoms: C5_10  and  N1_5 
REMARK    3  A    between atoms: C5_10  and  C8_13 
ROOT
HETATM    1  O1  UNK     1      16.829   8.018  33.110  1.00  0.00    -0.271 OA
HETATM    2  O4  UNK     1      15.887   6.032  32.485  1.00  0.00    -0.259 OA
HETATM    3  C8  UNK     1      18.141   5.958  33.212  1.00  0.00     0.108 A 
HETATM    4  C11 UNK     1      19.207   6.627  33.669  1.00  0.00     0.037 A 
HETATM    5  C12 UNK     1      19.135   8.065  33.875  1.00  0.00     0.002 A 
HETATM    6  C13 UNK     1      17.946   8.728  33.591  1.00  0.00     0.123 A 
HETATM    7  C14 UNK     1      16.865   6.642  32.903  1.00  0.00     0.304 A 
HETATM    8  C15 UNK     1      17.812  10.104  33.767  1.00  0.00     0.103 A 
HETATM    9  C16 UNK     1      20.222   8.804  34.349  1.00  0.00     0.014 A 
HETATM   10  C17 UNK     1      18.900  10.833  34.241  1.00  0.00     0.040 A 
HETATM   11  C18 UNK     1      20.102  10.185  34.532  1.00  0.00     0.004 A 
ENDROOT
BRANCH   3  12
HETATM   12  C5  UNK     1      18.312   4.499  33.035  1.00  0.00     0.264 C 
HETATM   13  O2  UNK     1      18.248   3.794  34.040  1.00  0.00    -0.267 OA
HETATM   14  N1  UNK     1      18.528   4.066  31.737  1.00  0.00    -0.313 N 
HETATM   15  C1  UNK     1      18.606   4.912  30.523  1.00  0.00     0.137 A 
HETATM   16  C4  UNK     1      18.717   2.722  31.344  1.00  0.00     0.043 A 
HETATM   17  C2  UNK     1      18.858   3.994  29.323  1.00  0.00     0.061 A 
HETATM   18  C3  UNK     1      18.909   2.646  29.963  1.00  0.00    -0.030 A 
HETATM   19  C6  UNK     1      19.116   1.431  29.328  1.00  0.00     0.009 A 
HETATM   20  C9  UNK     1      19.131   0.271  30.102  1.00  0.00     0.001 A 
HETATM   21  C10 UNK     1      18.938   0.342  31.489  1.00  0.00     0.002 A 
HETATM   22  C7  UNK     1      18.729   1.572  32.121  1.00  0.00     0.030 A 
ENDBRANCH   3  12
BRANCH   8  23
HETATM   23  O3  UNK     1      16.642  10.739  33.485  1.00  0.00    -0.349 OA
BRANCH  23  24
HETATM   24  C19 UNK     1      15.932  11.310  34.584  1.00  0.00     0.171 C 
HETATM   25  C20 UNK     1      14.944  10.294  35.115  1.00  0.00     0.034 C 
ENDBRANCH  23  24
ENDBRANCH   8  23
TORSDOF 3
ENDMDL
MODEL 8
REMARK VINA RESULT:      -8.0     11.397     14.345
REMARK  3 active torsions:
REMARK  status: ('A' for Active; 'I' for Inactive)
REMARK    1  A    between atoms: C15_20  and  O3_3 
REMARK    2  A    between atoms: C19_24  and  O3_3 
REMARK       I    between atoms: C5_10  and  N1_5 
REMARK    3  A    between atoms: C5_10  and  C8_13 
ROOT
HETATM    1  O1  UNK     1      14.233   9.981  35.277  1.00  0.00    -0.271 OA
HETATM    2  O4  UNK     1      14.126   8.046  34.066  1.00  0.00    -0.259 OA
HETATM    3  C8  UNK     1      15.900   9.529  33.545  1.00  0.00     0.108 A 
HETATM    4  C11 UNK     1      16.517  10.689  33.799  1.00  0.00     0.037 A 
HETATM    5  C12 UNK     1      16.010  11.578  34.833  1.00  0.00     0.002 A 
HETATM    6  C13 UNK     1      14.879  11.202  35.549  1.00  0.00     0.123 A 
HETATM    7  C14 UNK     1      14.694   9.108  34.295  1.00  0.00     0.304 A 
HETATM    8  C15 UNK     1      14.343  12.008  36.552  1.00  0.00     0.103 A 
HETATM    9  C16 UNK     1      16.623  12.799  35.131  1.00  0.00     0.014 A 
HETATM   10  C17 UNK     1      14.960  13.223  36.843  1.00  0.00     0.040 A 
HETATM   11  C18 UNK     1      16.097  13.617  36.135  1.00  0.00     0.004 A 
ENDROOT
BRANCH   3  12
HETATM   12  C5  UNK     1      16.490   8.694  32.477  1.00  0.00     0.264 C 
HETATM   13  O2  UNK     1      15.897   8.647  31.400  1.00  0.00    -0.267 OA
HETATM   14  N1  UNK     1      17.668   8.039  32.798  1.00  0.00    -0.313 N 
HETATM   15  C1  UNK     1      18.385   8.091  34.093  1.00  0.00     0.137 A 
HETATM   16  C4  UNK     1      18.395   7.193  31.931  1.00  0.00     0.043 A 
HETATM   17  C2  UNK     1      19.633   7.210  33.978  1.00  0.00     0.061 A 
HETATM   18  C3  UNK     1      19.531   6.701  32.578  1.00  0.00    -0.030 A 
HETATM   19  C6  UNK     1      20.414   5.846  31.938  1.00  0.00     0.009 A 
HETATM   20  C9  UNK     1      20.147   5.480  30.619  1.00  0.00     0.001 A 
HETATM   21  C10 UNK     1      19.008   5.972  29.964  1.00  0.00     0.002 A 
HETATM   22  C7  UNK     1      18.123   6.835  30.618  1.00  0.00     0.030 A 
ENDBRANCH   3  12
BRANCH   8  23
HETATM   23  O3  UNK     1      13.236  11.628  37.244  1.00  0.00    -0.349 OA
BRANCH  23  24
HETATM   24  C19 UNK     1      13.440  11.081  38.547  1.00  0.00     0.171 C 
HETATM   25  C20 UNK     1      12.251  11.422  39.417  1.00  0.00     0.034 C 
ENDBRANCH  23  24
ENDBRANCH   8  23
TORSDOF 3
ENDMDL
MODEL 9
REMARK VINA RESULT:      -8.0      6.991      8.797
REMARK  3 active torsions:
REMARK  status: ('A' for Active; 'I' for Inactive)
REMARK    1  A    between atoms: C15_20  and  O3_3 
REMARK    2  A    between atoms: C19_24  and  O3_3 
REMARK       I    between atoms: C5_10  and  N1_5 
REMARK    3  A    between atoms: C5_10  and  C8_13 
ROOT
HETATM    1  O1  UNK     1      26.116  -5.646  38.656  1.00  0.00    -0.271 OA
HETATM    2  O4  UNK     1      23.880  -5.220  38.861  1.00  0.00    -0.259 OA
HETATM    3  C8  UNK     1      24.546  -7.491  38.995  1.00  0.00     0.108 A 
HETATM    4  C11 UNK     1      25.545  -8.381  38.968  1.00  0.00     0.037 A 
HETATM    5  C12 UNK     1      26.918  -7.938  38.779  1.00  0.00     0.002 A 
HETATM    6  C13 UNK     1      27.171  -6.579  38.627  1.00  0.00     0.123 A 
HETATM    7  C14 UNK     1      24.792  -6.040  38.836  1.00  0.00     0.304 A 
HETATM    8  C15 UNK     1      28.463  -6.089  38.442  1.00  0.00     0.103 A 
HETATM    9  C16 UNK     1      27.991  -8.832  38.743  1.00  0.00     0.014 A 
HETATM   10  C17 UNK     1      29.527  -6.987  38.409  1.00  0.00     0.040 A 
HETATM   11  C18 UNK     1      29.292  -8.355  38.560  1.00  0.00     0.004 A 
ENDROOT
BRANCH   3  12
HETATM   12  C5  UNK     1      23.187  -8.039  39.193  1.00  0.00     0.264 C 
HETATM   13  O2  UNK     1      22.635  -7.815  40.269  1.00  0.00    -0.267 OA
HETATM   14  N1  UNK     1      22.662  -8.758  38.131  1.00  0.00    -0.313 N 
HETATM   15  C1  UNK     1      23.322  -9.030  36.833  1.00  0.00     0.137 A 
HETATM   16  C4  UNK     1      21.386  -9.366  38.107  1.00  0.00     0.043 A 
HETATM   17  C2  UNK     1      22.360  -9.861  35.979  1.00  0.00     0.061 A 
HETATM   18  C3  UNK     1      21.181 -10.008  36.884  1.00  0.00    -0.030 A 
HETATM   19  C6  UNK     1      20.002 -10.682  36.611  1.00  0.00     0.009 A 
HETATM   20  C9  UNK     1      19.010 -10.709  37.590  1.00  0.00     0.001 A 
HETATM   21  C10 UNK     1      19.210 -10.066  38.820  1.00  0.00     0.002 A 
HETATM   22  C7  UNK     1      20.403  -9.387  39.087  1.00  0.00     0.030 A 
ENDBRANCH   3  12
BRANCH   8  23
HETATM   23  O3  UNK     1      28.696  -4.757  38.296  1.00  0.00    -0.349 OA
BRANCH  23  24
HETATM   24  C19 UNK     1      29.984  -4.276  38.679  1.00  0.00     0.171 C 
HETATM   25  C20 UNK     1      30.636  -3.608  37.488  1.00  0.00     0.034 C 
ENDBRANCH  23  24
ENDBRANCH   8  23
TORSDOF 3
ENDMDL
MODEL 10
REMARK VINA RESULT:      -7.9      7.695     13.601
REMARK  3 active torsions:
REMARK  status: ('A' for Active; 'I' for Inactive)
REMARK    1  A    between atoms: C15_20  and  O3_3 
REMARK    2  A    between atoms: C19_24  and  O3_3 
REMARK       I    between atoms: C5_10  and  N1_5 
REMARK    3  A    between atoms: C5_10  and  C8_13 
ROOT
HETATM    1  O1  UNK     1      17.403   5.286  33.565  1.00  0.00    -0.271 OA
HETATM    2  O4  UNK     1      16.761   6.770  35.180  1.00  0.00    -0.259 OA
HETATM    3  C8  UNK     1      17.852   7.673  33.280  1.00  0.00     0.108 A 
HETATM    4  C11 UNK     1      18.432   7.450  32.095  1.00  0.00     0.037 A 
HETATM    5  C12 UNK     1      18.530   6.096  31.570  1.00  0.00     0.002 A 
HETATM    6  C13 UNK     1      18.012   5.045  32.319  1.00  0.00     0.123 A 
HETATM    7  C14 UNK     1      17.294   6.569  34.094  1.00  0.00     0.304 A 
HETATM    8  C15 UNK     1      18.073   3.726  31.873  1.00  0.00     0.103 A 
HETATM    9  C16 UNK     1      19.128   5.817  30.338  1.00  0.00     0.014 A 
HETATM   10  C17 UNK     1      18.670   3.456  30.643  1.00  0.00     0.040 A 
HETATM   11  C18 UNK     1      19.196   4.499  29.877  1.00  0.00     0.004 A 
ENDROOT
BRANCH   3  12
HETATM   12  C5  UNK     1      17.801   9.081  33.728  1.00  0.00     0.264 C 
HETATM   13  O2  UNK     1      18.838   9.575  34.168  1.00  0.00    -0.267 OA
HETATM   14  N1  UNK     1      16.574   9.714  33.606  1.00  0.00    -0.313 N 
HETATM   15  C1  UNK     1      15.323   9.123  33.078  1.00  0.00     0.137 A 
HETATM   16  C4  UNK     1      16.304  11.051  33.973  1.00  0.00     0.043 A 
HETATM   17  C2  UNK     1      14.232  10.197  33.137  1.00  0.00     0.061 A 
HETATM   18  C3  UNK     1      14.967  11.361  33.716  1.00  0.00    -0.030 A 
HETATM   19  C6  UNK     1      14.450  12.617  33.990  1.00  0.00     0.009 A 
HETATM   20  C9  UNK     1      15.299  13.580  34.534  1.00  0.00     0.001 A 
HETATM   21  C10 UNK     1      16.643  13.275  34.795  1.00  0.00     0.002 A 
HETATM   22  C7  UNK     1      17.156  12.004  34.514  1.00  0.00     0.030 A 
ENDBRANCH   3  12
BRANCH   8  23
HETATM   23  O3  UNK     1      17.562   2.708  32.615  1.00  0.00    -0.349 OA
BRANCH  23  24
HETATM   24  C19 UNK     1      18.493   1.871  33.300  1.00  0.00     0.171 C 
HETATM   25  C20 UNK     1      18.333   2.074  34.792  1.00  0.00     0.034 C 
ENDBRANCH  23  24
ENDBRANCH   8  23
TORSDOF 3
ENDMDL
