MODEL 1
REMARK VINA RESULT:      -7.9      0.000      0.000
REMARK  6 active torsions:
REMARK  status: ('A' for Active; 'I' for Inactive)
REMARK    1  A    between atoms: C12_20  and  O2_2 
REMARK    2  A    between atoms: C14_22  and  O5_5 
REMARK    3  A    between atoms: C22_30  and  O5_5 
REMARK    4  A    between atoms: C12_20  and  C2_10 
REMARK    5  A    between atoms: C11_19  and  C6_14 
REMARK    6  A    between atoms: C14_22  and  C8_16 
ROOT
HETATM    1  O1  UNK     1      29.834  -6.577  32.354  1.00  0.00    -0.292 OA
HETATM    2  N1  UNK     1      33.481  -9.579  32.617  1.00  0.00    -0.362 N 
HETATM    3  C1  UNK     1      29.905 -10.164  31.585  1.00  0.00     0.008 C 
HETATM    4  C2  UNK     1      29.472  -8.712  31.342  1.00  0.00     0.164 C 
HETATM    5  C3  UNK     1      31.429 -10.308  31.486  1.00  0.00     0.063 C 
HETATM    6  C4  UNK     1      31.647  -8.078  32.622  1.00  0.00     0.025 C 
HETATM    7  C5  UNK     1      32.181  -9.266  32.269  1.00  0.00     0.020 C 
HETATM    8  C6  UNK     1      32.442  -7.073  33.451  1.00  0.00     0.104 C 
HETATM    9  C7  UNK     1      30.278  -7.707  32.147  1.00  0.00     0.172 C 
HETATM   10  C8  UNK     1      33.903  -7.486  33.638  1.00  0.00     0.052 C 
HETATM   11  C9  UNK     1      29.382 -10.674  32.937  1.00  0.00     0.011 C 
HETATM   12  C10 UNK     1      34.350  -8.702  33.247  1.00  0.00     0.018 C 
HETATM   13  C13 UNK     1      35.751  -9.218  33.432  1.00  0.00     0.069 C 
HETATM   14  H9  UNK     1      33.845 -10.479  32.329  1.00  0.00     0.165 HD
ENDROOT
BRANCH   8  15
HETATM   15  C11 UNK     1      31.784  -6.867  34.789  1.00  0.00     0.029 A 
HETATM   16  C15 UNK     1      31.557  -5.478  35.261  1.00  0.00     0.194 A 
HETATM   17  O7  UNK     1      31.886  -4.503  34.598  1.00  0.00    -0.287 OA
HETATM   18  C17 UNK     1      30.912  -5.333  36.579  1.00  0.00     0.048 A 
HETATM   19  C18 UNK     1      30.559  -6.479  37.292  1.00  0.00     0.089 A 
HETATM   20  C19 UNK     1      30.656  -4.067  37.111  1.00  0.00     0.018 A 
HETATM   21  O3  UNK     1      30.787  -7.747  36.817  1.00  0.00    -0.321 OA
HETATM   22  C21 UNK     1      29.947  -6.365  38.540  1.00  0.00     0.038 A 
HETATM   23  C16 UNK     1      31.390  -7.867  35.589  1.00  0.00     0.154 A 
HETATM   24  C24 UNK     1      29.690  -5.102  39.073  1.00  0.00     0.003 A 
HETATM   25  C23 UNK     1      30.044  -3.956  38.360  1.00  0.00     0.001 A 
ENDBRANCH   8  15
BRANCH  10  26
HETATM   26  C14 UNK     1      34.804  -6.475  34.217  1.00  0.00     0.292 C 
HETATM   27  O6  UNK     1      35.154  -5.473  33.622  1.00  0.00    -0.259 OA
BRANCH  26  28
HETATM   28  O5  UNK     1      35.137  -6.867  35.471  1.00  0.00    -0.318 OA
BRANCH  28  29
HETATM   29  C22 UNK     1      35.154  -5.822  36.448  1.00  0.00     0.174 C 
HETATM   30  C25 UNK     1      34.312  -6.242  37.634  1.00  0.00     0.034 C 
ENDBRANCH  28  29
ENDBRANCH  26  28
ENDBRANCH  10  26
BRANCH   4  31
HETATM   31  C12 UNK     1      29.510  -8.405  29.875  1.00  0.00     0.270 C 
HETATM   32  O4  UNK     1      30.333  -7.667  29.350  1.00  0.00    -0.264 OA
BRANCH  31  33
HETATM   33  O2  UNK     1      28.499  -9.069  29.244  1.00  0.00    -0.326 OA
HETATM   34  C20 UNK     1      28.906  -9.955  28.197  1.00  0.00     0.213 C 
ENDBRANCH  31  33
ENDBRANCH   4  31
TORSDOF 6
ENDMDL
MODEL 2
REMARK VINA RESULT:      -7.7      2.187      2.971
REMARK  6 active torsions:
REMARK  status: ('A' for Active; 'I' for Inactive)
REMARK    1  A    between atoms: C12_20  and  O2_2 
REMARK    2  A    between atoms: C14_22  and  O5_5 
REMARK    3  A    between atoms: C22_30  and  O5_5 
REMARK    4  A    between atoms: C12_20  and  C2_10 
REMARK    5  A    between atoms: C11_19  and  C6_14 
REMARK    6  A    between atoms: C14_22  and  C8_16 
ROOT
HETATM    1  O1  UNK     1      28.047  -6.073  33.539  1.00  0.00    -0.292 OA
HETATM    2  N1  UNK     1      32.580  -7.146  32.717  1.00  0.00    -0.362 N 
HETATM    3  C1  UNK     1      29.459  -8.137  30.854  1.00  0.00     0.008 C 
HETATM    4  C2  UNK     1      28.484  -7.098  31.424  1.00  0.00     0.164 C 
HETATM    5  C3  UNK     1      30.912  -7.665  30.994  1.00  0.00     0.063 C 
HETATM    6  C4  UNK     1      30.311  -6.698  33.234  1.00  0.00     0.025 C 
HETATM    7  C5  UNK     1      31.243  -7.148  32.368  1.00  0.00     0.020 C 
HETATM    8  C6  UNK     1      30.699  -6.222  34.631  1.00  0.00     0.104 C 
HETATM    9  C7  UNK     1      28.882  -6.603  32.805  1.00  0.00     0.172 C 
HETATM   10  C8  UNK     1      32.214  -6.138  34.827  1.00  0.00     0.052 C 
HETATM   11  C9  UNK     1      29.250  -9.507  31.517  1.00  0.00     0.011 C 
HETATM   12  C10 UNK     1      33.075  -6.615  33.898  1.00  0.00     0.018 C 
HETATM   13  C13 UNK     1      34.574  -6.624  34.020  1.00  0.00     0.069 C 
HETATM   14  H9  UNK     1      33.248  -7.489  32.037  1.00  0.00     0.165 HD
ENDROOT
BRANCH   8  15
HETATM   15  C11 UNK     1      30.089  -7.118  35.674  1.00  0.00     0.029 A 
HETATM   16  C15 UNK     1      29.400  -6.493  36.831  1.00  0.00     0.194 A 
HETATM   17  O7  UNK     1      29.316  -5.278  36.960  1.00  0.00    -0.287 OA
HETATM   18  C17 UNK     1      28.822  -7.416  37.825  1.00  0.00     0.048 A 
HETATM   19  C18 UNK     1      28.949  -8.791  37.628  1.00  0.00     0.089 A 
HETATM   20  C19 UNK     1      28.155  -6.926  38.950  1.00  0.00     0.018 A 
HETATM   21  O3  UNK     1      29.594  -9.328  36.541  1.00  0.00    -0.321 OA
HETATM   22  C21 UNK     1      28.409  -9.684  38.554  1.00  0.00     0.038 A 
HETATM   23  C16 UNK     1      30.128  -8.456  35.624  1.00  0.00     0.154 A 
HETATM   24  C24 UNK     1      27.743  -9.195  39.678  1.00  0.00     0.003 A 
HETATM   25  C23 UNK     1      27.616  -7.820  39.876  1.00  0.00     0.001 A 
ENDBRANCH   8  15
BRANCH  10  26
HETATM   26  C14 UNK     1      32.684  -5.469  36.052  1.00  0.00     0.292 C 
HETATM   27  O6  UNK     1      32.526  -4.281  36.266  1.00  0.00    -0.259 OA
BRANCH  26  28
HETATM   28  O5  UNK     1      33.286  -6.392  36.839  1.00  0.00    -0.318 OA
BRANCH  28  29
HETATM   29  C22 UNK     1      32.736  -6.518  38.154  1.00  0.00     0.174 C 
HETATM   30  C25 UNK     1      32.409  -7.973  38.415  1.00  0.00     0.034 C 
ENDBRANCH  28  29
ENDBRANCH  26  28
ENDBRANCH  10  26
BRANCH   4  31
HETATM   31  C12 UNK     1      28.319  -5.964  30.456  1.00  0.00     0.270 C 
HETATM   32  O4  UNK     1      29.087  -5.016  30.373  1.00  0.00    -0.264 OA
BRANCH  31  33
HETATM   33  O2  UNK     1      27.199  -6.166  29.705  1.00  0.00    -0.326 OA
HETATM   34  C20 UNK     1      26.080  -6.719  30.405  1.00  0.00     0.213 C 
ENDBRANCH  31  33
ENDBRANCH   4  31
TORSDOF 6
ENDMDL
MODEL 3
REMARK VINA RESULT:      -7.7      2.668      6.622
REMARK  6 active torsions:
REMARK  status: ('A' for Active; 'I' for Inactive)
REMARK    1  A    between atoms: C12_20  and  O2_2 
REMARK    2  A    between atoms: C14_22  and  O5_5 
REMARK    3  A    between atoms: C22_30  and  O5_5 
REMARK    4  A    between atoms: C12_20  and  C2_10 
REMARK    5  A    between atoms: C11_19  and  C6_14 
REMARK    6  A    between atoms: C14_22  and  C8_16 
ROOT
HETATM    1  O1  UNK     1      28.784  -9.718  36.146  1.00  0.00    -0.292 OA
HETATM    2  N1  UNK     1      31.471  -5.990  37.266  1.00  0.00    -0.362 N 
HETATM    3  C1  UNK     1      28.365  -7.346  38.913  1.00  0.00     0.008 C 
HETATM    4  C2  UNK     1      28.336  -8.744  38.282  1.00  0.00     0.164 C 
HETATM    5  C3  UNK     1      29.780  -6.753  38.872  1.00  0.00     0.063 C 
HETATM    6  C4  UNK     1      30.074  -7.784  36.600  1.00  0.00     0.025 C 
HETATM    7  C5  UNK     1      30.440  -6.872  37.525  1.00  0.00     0.020 C 
HETATM    8  C6  UNK     1      30.752  -7.835  35.234  1.00  0.00     0.104 C 
HETATM    9  C7  UNK     1      29.032  -8.804  36.933  1.00  0.00     0.172 C 
HETATM   10  C8  UNK     1      31.963  -6.905  35.140  1.00  0.00     0.052 C 
HETATM   11  C9  UNK     1      27.350  -6.414  38.234  1.00  0.00     0.011 C 
HETATM   12  C10 UNK     1      32.255  -6.023  36.123  1.00  0.00     0.018 C 
HETATM   13  C13 UNK     1      33.390  -5.035  36.102  1.00  0.00     0.069 C 
HETATM   14  H9  UNK     1      31.718  -5.324  37.989  1.00  0.00     0.165 HD
ENDROOT
BRANCH   8  15
HETATM   15  C11 UNK     1      29.761  -7.510  34.150  1.00  0.00     0.029 A 
HETATM   16  C15 UNK     1      29.586  -8.475  33.036  1.00  0.00     0.194 A 
HETATM   17  O7  UNK     1      30.219  -9.521  32.975  1.00  0.00    -0.287 OA
HETATM   18  C17 UNK     1      28.604  -8.106  31.999  1.00  0.00     0.048 A 
HETATM   19  C18 UNK     1      27.912  -6.901  32.118  1.00  0.00     0.089 A 
HETATM   20  C19 UNK     1      28.368  -8.948  30.909  1.00  0.00     0.018 A 
HETATM   21  O3  UNK     1      28.104  -6.037  33.167  1.00  0.00    -0.321 OA
HETATM   22  C21 UNK     1      26.978  -6.532  31.150  1.00  0.00     0.038 A 
HETATM   23  C16 UNK     1      29.022  -6.393  34.125  1.00  0.00     0.154 A 
HETATM   24  C24 UNK     1      26.741  -7.372  30.062  1.00  0.00     0.003 A 
HETATM   25  C23 UNK     1      27.434  -8.577  29.941  1.00  0.00     0.001 A 
ENDBRANCH   8  15
BRANCH  10  26
HETATM   26  C14 UNK     1      32.819  -7.057  33.952  1.00  0.00     0.292 C 
HETATM   27  O6  UNK     1      32.617  -6.472  32.903  1.00  0.00    -0.259 OA
BRANCH  26  28
HETATM   28  O5  UNK     1      33.815  -7.926  34.251  1.00  0.00    -0.318 OA
BRANCH  28  29
HETATM   29  C22 UNK     1      34.133  -8.862  33.217  1.00  0.00     0.174 C 
HETATM   30  C25 UNK     1      33.578 -10.220  33.592  1.00  0.00     0.034 C 
ENDBRANCH  28  29
ENDBRANCH  26  28
ENDBRANCH  10  26
BRANCH   4  31
HETATM   31  C12 UNK     1      28.897  -9.751  39.241  1.00  0.00     0.270 C 
HETATM   32  O4  UNK     1      29.978 -10.307  39.096  1.00  0.00    -0.264 OA
BRANCH  31  33
HETATM   33  O2  UNK     1      28.024  -9.936  40.271  1.00  0.00    -0.326 OA
HETATM   34  C20 UNK     1      26.679 -10.242  39.891  1.00  0.00     0.213 C 
ENDBRANCH  31  33
ENDBRANCH   4  31
TORSDOF 6
ENDMDL
MODEL 4
REMARK VINA RESULT:      -7.7      2.776      6.763
REMARK  6 active torsions:
REMARK  status: ('A' for Active; 'I' for Inactive)
REMARK    1  A    between atoms: C12_20  and  O2_2 
REMARK    2  A    between atoms: C14_22  and  O5_5 
REMARK    3  A    between atoms: C22_30  and  O5_5 
REMARK    4  A    between atoms: C12_20  and  C2_10 
REMARK    5  A    between atoms: C11_19  and  C6_14 
REMARK    6  A    between atoms: C14_22  and  C8_16 
ROOT
HETATM    1  O1  UNK     1      29.196  -9.731  36.154  1.00  0.00    -0.292 OA
HETATM    2  N1  UNK     1      30.278  -5.425  37.786  1.00  0.00    -0.362 N 
HETATM    3  C1  UNK     1      27.689  -7.900  38.954  1.00  0.00     0.008 C 
HETATM    4  C2  UNK     1      28.216  -9.162  38.259  1.00  0.00     0.164 C 
HETATM    5  C3  UNK     1      28.803  -6.858  39.123  1.00  0.00     0.063 C 
HETATM    6  C4  UNK     1      29.674  -7.521  36.862  1.00  0.00     0.025 C 
HETATM    7  C5  UNK     1      29.600  -6.625  37.868  1.00  0.00     0.020 C 
HETATM    8  C6  UNK     1      30.465  -7.216  35.593  1.00  0.00     0.104 C 
HETATM    9  C7  UNK     1      29.025  -8.860  37.009  1.00  0.00     0.172 C 
HETATM   10  C8  UNK     1      31.277  -5.924  35.700  1.00  0.00     0.052 C 
HETATM   11  C9  UNK     1      26.489  -7.314  38.195  1.00  0.00     0.011 C 
HETATM   12  C10 UNK     1      31.138  -5.086  36.753  1.00  0.00     0.018 C 
HETATM   13  C13 UNK     1      31.852  -3.773  36.924  1.00  0.00     0.069 C 
HETATM   14  H9  UNK     1      30.200  -4.781  38.565  1.00  0.00     0.165 HD
ENDROOT
BRANCH   8  15
HETATM   15  C11 UNK     1      29.541  -7.153  34.407  1.00  0.00     0.029 A 
HETATM   16  C15 UNK     1      29.743  -8.120  33.299  1.00  0.00     0.194 A 
HETATM   17  O7  UNK     1      30.632  -8.961  33.322  1.00  0.00    -0.287 OA
HETATM   18  C17 UNK     1      28.812  -8.013  32.160  1.00  0.00     0.048 A 
HETATM   19  C18 UNK     1      27.818  -7.035  32.186  1.00  0.00     0.089 A 
HETATM   20  C19 UNK     1      28.921  -8.877  31.067  1.00  0.00     0.018 A 
HETATM   21  O3  UNK     1      27.666  -6.160  33.233  1.00  0.00    -0.321 OA
HETATM   22  C21 UNK     1      26.926  -6.915  31.120  1.00  0.00     0.038 A 
HETATM   23  C16 UNK     1      28.541  -6.270  34.286  1.00  0.00     0.154 A 
HETATM   24  C24 UNK     1      27.032  -7.778  30.029  1.00  0.00     0.003 A 
HETATM   25  C23 UNK     1      28.027  -8.756  30.003  1.00  0.00     0.001 A 
ENDBRANCH   8  15
BRANCH  10  26
HETATM   26  C14 UNK     1      32.251  -5.668  34.625  1.00  0.00     0.292 C 
HETATM   27  O6  UNK     1      32.009  -4.974  33.655  1.00  0.00    -0.259 OA
BRANCH  26  28
HETATM   28  O5  UNK     1      33.400  -6.322  34.925  1.00  0.00    -0.318 OA
BRANCH  28  29
HETATM   29  C22 UNK     1      34.557  -5.489  35.048  1.00  0.00     0.174 C 
HETATM   30  C25 UNK     1      35.169  -5.695  36.417  1.00  0.00     0.034 C 
ENDBRANCH  28  29
ENDBRANCH  26  28
ENDBRANCH  10  26
BRANCH   4  31
HETATM   31  C12 UNK     1      28.991  -9.998  39.233  1.00  0.00     0.270 C 
HETATM   32  O4  UNK     1      30.154 -10.341  39.068  1.00  0.00    -0.264 OA
BRANCH  31  33
HETATM   33  O2  UNK     1      28.202 -10.301  40.303  1.00  0.00    -0.326 OA
HETATM   34  C20 UNK     1      28.888 -10.817  41.447  1.00  0.00     0.213 C 
ENDBRANCH  31  33
ENDBRANCH   4  31
TORSDOF 6
ENDMDL
MODEL 5
REMARK VINA RESULT:      -7.6      2.601      6.944
REMARK  6 active torsions:
REMARK  status: ('A' for Active; 'I' for Inactive)
REMARK    1  A    between atoms: C12_20  and  O2_2 
REMARK    2  A    between atoms: C14_22  and  O5_5 
REMARK    3  A    between atoms: C22_30  and  O5_5 
REMARK    4  A    between atoms: C12_20  and  C2_10 
REMARK    5  A    between atoms: C11_19  and  C6_14 
REMARK    6  A    between atoms: C14_22  and  C8_16 
ROOT
HETATM    1  O1  UNK     1      31.126  -5.454  34.373  1.00  0.00    -0.292 OA
HETATM    2  N1  UNK     1      30.987  -8.837  37.675  1.00  0.00    -0.362 N 
HETATM    3  C1  UNK     1      33.916  -7.313  35.862  1.00  0.00     0.008 C 
HETATM    4  C2  UNK     1      33.242  -6.050  35.311  1.00  0.00     0.164 C 
HETATM    5  C3  UNK     1      33.155  -7.858  37.078  1.00  0.00     0.063 C 
HETATM    6  C4  UNK     1      31.010  -7.235  35.930  1.00  0.00     0.025 C 
HETATM    7  C5  UNK     1      31.670  -7.957  36.859  1.00  0.00     0.020 C 
HETATM    8  C6  UNK     1      29.507  -7.404  35.724  1.00  0.00     0.104 C 
HETATM    9  C7  UNK     1      31.742  -6.207  35.128  1.00  0.00     0.172 C 
HETATM   10  C8  UNK     1      28.861  -8.296  36.786  1.00  0.00     0.052 C 
HETATM   11  C9  UNK     1      34.058  -8.382  34.768  1.00  0.00     0.011 C 
HETATM   12  C10 UNK     1      29.608  -8.982  37.682  1.00  0.00     0.018 C 
HETATM   13  C13 UNK     1      29.072  -9.920  38.729  1.00  0.00     0.069 C 
HETATM   14  H9  UNK     1      31.519  -9.357  38.363  1.00  0.00     0.165 HD
ENDROOT
BRANCH   8  15
HETATM   15  C11 UNK     1      29.229  -7.947  34.349  1.00  0.00     0.029 A 
HETATM   16  C15 UNK     1      28.342  -7.171  33.445  1.00  0.00     0.194 A 
HETATM   17  O7  UNK     1      27.835  -6.110  33.785  1.00  0.00    -0.287 OA
HETATM   18  C17 UNK     1      28.101  -7.750  32.111  1.00  0.00     0.048 A 
HETATM   19  C18 UNK     1      28.704  -8.963  31.778  1.00  0.00     0.089 A 
HETATM   20  C19 UNK     1      27.280  -7.097  31.188  1.00  0.00     0.018 A 
HETATM   21  O3  UNK     1      29.519  -9.649  32.645  1.00  0.00    -0.321 OA
HETATM   22  C21 UNK     1      28.490  -9.530  30.521  1.00  0.00     0.038 A 
HETATM   23  C16 UNK     1      29.734  -9.098  33.885  1.00  0.00     0.154 A 
HETATM   24  C24 UNK     1      27.672  -8.878  29.599  1.00  0.00     0.003 A 
HETATM   25  C23 UNK     1      27.068  -7.665  29.932  1.00  0.00     0.001 A 
ENDBRANCH   8  15
BRANCH  10  26
HETATM   26  C14 UNK     1      27.389  -8.329  36.812  1.00  0.00     0.292 C 
HETATM   27  O6  UNK     1      26.738  -9.318  36.532  1.00  0.00    -0.259 OA
BRANCH  26  28
HETATM   28  O5  UNK     1      26.942  -7.108  37.192  1.00  0.00    -0.318 OA
BRANCH  28  29
HETATM   29  C22 UNK     1      26.769  -6.938  38.602  1.00  0.00     0.174 C 
HETATM   30  C25 UNK     1      27.859  -6.028  39.127  1.00  0.00     0.034 C 
ENDBRANCH  28  29
ENDBRANCH  26  28
ENDBRANCH  10  26
BRANCH   4  31
HETATM   31  C12 UNK     1      33.574  -4.872  36.177  1.00  0.00     0.270 C 
HETATM   32  O4  UNK     1      32.933  -4.546  37.167  1.00  0.00    -0.264 OA
BRANCH  31  33
HETATM   33  O2  UNK     1      34.682  -4.244  35.688  1.00  0.00    -0.326 OA
HETATM   34  C20 UNK     1      34.594  -3.812  34.328  1.00  0.00     0.213 C 
ENDBRANCH  31  33
ENDBRANCH   4  31
TORSDOF 6
ENDMDL
MODEL 6
REMARK VINA RESULT:      -7.5      2.611      3.612
REMARK  6 active torsions:
REMARK  status: ('A' for Active; 'I' for Inactive)
REMARK    1  A    between atoms: C12_20  and  O2_2 
REMARK    2  A    between atoms: C14_22  and  O5_5 
REMARK    3  A    between atoms: C22_30  and  O5_5 
REMARK    4  A    between atoms: C12_20  and  C2_10 
REMARK    5  A    between atoms: C11_19  and  C6_14 
REMARK    6  A    between atoms: C14_22  and  C8_16 
ROOT
HETATM    1  O1  UNK     1      29.257  -9.315  33.755  1.00  0.00    -0.292 OA
HETATM    2  N1  UNK     1      33.798  -8.746  34.953  1.00  0.00    -0.362 N 
HETATM    3  C1  UNK     1      32.100 -11.529  33.064  1.00  0.00     0.008 C 
HETATM    4  C2  UNK     1      30.785 -10.825  32.706  1.00  0.00     0.164 C 
HETATM    5  C3  UNK     1      33.211 -10.510  33.352  1.00  0.00     0.063 C 
HETATM    6  C4  UNK     1      31.497  -9.063  34.484  1.00  0.00     0.025 C 
HETATM    7  C5  UNK     1      32.786  -9.411  34.288  1.00  0.00     0.020 C 
HETATM    8  C6  UNK     1      31.120  -7.966  35.475  1.00  0.00     0.104 C 
HETATM    9  C7  UNK     1      30.420  -9.715  33.677  1.00  0.00     0.172 C 
HETATM   10  C8  UNK     1      32.339  -7.223  36.026  1.00  0.00     0.052 C 
HETATM   11  C9  UNK     1      31.904 -12.490  34.247  1.00  0.00     0.011 C 
HETATM   12  C10 UNK     1      33.599  -7.646  35.772  1.00  0.00     0.018 C 
HETATM   13  C13 UNK     1      34.856  -7.016  36.307  1.00  0.00     0.069 C 
HETATM   14  H9  UNK     1      34.753  -9.035  34.774  1.00  0.00     0.165 HD
ENDROOT
BRANCH   8  15
HETATM   15  C11 UNK     1      30.308  -8.541  36.603  1.00  0.00     0.029 A 
HETATM   16  C15 UNK     1      28.937  -8.017  36.830  1.00  0.00     0.194 A 
HETATM   17  O7  UNK     1      28.453  -7.137  36.130  1.00  0.00    -0.287 OA
HETATM   18  C17 UNK     1      28.186  -8.614  37.949  1.00  0.00     0.048 A 
HETATM   19  C18 UNK     1      28.788  -9.612  38.715  1.00  0.00     0.089 A 
HETATM   20  C19 UNK     1      26.889  -8.188  38.244  1.00  0.00     0.018 A 
HETATM   21  O3  UNK     1      30.059 -10.069  38.470  1.00  0.00    -0.321 OA
HETATM   22  C21 UNK     1      28.096 -10.192  39.779  1.00  0.00     0.038 A 
HETATM   23  C16 UNK     1      30.748  -9.504  37.425  1.00  0.00     0.154 A 
HETATM   24  C24 UNK     1      26.800  -9.768  40.074  1.00  0.00     0.003 A 
HETATM   25  C23 UNK     1      26.198  -8.768  39.309  1.00  0.00     0.001 A 
ENDBRANCH   8  15
BRANCH  10  26
HETATM   26  C14 UNK     1      32.070  -6.001  36.802  1.00  0.00     0.292 C 
HETATM   27  O6  UNK     1      32.103  -5.961  38.019  1.00  0.00    -0.259 OA
BRANCH  26  28
HETATM   28  O5  UNK     1      31.798  -4.996  35.935  1.00  0.00    -0.318 OA
BRANCH  28  29
HETATM   29  C22 UNK     1      32.587  -3.815  36.111  1.00  0.00     0.174 C 
HETATM   30  C25 UNK     1      33.725  -3.829  35.113  1.00  0.00     0.034 C 
ENDBRANCH  28  29
ENDBRANCH  26  28
ENDBRANCH  10  26
BRANCH   4  31
HETATM   31  C12 UNK     1      30.838 -10.329  31.292  1.00  0.00     0.270 C 
HETATM   32  O4  UNK     1      30.898  -9.147  30.982  1.00  0.00    -0.264 OA
BRANCH  31  33
HETATM   33  O2  UNK     1      30.810 -11.389  30.435  1.00  0.00    -0.326 OA
HETATM   34  C20 UNK     1      30.039 -11.199  29.245  1.00  0.00     0.213 C 
ENDBRANCH  31  33
ENDBRANCH   4  31
TORSDOF 6
ENDMDL
MODEL 7
REMARK VINA RESULT:      -7.4      2.401      3.852
REMARK  6 active torsions:
REMARK  status: ('A' for Active; 'I' for Inactive)
REMARK    1  A    between atoms: C12_20  and  O2_2 
REMARK    2  A    between atoms: C14_22  and  O5_5 
REMARK    3  A    between atoms: C22_30  and  O5_5 
REMARK    4  A    between atoms: C12_20  and  C2_10 
REMARK    5  A    between atoms: C11_19  and  C6_14 
REMARK    6  A    between atoms: C14_22  and  C8_16 
ROOT
HETATM    1  O1  UNK     1      29.642  -8.275  33.087  1.00  0.00    -0.292 OA
HETATM    2  N1  UNK     1      33.585  -8.150  35.698  1.00  0.00    -0.362 N 
HETATM    3  C1  UNK     1      32.154 -10.907  33.565  1.00  0.00     0.008 C 
HETATM    4  C2  UNK     1      31.157 -10.089  32.733  1.00  0.00     0.164 C 
HETATM    5  C3  UNK     1      33.264 -10.011  34.132  1.00  0.00     0.063 C 
HETATM    6  C4  UNK     1      31.538  -8.224  34.507  1.00  0.00     0.025 C 
HETATM    7  C5  UNK     1      32.746  -8.757  34.783  1.00  0.00     0.020 C 
HETATM    8  C6  UNK     1      31.047  -6.971  35.227  1.00  0.00     0.104 C 
HETATM    9  C7  UNK     1      30.686  -8.828  33.437  1.00  0.00     0.172 C 
HETATM   10  C8  UNK     1      32.128  -6.329  36.098  1.00  0.00     0.052 C 
HETATM   11  C9  UNK     1      31.434 -11.677  34.683  1.00  0.00     0.011 C 
HETATM   12  C10 UNK     1      33.316  -6.939  36.316  1.00  0.00     0.018 C 
HETATM   13  C13 UNK     1      34.419  -6.413  37.193  1.00  0.00     0.069 C 
HETATM   14  H9  UNK     1      34.486  -8.579  35.874  1.00  0.00     0.165 HD
ENDROOT
BRANCH   8  15
HETATM   15  C11 UNK     1      29.833  -7.291  36.056  1.00  0.00     0.029 A 
HETATM   16  C15 UNK     1      29.955  -8.309  37.129  1.00  0.00     0.194 A 
HETATM   17  O7  UNK     1      31.007  -8.893  37.357  1.00  0.00    -0.287 OA
HETATM   18  C17 UNK     1      28.735  -8.586  37.909  1.00  0.00     0.048 A 
HETATM   19  C18 UNK     1      27.563  -7.893  37.606  1.00  0.00     0.089 A 
HETATM   20  C19 UNK     1      28.746  -9.529  38.940  1.00  0.00     0.018 A 
HETATM   21  O3  UNK     1      27.494  -6.956  36.604  1.00  0.00    -0.321 OA
HETATM   22  C21 UNK     1      26.397  -8.138  38.331  1.00  0.00     0.038 A 
HETATM   23  C16 UNK     1      28.638  -6.710  35.885  1.00  0.00     0.154 A 
HETATM   24  C24 UNK     1      26.407  -9.078  39.361  1.00  0.00     0.003 A 
HETATM   25  C23 UNK     1      27.579  -9.772  39.665  1.00  0.00     0.001 A 
ENDBRANCH   8  15
BRANCH  10  26
HETATM   26  C14 UNK     1      31.827  -4.994  36.642  1.00  0.00     0.292 C 
HETATM   27  O6  UNK     1      32.013  -3.962  36.023  1.00  0.00    -0.259 OA
BRANCH  26  28
HETATM   28  O5  UNK     1      31.330  -5.145  37.894  1.00  0.00    -0.318 OA
BRANCH  28  29
HETATM   29  C22 UNK     1      30.274  -4.244  38.239  1.00  0.00     0.174 C 
HETATM   30  C25 UNK     1      29.265  -4.973  39.101  1.00  0.00     0.034 C 
ENDBRANCH  28  29
ENDBRANCH  26  28
ENDBRANCH  10  26
BRANCH   4  31
HETATM   31  C12 UNK     1      31.743  -9.786  31.385  1.00  0.00     0.270 C 
HETATM   32  O4  UNK     1      32.210  -8.700  31.069  1.00  0.00    -0.264 OA
BRANCH  31  33
HETATM   33  O2  UNK     1      31.669 -10.896  30.596  1.00  0.00    -0.326 OA
HETATM   34  C20 UNK     1      30.365 -11.212  30.099  1.00  0.00     0.213 C 
ENDBRANCH  31  33
ENDBRANCH   4  31
TORSDOF 6
ENDMDL
MODEL 8
REMARK VINA RESULT:      -7.4      2.415      6.741
REMARK  6 active torsions:
REMARK  status: ('A' for Active; 'I' for Inactive)
REMARK    1  A    between atoms: C12_20  and  O2_2 
REMARK    2  A    between atoms: C14_22  and  O5_5 
REMARK    3  A    between atoms: C22_30  and  O5_5 
REMARK    4  A    between atoms: C12_20  and  C2_10 
REMARK    5  A    between atoms: C11_19  and  C6_14 
REMARK    6  A    between atoms: C14_22  and  C8_16 
ROOT
HETATM    1  O1  UNK     1      31.365  -5.786  37.103  1.00  0.00    -0.292 OA
HETATM    2  N1  UNK     1      27.877  -7.132  34.204  1.00  0.00    -0.362 N 
HETATM    3  C1  UNK     1      28.584  -8.081  37.781  1.00  0.00     0.008 C 
HETATM    4  C2  UNK     1      29.566  -6.962  38.149  1.00  0.00     0.164 C 
HETATM    5  C3  UNK     1      27.705  -7.674  36.591  1.00  0.00     0.063 C 
HETATM    6  C4  UNK     1      29.709  -6.540  35.586  1.00  0.00     0.025 C 
HETATM    7  C5  UNK     1      28.485  -7.090  35.444  1.00  0.00     0.020 C 
HETATM    8  C6  UNK     1      30.472  -5.997  34.381  1.00  0.00     0.104 C 
HETATM    9  C7  UNK     1      30.310  -6.402  36.948  1.00  0.00     0.172 C 
HETATM   10  C8  UNK     1      29.627  -5.977  33.106  1.00  0.00     0.052 C 
HETATM   11  C9  UNK     1      29.329  -9.395  37.501  1.00  0.00     0.011 C 
HETATM   12  C10 UNK     1      28.403  -6.552  33.060  1.00  0.00     0.018 C 
HETATM   13  C13 UNK     1      27.519  -6.628  31.845  1.00  0.00     0.069 C 
HETATM   14  H9  UNK     1      26.956  -7.549  34.141  1.00  0.00     0.165 HD
ENDROOT
BRANCH   8  15
HETATM   15  C11 UNK     1      31.729  -6.795  34.159  1.00  0.00     0.029 A 
HETATM   16  C15 UNK     1      33.032  -6.083  34.165  1.00  0.00     0.194 A 
HETATM   17  O7  UNK     1      33.112  -4.875  34.344  1.00  0.00    -0.287 OA
HETATM   18  C17 UNK     1      34.230  -6.912  33.940  1.00  0.00     0.048 A 
HETATM   19  C18 UNK     1      34.079  -8.284  33.739  1.00  0.00     0.089 A 
HETATM   20  C19 UNK     1      35.503  -6.335  33.926  1.00  0.00     0.018 A 
HETATM   21  O3  UNK     1      32.854  -8.903  33.742  1.00  0.00    -0.321 OA
HETATM   22  C21 UNK     1      35.199  -9.087  33.525  1.00  0.00     0.038 A 
HETATM   23  C16 UNK     1      31.746  -8.118  33.952  1.00  0.00     0.154 A 
HETATM   24  C24 UNK     1      36.470  -8.513  33.512  1.00  0.00     0.003 A 
HETATM   25  C23 UNK     1      36.622  -7.140  33.711  1.00  0.00     0.001 A 
ENDBRANCH   8  15
BRANCH  10  26
HETATM   26  C14 UNK     1      30.192  -5.256  31.953  1.00  0.00     0.292 C 
HETATM   27  O6  UNK     1      30.016  -4.067  31.757  1.00  0.00    -0.259 OA
BRANCH  26  28
HETATM   28  O5  UNK     1      30.904  -6.134  31.207  1.00  0.00    -0.318 OA
BRANCH  28  29
HETATM   29  C22 UNK     1      30.684  -6.048  29.795  1.00  0.00     0.174 C 
HETATM   30  C25 UNK     1      30.195  -7.388  29.289  1.00  0.00     0.034 C 
ENDBRANCH  28  29
ENDBRANCH  26  28
ENDBRANCH  10  26
BRANCH   4  31
HETATM   31  C12 UNK     1      28.853  -5.885  38.912  1.00  0.00     0.270 C 
HETATM   32  O4  UNK     1      28.066  -6.097  39.824  1.00  0.00    -0.264 OA
BRANCH  31  33
HETATM   33  O2  UNK     1      29.221  -4.664  38.428  1.00  0.00    -0.326 OA
HETATM   34  C20 UNK     1      29.574  -3.691  39.416  1.00  0.00     0.213 C 
ENDBRANCH  31  33
ENDBRANCH   4  31
TORSDOF 6
ENDMDL
MODEL 9
REMARK VINA RESULT:      -7.4      2.007      5.533
REMARK  6 active torsions:
REMARK  status: ('A' for Active; 'I' for Inactive)
REMARK    1  A    between atoms: C12_20  and  O2_2 
REMARK    2  A    between atoms: C14_22  and  O5_5 
REMARK    3  A    between atoms: C22_30  and  O5_5 
REMARK    4  A    between atoms: C12_20  and  C2_10 
REMARK    5  A    between atoms: C11_19  and  C6_14 
REMARK    6  A    between atoms: C14_22  and  C8_16 
ROOT
HETATM    1  O1  UNK     1      33.313  -9.356  34.804  1.00  0.00    -0.292 OA
HETATM    2  N1  UNK     1      32.828  -7.256  30.593  1.00  0.00    -0.362 N 
HETATM    3  C1  UNK     1      35.931  -8.157  32.529  1.00  0.00     0.008 C 
HETATM    4  C2  UNK     1      35.325  -9.151  33.529  1.00  0.00     0.164 C 
HETATM    5  C3  UNK     1      35.053  -8.029  31.277  1.00  0.00     0.063 C 
HETATM    6  C4  UNK     1      33.032  -8.190  32.761  1.00  0.00     0.025 C 
HETATM    7  C5  UNK     1      33.594  -7.831  31.588  1.00  0.00     0.020 C 
HETATM    8  C6  UNK     1      31.554  -7.929  33.037  1.00  0.00     0.104 C 
HETATM    9  C7  UNK     1      33.847  -8.910  33.787  1.00  0.00     0.172 C 
HETATM   10  C8  UNK     1      30.802  -7.425  31.804  1.00  0.00     0.052 C 
HETATM   11  C9  UNK     1      36.166  -6.789  33.189  1.00  0.00     0.011 C 
HETATM   12  C10 UNK     1      31.453  -7.092  30.666  1.00  0.00     0.018 C 
HETATM   13  C13 UNK     1      30.811  -6.542  29.422  1.00  0.00     0.069 C 
HETATM   14  H9  UNK     1      33.287  -7.005  29.725  1.00  0.00     0.165 HD
ENDROOT
BRANCH   8  15
HETATM   15  C11 UNK     1      31.402  -6.955  34.173  1.00  0.00     0.029 A 
HETATM   16  C15 UNK     1      30.589  -7.357  35.349  1.00  0.00     0.194 A 
HETATM   17  O7  UNK     1      30.043  -8.450  35.420  1.00  0.00    -0.287 OA
HETATM   18  C17 UNK     1      30.470  -6.363  36.432  1.00  0.00     0.048 A 
HETATM   19  C18 UNK     1      31.112  -5.133  36.298  1.00  0.00     0.089 A 
HETATM   20  C19 UNK     1      29.725  -6.646  37.580  1.00  0.00     0.018 A 
HETATM   21  O3  UNK     1      31.856  -4.801  35.193  1.00  0.00    -0.321 OA
HETATM   22  C21 UNK     1      31.014  -4.178  37.311  1.00  0.00     0.038 A 
HETATM   23  C16 UNK     1      31.957  -5.736  34.191  1.00  0.00     0.154 A 
HETATM   24  C24 UNK     1      30.272  -4.459  38.457  1.00  0.00     0.003 A 
HETATM   25  C23 UNK     1      29.629  -5.690  38.592  1.00  0.00     0.001 A 
ENDBRANCH   8  15
BRANCH  10  26
HETATM   26  C14 UNK     1      29.334  -7.371  31.905  1.00  0.00     0.292 C 
HETATM   27  O6  UNK     1      28.724  -6.377  32.254  1.00  0.00    -0.259 OA
BRANCH  26  28
HETATM   28  O5  UNK     1      28.836  -8.580  31.549  1.00  0.00    -0.318 OA
BRANCH  28  29
HETATM   29  C22 UNK     1      27.743  -8.537  30.627  1.00  0.00     0.174 C 
HETATM   30  C25 UNK     1      28.157  -9.217  29.339  1.00  0.00     0.034 C 
ENDBRANCH  28  29
ENDBRANCH  26  28
ENDBRANCH  10  26
BRANCH   4  31
HETATM   31  C12 UNK     1      35.586 -10.557  33.076  1.00  0.00     0.270 C 
HETATM   32  O4  UNK     1      34.708 -11.378  32.847  1.00  0.00    -0.264 OA
BRANCH  31  33
HETATM   33  O2  UNK     1      36.930 -10.758  32.964  1.00  0.00    -0.326 OA
HETATM   34  C20 UNK     1      37.486 -11.719  33.866  1.00  0.00     0.213 C 
ENDBRANCH  31  33
ENDBRANCH   4  31
TORSDOF 6
ENDMDL
MODEL 10
REMARK VINA RESULT:      -7.4      1.669      2.183
REMARK  6 active torsions:
REMARK  status: ('A' for Active; 'I' for Inactive)
REMARK    1  A    between atoms: C12_20  and  O2_2 
REMARK    2  A    between atoms: C14_22  and  O5_5 
REMARK    3  A    between atoms: C22_30  and  O5_5 
REMARK    4  A    between atoms: C12_20  and  C2_10 
REMARK    5  A    between atoms: C11_19  and  C6_14 
REMARK    6  A    between atoms: C14_22  and  C8_16 
ROOT
HETATM    1  O1  UNK     1      28.554  -7.818  32.996  1.00  0.00    -0.292 OA
HETATM    2  N1  UNK     1      33.179  -8.789  32.798  1.00  0.00    -0.362 N 
HETATM    3  C1  UNK     1      30.245 -10.542  31.213  1.00  0.00     0.008 C 
HETATM    4  C2  UNK     1      29.185  -9.443  31.361  1.00  0.00     0.164 C 
HETATM    5  C3  UNK     1      31.661  -9.953  31.261  1.00  0.00     0.063 C 
HETATM    6  C4  UNK     1      30.861  -8.353  33.025  1.00  0.00     0.025 C 
HETATM    7  C5  UNK     1      31.872  -8.996  32.404  1.00  0.00     0.020 C 
HETATM    8  C6  UNK     1      31.129  -7.422  34.205  1.00  0.00     0.104 C 
HETATM    9  C7  UNK     1      29.462  -8.500  32.519  1.00  0.00     0.172 C 
HETATM   10  C8  UNK     1      32.621  -7.177  34.438  1.00  0.00     0.052 C 
HETATM   11  C9  UNK     1      30.058 -11.633  32.278  1.00  0.00     0.011 C 
HETATM   12  C10 UNK     1      33.566  -7.870  33.761  1.00  0.00     0.018 C 
HETATM   13  C13 UNK     1      35.052  -7.736  33.953  1.00  0.00     0.069 C 
HETATM   14  H9  UNK     1      33.909  -9.288  32.302  1.00  0.00     0.165 HD
ENDROOT
BRANCH   8  15
HETATM   15  C11 UNK     1      30.492  -7.970  35.454  1.00  0.00     0.029 A 
HETATM   16  C15 UNK     1      29.613  -7.077  36.251  1.00  0.00     0.194 A 
HETATM   17  O7  UNK     1      29.394  -5.918  35.925  1.00  0.00    -0.287 OA
HETATM   18  C17 UNK     1      29.016  -7.663  37.466  1.00  0.00     0.048 A 
HETATM   19  C18 UNK     1      29.302  -8.989  37.791  1.00  0.00     0.089 A 
HETATM   20  C19 UNK     1      28.176  -6.904  38.285  1.00  0.00     0.018 A 
HETATM   21  O3  UNK     1      30.120  -9.781  37.023  1.00  0.00    -0.321 OA
HETATM   22  C21 UNK     1      28.748  -9.564  38.935  1.00  0.00     0.038 A 
HETATM   23  C16 UNK     1      30.669  -9.222  35.896  1.00  0.00     0.154 A 
HETATM   24  C24 UNK     1      27.908  -8.808  39.752  1.00  0.00     0.003 A 
HETATM   25  C23 UNK     1      27.623  -7.481  39.428  1.00  0.00     0.001 A 
ENDBRANCH   8  15
BRANCH  10  26
HETATM   26  C14 UNK     1      32.971  -6.114  35.396  1.00  0.00     0.292 C 
HETATM   27  O6  UNK     1      33.011  -4.934  35.100  1.00  0.00    -0.259 OA
BRANCH  26  28
HETATM   28  O5  UNK     1      33.222  -6.688  36.597  1.00  0.00    -0.318 OA
BRANCH  28  29
HETATM   29  C22 UNK     1      33.468  -5.771  37.667  1.00  0.00     0.174 C 
HETATM   30  C25 UNK     1      32.172  -5.515  38.406  1.00  0.00     0.034 C 
ENDBRANCH  28  29
ENDBRANCH  26  28
ENDBRANCH  10  26
BRANCH   4  31
HETATM   31  C12 UNK     1      29.032  -8.701  30.066  1.00  0.00     0.270 C 
HETATM   32  O4  UNK     1      29.687  -7.714  29.761  1.00  0.00    -0.264 OA
BRANCH  31  33
HETATM   33  O2  UNK     1      28.067  -9.298  29.310  1.00  0.00    -0.326 OA
HETATM   34  C20 UNK     1      28.544 -10.080  28.210  1.00  0.00     0.213 C 
ENDBRANCH  31  33
ENDBRANCH   4  31
TORSDOF 6
ENDMDL
