MODEL 1
REMARK VINA RESULT:      -8.4      0.000      0.000
REMARK  3 active torsions:
REMARK  status: ('A' for Active; 'I' for Inactive)
REMARK    1  A    between atoms: C14_20  and  O2_3 
REMARK    2  A    between atoms: C11_17  and  N1_6 
REMARK    3  A    between atoms: C5_11  and  C6_12 
ROOT
HETATM    1  C5  UNK     1      11.010   5.602   8.120  1.00  0.00    -0.032 A 
HETATM    2  C9  UNK     1      10.001   5.839   9.039  1.00  0.00     0.050 A 
HETATM    3  C10 UNK     1      10.834   5.863   6.772  1.00  0.00     0.014 A 
HETATM    4  C11 UNK     1       8.781   6.351   8.596  1.00  0.00     0.136 A 
HETATM    5  C14 UNK     1       8.588   6.620   7.241  1.00  0.00     0.098 A 
HETATM    6  C15 UNK     1       9.614   6.376   6.329  1.00  0.00     0.040 A 
ENDROOT
BRANCH   1   7
HETATM    7  C6  UNK     1      12.299   5.060   8.586  1.00  0.00     0.034 C 
HETATM    8  C2  UNK     1      13.368   5.777   8.937  1.00  0.00     0.057 A 
HETATM    9  S1  UNK     1      14.874   5.115   9.483  1.00  0.00    -0.086 SA
HETATM   10  C4  UNK     1      13.385   7.264   8.899  1.00  0.00     0.200 A 
HETATM   11  C3  UNK     1      15.572   6.734   9.677  1.00  0.00     0.020 A 
HETATM   12  C1  UNK     1      14.693   7.762   9.339  1.00  0.00     0.032 A 
HETATM   13  C8  UNK     1      16.855   7.031  10.114  1.00  0.00     0.020 A 
HETATM   14  C7  UNK     1      15.059   9.097   9.423  1.00  0.00     0.017 A 
HETATM   15  C12 UNK     1      16.349   9.397   9.863  1.00  0.00     0.001 A 
HETATM   16  C13 UNK     1      17.241   8.371  10.206  1.00  0.00     0.001 A 
HETATM   17  O1  UNK     1      12.461   7.980   8.557  1.00  0.00    -0.286 OA
ENDBRANCH   1   7
BRANCH   4  18
HETATM   18  N1  UNK     1       7.747   6.594   9.541  1.00  0.00    -0.113 N 
HETATM   19  O3  UNK     1       7.942   7.432  10.453  1.00  0.00    -0.532 OA
HETATM   20  O4  UNK     1       6.669   5.961   9.434  1.00  0.00    -0.532 OA
ENDBRANCH   4  18
BRANCH   5  21
HETATM   21  O2  UNK     1       7.405   7.123   6.785  1.00  0.00    -0.358 OA
HETATM   22  H9  UNK     1       7.584   7.909   6.240  1.00  0.00     0.217 HD
ENDBRANCH   5  21
TORSDOF 3
ENDMDL
MODEL 2
REMARK VINA RESULT:      -7.9      4.041      7.597
REMARK  3 active torsions:
REMARK  status: ('A' for Active; 'I' for Inactive)
REMARK    1  A    between atoms: C14_20  and  O2_3 
REMARK    2  A    between atoms: C11_17  and  N1_6 
REMARK    3  A    between atoms: C5_11  and  C6_12 
ROOT
HETATM    1  C5  UNK     1       9.004   6.940   8.145  1.00  0.00    -0.032 A 
HETATM    2  C9  UNK     1      10.322   6.901   8.568  1.00  0.00     0.050 A 
HETATM    3  C10 UNK     1       8.661   6.682   6.829  1.00  0.00     0.014 A 
HETATM    4  C11 UNK     1      11.325   6.594   7.649  1.00  0.00     0.136 A 
HETATM    5  C14 UNK     1      10.996   6.330   6.319  1.00  0.00     0.098 A 
HETATM    6  C15 UNK     1       9.664   6.375   5.909  1.00  0.00     0.040 A 
ENDROOT
BRANCH   1   7
HETATM    7  C6  UNK     1       7.943   7.265   9.116  1.00  0.00     0.034 C 
HETATM    8  C2  UNK     1       7.191   6.384   9.777  1.00  0.00     0.057 A 
HETATM    9  S1  UNK     1       5.949   6.791  10.914  1.00  0.00    -0.086 SA
HETATM   10  C4  UNK     1       7.341   4.914   9.606  1.00  0.00     0.200 A 
HETATM   11  C3  UNK     1       5.584   5.080  11.204  1.00  0.00     0.020 A 
HETATM   12  C1  UNK     1       6.379   4.209  10.461  1.00  0.00     0.032 A 
HETATM   13  C8  UNK     1       4.619   4.578  12.066  1.00  0.00     0.020 A 
HETATM   14  C7  UNK     1       6.240   2.832  10.551  1.00  0.00     0.017 A 
HETATM   15  C12 UNK     1       5.270   2.325  11.417  1.00  0.00     0.001 A 
HETATM   16  C13 UNK     1       4.465   3.193  12.170  1.00  0.00     0.001 A 
HETATM   17  O1  UNK     1       8.138   4.357   8.873  1.00  0.00    -0.286 OA
ENDBRANCH   1   7
BRANCH   4  18
HETATM   18  N1  UNK     1      12.678   6.553   8.085  1.00  0.00    -0.113 N 
HETATM   19  O3  UNK     1      13.226   7.617   8.462  1.00  0.00    -0.532 OA
HETATM   20  O4  UNK     1      13.284   5.455   8.081  1.00  0.00    -0.532 OA
ENDBRANCH   4  18
BRANCH   5  21
HETATM   21  O2  UNK     1      11.959   6.027   5.403  1.00  0.00    -0.358 OA
HETATM   22  H9  UNK     1      12.569   5.374   5.788  1.00  0.00     0.217 HD
ENDBRANCH   5  21
TORSDOF 3
ENDMDL
MODEL 3
REMARK VINA RESULT:      -7.8     23.018     24.761
REMARK  3 active torsions:
REMARK  status: ('A' for Active; 'I' for Inactive)
REMARK    1  A    between atoms: C14_20  and  O2_3 
REMARK    2  A    between atoms: C11_17  and  N1_6 
REMARK    3  A    between atoms: C5_11  and  C6_12 
ROOT
HETATM    1  C5  UNK     1      19.028   5.857  31.802  1.00  0.00    -0.032 A 
HETATM    2  C9  UNK     1      18.729   4.628  32.366  1.00  0.00     0.050 A 
HETATM    3  C10 UNK     1      19.170   6.007  30.433  1.00  0.00     0.014 A 
HETATM    4  C11 UNK     1      18.567   3.518  31.538  1.00  0.00     0.136 A 
HETATM    5  C14 UNK     1      18.706   3.653  30.156  1.00  0.00     0.098 A 
HETATM    6  C15 UNK     1      19.007   4.897  29.604  1.00  0.00     0.040 A 
ENDROOT
BRANCH   1   7
HETATM    7  C6  UNK     1      19.201   7.031  32.677  1.00  0.00     0.034 C 
HETATM    8  C2  UNK     1      18.239   7.879  33.047  1.00  0.00     0.057 A 
HETATM    9  S1  UNK     1      18.467   9.252  34.078  1.00  0.00    -0.086 SA
HETATM   10  C4  UNK     1      16.827   7.732  32.605  1.00  0.00     0.200 A 
HETATM   11  C3  UNK     1      16.750   9.682  33.970  1.00  0.00     0.020 A 
HETATM   12  C1  UNK     1      16.009   8.811  33.172  1.00  0.00     0.032 A 
HETATM   13  C8  UNK     1      16.130  10.760  34.584  1.00  0.00     0.020 A 
HETATM   14  C7  UNK     1      14.649   8.984  32.965  1.00  0.00     0.017 A 
HETATM   15  C12 UNK     1      14.024  10.068  33.582  1.00  0.00     0.001 A 
HETATM   16  C13 UNK     1      14.759  10.950  34.387  1.00  0.00     0.001 A 
HETATM   17  O1  UNK     1      16.392   6.856  31.880  1.00  0.00    -0.286 OA
ENDBRANCH   1   7
BRANCH   4  18
HETATM   18  N1  UNK     1      18.260   2.257  32.118  1.00  0.00    -0.113 N 
HETATM   19  O3  UNK     1      17.483   2.215  33.101  1.00  0.00    -0.532 OA
HETATM   20  O4  UNK     1      18.777   1.223  31.630  1.00  0.00    -0.532 OA
ENDBRANCH   4  18
BRANCH   5  21
HETATM   21  O2  UNK     1      18.550   2.583  29.325  1.00  0.00    -0.358 OA
HETATM   22  H9  UNK     1      19.270   1.949  29.487  1.00  0.00     0.217 HD
ENDBRANCH   5  21
TORSDOF 3
ENDMDL
MODEL 4
REMARK VINA RESULT:      -7.6     25.627     27.288
REMARK  3 active torsions:
REMARK  status: ('A' for Active; 'I' for Inactive)
REMARK    1  A    between atoms: C14_20  and  O2_3 
REMARK    2  A    between atoms: C11_17  and  N1_6 
REMARK    3  A    between atoms: C5_11  and  C6_12 
ROOT
HETATM    1  C5  UNK     1      18.087   0.824  35.700  1.00  0.00    -0.032 A 
HETATM    2  C9  UNK     1      19.235   0.056  35.797  1.00  0.00     0.050 A 
HETATM    3  C10 UNK     1      16.832   0.274  35.896  1.00  0.00     0.014 A 
HETATM    4  C11 UNK     1      19.125  -1.301  36.100  1.00  0.00     0.136 A 
HETATM    5  C14 UNK     1      17.867  -1.871  36.301  1.00  0.00     0.098 A 
HETATM    6  C15 UNK     1      16.721  -1.084  36.200  1.00  0.00     0.040 A 
ENDROOT
BRANCH   1   7
HETATM    7  C6  UNK     1      18.203   2.258  35.379  1.00  0.00     0.034 C 
HETATM    8  C2  UNK     1      18.312   2.780  34.156  1.00  0.00     0.057 A 
HETATM    9  S1  UNK     1      18.446   4.471  33.805  1.00  0.00    -0.086 SA
HETATM   10  C4  UNK     1      18.328   1.944  32.926  1.00  0.00     0.200 A 
HETATM   11  C3  UNK     1      18.530   4.153  32.062  1.00  0.00     0.020 A 
HETATM   12  C1  UNK     1      18.458   2.799  31.740  1.00  0.00     0.032 A 
HETATM   13  C8  UNK     1      18.655   5.101  31.057  1.00  0.00     0.020 A 
HETATM   14  C7  UNK     1      18.509   2.353  30.428  1.00  0.00     0.017 A 
HETATM   15  C12 UNK     1      18.635   3.305  29.416  1.00  0.00     0.001 A 
HETATM   16  C13 UNK     1      18.707   4.670  29.728  1.00  0.00     0.001 A 
HETATM   17  O1  UNK     1      18.247   0.730  32.886  1.00  0.00    -0.286 OA
ENDBRANCH   1   7
BRANCH   4  18
HETATM   18  N1  UNK     1      20.304  -2.089  36.199  1.00  0.00    -0.113 N 
HETATM   19  O3  UNK     1      21.170  -2.001  35.296  1.00  0.00    -0.532 OA
HETATM   20  O4  UNK     1      20.444  -2.849  37.187  1.00  0.00    -0.532 OA
ENDBRANCH   4  18
BRANCH   5  21
HETATM   21  O2  UNK     1      17.734  -3.195  36.600  1.00  0.00    -0.358 OA
HETATM   22  H9  UNK     1      18.105  -3.359  37.484  1.00  0.00     0.217 HD
ENDBRANCH   5  21
TORSDOF 3
ENDMDL
MODEL 5
REMARK VINA RESULT:      -7.4     32.381     34.001
REMARK  3 active torsions:
REMARK  status: ('A' for Active; 'I' for Inactive)
REMARK    1  A    between atoms: C14_20  and  O2_3 
REMARK    2  A    between atoms: C11_17  and  N1_6 
REMARK    3  A    between atoms: C5_11  and  C6_12 
ROOT
HETATM    1  C5  UNK     1      22.005  -9.963  36.205  1.00  0.00    -0.032 A 
HETATM    2  C9  UNK     1      21.658  -8.882  35.411  1.00  0.00     0.050 A 
HETATM    3  C10 UNK     1      21.116 -10.502  37.118  1.00  0.00     0.014 A 
HETATM    4  C11 UNK     1      20.385  -8.326  35.534  1.00  0.00     0.136 A 
HETATM    5  C14 UNK     1      19.476  -8.859  36.450  1.00  0.00     0.098 A 
HETATM    6  C15 UNK     1      19.842  -9.946  37.241  1.00  0.00     0.040 A 
ENDROOT
BRANCH   1   7
HETATM    7  C6  UNK     1      23.350 -10.550  36.076  1.00  0.00     0.034 C 
HETATM    8  C2  UNK     1      24.468 -10.075  36.628  1.00  0.00     0.057 A 
HETATM    9  S1  UNK     1      26.040 -10.784  36.462  1.00  0.00    -0.086 SA
HETATM   10  C4  UNK     1      24.487  -8.850  37.472  1.00  0.00     0.200 A 
HETATM   11  C3  UNK     1      26.771  -9.524  37.473  1.00  0.00     0.020 A 
HETATM   12  C1  UNK     1      25.855  -8.580  37.933  1.00  0.00     0.032 A 
HETATM   13  C8  UNK     1      28.111  -9.418  37.816  1.00  0.00     0.020 A 
HETATM   14  C7  UNK     1      26.238  -7.516  38.736  1.00  0.00     0.017 A 
HETATM   15  C12 UNK     1      27.585  -7.408  39.082  1.00  0.00     0.001 A 
HETATM   16  C13 UNK     1      28.516  -8.352  38.626  1.00  0.00     0.001 A 
HETATM   17  O1  UNK     1      23.524  -8.159  37.751  1.00  0.00    -0.286 OA
ENDBRANCH   1   7
BRANCH   4  18
HETATM   18  N1  UNK     1      20.029  -7.217  34.719  1.00  0.00    -0.113 N 
HETATM   19  O3  UNK     1      19.447  -6.239  35.245  1.00  0.00    -0.532 OA
HETATM   20  O4  UNK     1      20.309  -7.249  33.496  1.00  0.00    -0.532 OA
ENDBRANCH   4  18
BRANCH   5  21
HETATM   21  O2  UNK     1      18.225  -8.333  36.587  1.00  0.00    -0.358 OA
HETATM   22  H9  UNK     1      17.833  -8.215  35.705  1.00  0.00     0.217 HD
ENDBRANCH   5  21
TORSDOF 3
ENDMDL
MODEL 6
REMARK VINA RESULT:      -7.4     29.307     30.977
REMARK  3 active torsions:
REMARK  status: ('A' for Active; 'I' for Inactive)
REMARK    1  A    between atoms: C14_20  and  O2_3 
REMARK    2  A    between atoms: C11_17  and  N1_6 
REMARK    3  A    between atoms: C5_11  and  C6_12 
ROOT
HETATM    1  C5  UNK     1      19.871  -2.589  36.420  1.00  0.00    -0.032 A 
HETATM    2  C9  UNK     1      20.017  -2.406  35.055  1.00  0.00     0.050 A 
HETATM    3  C10 UNK     1      18.816  -2.023  37.115  1.00  0.00     0.014 A 
HETATM    4  C11 UNK     1      19.081  -1.636  34.366  1.00  0.00     0.136 A 
HETATM    5  C14 UNK     1      18.011  -1.059  35.052  1.00  0.00     0.098 A 
HETATM    6  C15 UNK     1      17.879  -1.253  36.426  1.00  0.00     0.040 A 
ENDROOT
BRANCH   1   7
HETATM    7  C6  UNK     1      20.860  -3.403  37.149  1.00  0.00     0.034 C 
HETATM    8  C2  UNK     1      20.726  -4.690  37.476  1.00  0.00     0.057 A 
HETATM    9  S1  UNK     1      21.905  -5.625  38.335  1.00  0.00    -0.086 SA
HETATM   10  C4  UNK     1      19.518  -5.484  37.129  1.00  0.00     0.200 A 
HETATM   11  C3  UNK     1      20.877  -7.069  38.274  1.00  0.00     0.020 A 
HETATM   12  C1  UNK     1      19.664  -6.860  37.620  1.00  0.00     0.032 A 
HETATM   13  C8  UNK     1      21.176  -8.317  38.802  1.00  0.00     0.020 A 
HETATM   14  C7  UNK     1      18.725  -7.870  37.474  1.00  0.00     0.017 A 
HETATM   15  C12 UNK     1      19.025  -9.125  38.003  1.00  0.00     0.001 A 
HETATM   16  C13 UNK     1      20.243  -9.348  38.663  1.00  0.00     0.001 A 
HETATM   17  O1  UNK     1      18.542  -5.074  36.527  1.00  0.00    -0.286 OA
ENDBRANCH   1   7
BRANCH   4  18
HETATM   18  N1  UNK     1      19.231  -1.449  32.964  1.00  0.00    -0.113 N 
HETATM   19  O3  UNK     1      18.206  -1.414  32.243  1.00  0.00    -0.532 OA
HETATM   20  O4  UNK     1      20.386  -1.325  32.490  1.00  0.00    -0.532 OA
ENDBRANCH   4  18
BRANCH   5  21
HETATM   21  O2  UNK     1      17.083  -0.303  34.399  1.00  0.00    -0.358 OA
HETATM   22  H9  UNK     1      17.382  -0.151  33.486  1.00  0.00     0.217 HD
ENDBRANCH   5  21
TORSDOF 3
ENDMDL
MODEL 7
REMARK VINA RESULT:      -7.3     24.140     25.801
REMARK  3 active torsions:
REMARK  status: ('A' for Active; 'I' for Inactive)
REMARK    1  A    between atoms: C14_20  and  O2_3 
REMARK    2  A    between atoms: C11_17  and  N1_6 
REMARK    3  A    between atoms: C5_11  and  C6_12 
ROOT
HETATM    1  C5  UNK     1      18.693   1.917  30.911  1.00  0.00    -0.032 A 
HETATM    2  C9  UNK     1      19.630   0.906  30.781  1.00  0.00     0.050 A 
HETATM    3  C10 UNK     1      17.806   2.215  29.891  1.00  0.00     0.014 A 
HETATM    4  C11 UNK     1      19.680   0.171  29.597  1.00  0.00     0.136 A 
HETATM    5  C14 UNK     1      18.793   0.457  28.560  1.00  0.00     0.098 A 
HETATM    6  C15 UNK     1      17.856   1.479  28.707  1.00  0.00     0.040 A 
ENDROOT
BRANCH   1   7
HETATM    7  C6  UNK     1      18.639   2.695  32.162  1.00  0.00     0.034 C 
HETATM    8  C2  UNK     1      18.407   2.203  33.381  1.00  0.00     0.057 A 
HETATM    9  S1  UNK     1      18.349   3.140  34.837  1.00  0.00    -0.086 SA
HETATM   10  C4  UNK     1      18.167   0.756  33.629  1.00  0.00     0.200 A 
HETATM   11  C3  UNK     1      18.012   1.696  35.811  1.00  0.00     0.020 A 
HETATM   12  C1  UNK     1      17.943   0.523  35.060  1.00  0.00     0.032 A 
HETATM   13  C8  UNK     1      17.823   1.655  37.185  1.00  0.00     0.020 A 
HETATM   14  C7  UNK     1      17.686  -0.708  35.645  1.00  0.00     0.017 A 
HETATM   15  C12 UNK     1      17.496  -0.751  37.026  1.00  0.00     0.001 A 
HETATM   16  C13 UNK     1      17.564   0.423  37.792  1.00  0.00     0.001 A 
HETATM   17  O1  UNK     1      18.155  -0.121  32.784  1.00  0.00    -0.286 OA
ENDBRANCH   1   7
BRANCH   4  18
HETATM   18  N1  UNK     1      20.643  -0.868  29.465  1.00  0.00    -0.113 N 
HETATM   19  O3  UNK     1      20.678  -1.776  30.330  1.00  0.00    -0.532 OA
HETATM   20  O4  UNK     1      21.429  -0.845  28.488  1.00  0.00    -0.532 OA
ENDBRANCH   4  18
BRANCH   5  21
HETATM   21  O2  UNK     1      18.822  -0.249  27.393  1.00  0.00    -0.358 OA
HETATM   22  H9  UNK     1      18.187  -0.984  27.452  1.00  0.00     0.217 HD
ENDBRANCH   5  21
TORSDOF 3
ENDMDL
MODEL 8
REMARK VINA RESULT:      -7.3      1.233      2.091
REMARK  3 active torsions:
REMARK  status: ('A' for Active; 'I' for Inactive)
REMARK    1  A    between atoms: C14_20  and  O2_3 
REMARK    2  A    between atoms: C11_17  and  N1_6 
REMARK    3  A    between atoms: C5_11  and  C6_12 
ROOT
HETATM    1  C5  UNK     1      11.127   5.022   8.957  1.00  0.00    -0.032 A 
HETATM    2  C9  UNK     1      10.466   5.750   7.982  1.00  0.00     0.050 A 
HETATM    3  C10 UNK     1      10.446   4.456  10.021  1.00  0.00     0.014 A 
HETATM    4  C11 UNK     1       9.085   5.917   8.075  1.00  0.00     0.136 A 
HETATM    5  C14 UNK     1       8.383   5.353   9.140  1.00  0.00     0.098 A 
HETATM    6  C15 UNK     1       9.064   4.622  10.113  1.00  0.00     0.040 A 
ENDROOT
BRANCH   1   7
HETATM    7  C6  UNK     1      12.588   4.845   8.861  1.00  0.00     0.034 C 
HETATM    8  C2  UNK     1      13.510   5.726   9.253  1.00  0.00     0.057 A 
HETATM    9  S1  UNK     1      15.222   5.496   9.129  1.00  0.00    -0.086 SA
HETATM   10  C4  UNK     1      13.158   7.039   9.857  1.00  0.00     0.200 A 
HETATM   11  C3  UNK     1      15.539   7.084   9.851  1.00  0.00     0.020 A 
HETATM   12  C1  UNK     1      14.380   7.785  10.183  1.00  0.00     0.032 A 
HETATM   13  C8  UNK     1      16.784   7.646  10.093  1.00  0.00     0.020 A 
HETATM   14  C7  UNK     1      14.424   9.047  10.757  1.00  0.00     0.017 A 
HETATM   15  C12 UNK     1      15.676   9.613  11.000  1.00  0.00     0.001 A 
HETATM   16  C13 UNK     1      16.848   8.917  10.671  1.00  0.00     0.001 A 
HETATM   17  O1  UNK     1      12.031   7.454  10.061  1.00  0.00    -0.286 OA
ENDBRANCH   1   7
BRANCH   4  18
HETATM   18  N1  UNK     1       8.407   6.666   7.073  1.00  0.00    -0.113 N 
HETATM   19  O3  UNK     1       7.393   7.330   7.394  1.00  0.00    -0.532 OA
HETATM   20  O4  UNK     1       8.844   6.640   5.898  1.00  0.00    -0.532 OA
ENDBRANCH   4  18
BRANCH   5  21
HETATM   21  O2  UNK     1       7.032   5.501   9.251  1.00  0.00    -0.358 OA
HETATM   22  H9  UNK     1       6.774   6.355   8.863  1.00  0.00     0.217 HD
ENDBRANCH   5  21
TORSDOF 3
ENDMDL
MODEL 9
REMARK VINA RESULT:      -7.2      1.628      2.115
REMARK  3 active torsions:
REMARK  status: ('A' for Active; 'I' for Inactive)
REMARK    1  A    between atoms: C14_20  and  O2_3 
REMARK    2  A    between atoms: C11_17  and  N1_6 
REMARK    3  A    between atoms: C5_11  and  C6_12 
ROOT
HETATM    1  C5  UNK     1      10.533   7.682   8.246  1.00  0.00    -0.032 A 
HETATM    2  C9  UNK     1       9.606   7.349   9.219  1.00  0.00     0.050 A 
HETATM    3  C10 UNK     1      10.517   7.083   6.998  1.00  0.00     0.014 A 
HETATM    4  C11 UNK     1       8.634   6.390   8.936  1.00  0.00     0.136 A 
HETATM    5  C14 UNK     1       8.602   5.777   7.683  1.00  0.00     0.098 A 
HETATM    6  C15 UNK     1       9.544   6.124   6.715  1.00  0.00     0.040 A 
ENDROOT
BRANCH   1   7
HETATM    7  C6  UNK     1      11.562   8.695   8.545  1.00  0.00     0.034 C 
HETATM    8  C2  UNK     1      12.826   8.448   8.891  1.00  0.00     0.057 A 
HETATM    9  S1  UNK     1      14.018   9.657   9.238  1.00  0.00    -0.086 SA
HETATM   10  C4  UNK     1      13.367   7.068   9.019  1.00  0.00     0.200 A 
HETATM   11  C3  UNK     1      15.249   8.422   9.560  1.00  0.00     0.020 A 
HETATM   12  C1  UNK     1      14.781   7.118   9.412  1.00  0.00     0.032 A 
HETATM   13  C8  UNK     1      16.567   8.650   9.929  1.00  0.00     0.020 A 
HETATM   14  C7  UNK     1      15.597   6.016   9.623  1.00  0.00     0.017 A 
HETATM   15  C12 UNK     1      16.922   6.244   9.994  1.00  0.00     0.001 A 
HETATM   16  C13 UNK     1      17.405   7.552  10.146  1.00  0.00     0.001 A 
HETATM   17  O1  UNK     1      12.747   6.037   8.831  1.00  0.00    -0.286 OA
ENDBRANCH   1   7
BRANCH   4  18
HETATM   18  N1  UNK     1       7.682   6.049   9.936  1.00  0.00    -0.113 N 
HETATM   19  O3  UNK     1       8.076   5.473  10.978  1.00  0.00    -0.532 OA
HETATM   20  O4  UNK     1       6.475   6.335   9.747  1.00  0.00    -0.532 OA
ENDBRANCH   4  18
BRANCH   5  21
HETATM   21  O2  UNK     1       7.661   4.838   7.382  1.00  0.00    -0.358 OA
HETATM   22  H9  UNK     1       8.056   4.170   6.796  1.00  0.00     0.217 HD
ENDBRANCH   5  21
TORSDOF 3
ENDMDL
MODEL 10
REMARK VINA RESULT:      -7.2      4.167      6.535
REMARK  3 active torsions:
REMARK  status: ('A' for Active; 'I' for Inactive)
REMARK    1  A    between atoms: C14_20  and  O2_3 
REMARK    2  A    between atoms: C11_17  and  N1_6 
REMARK    3  A    between atoms: C5_11  and  C6_12 
ROOT
HETATM    1  C5  UNK     1       8.944   6.013   8.076  1.00  0.00    -0.032 A 
HETATM    2  C9  UNK     1      10.221   5.678   8.494  1.00  0.00     0.050 A 
HETATM    3  C10 UNK     1       8.692   6.407   6.773  1.00  0.00     0.014 A 
HETATM    4  C11 UNK     1      11.276   5.739   7.584  1.00  0.00     0.136 A 
HETATM    5  C14 UNK     1      11.038   6.134   6.267  1.00  0.00     0.098 A 
HETATM    6  C15 UNK     1       9.747   6.468   5.862  1.00  0.00     0.040 A 
ENDROOT
BRANCH   1   7
HETATM    7  C6  UNK     1       7.829   5.949   9.038  1.00  0.00     0.034 C 
HETATM    8  C2  UNK     1       7.467   6.918   9.881  1.00  0.00     0.057 A 
HETATM    9  S1  UNK     1       6.151   6.820  11.004  1.00  0.00    -0.086 SA
HETATM   10  C4  UNK     1       8.173   8.226   9.950  1.00  0.00     0.200 A 
HETATM   11  C3  UNK     1       6.470   8.460  11.598  1.00  0.00     0.020 A 
HETATM   12  C1  UNK     1       7.547   9.080  10.967  1.00  0.00     0.032 A 
HETATM   13  C8  UNK     1       5.765   9.129  12.588  1.00  0.00     0.020 A 
HETATM   14  C7  UNK     1       7.951  10.365  11.298  1.00  0.00     0.017 A 
HETATM   15  C12 UNK     1       7.243  11.039  12.294  1.00  0.00     0.001 A 
HETATM   16  C13 UNK     1       6.156  10.425  12.934  1.00  0.00     0.001 A 
HETATM   17  O1  UNK     1       9.128   8.560   9.273  1.00  0.00    -0.286 OA
ENDBRANCH   1   7
BRANCH   4  18
HETATM   18  N1  UNK     1      12.586   5.395   8.015  1.00  0.00    -0.113 N 
HETATM   19  O3  UNK     1      13.484   6.270   7.986  1.00  0.00    -0.532 OA
HETATM   20  O4  UNK     1      12.807   4.225   8.411  1.00  0.00    -0.532 OA
ENDBRANCH   4  18
BRANCH   5  21
HETATM   21  O2  UNK     1      12.053   6.200   5.358  1.00  0.00    -0.358 OA
HETATM   22  H9  UNK     1      12.776   5.617   5.647  1.00  0.00     0.217 HD
ENDBRANCH   5  21
TORSDOF 3
ENDMDL
