MODEL 1
REMARK VINA RESULT:      -8.0      0.000      0.000
REMARK  4 active torsions:
REMARK  status: ('A' for Active; 'I' for Inactive)
REMARK    1  A    between atoms: C5_10  and  O2_2 
REMARK    2  A    between atoms: C9_14  and  O4_4 
REMARK    3  A    between atoms: C15_20  and  O5_5 
REMARK    4  A    between atoms: C2_7  and  C4_9 
ROOT
HETATM    1  O1  UNK     1      13.129   7.500   8.682  1.00  0.00    -0.306 OA
HETATM    2  O3  UNK     1      14.866   3.918   9.552  1.00  0.00    -0.284 OA
HETATM    3  C1  UNK     1      15.059   6.267   9.487  1.00  0.00     0.053 A 
HETATM    4  C2  UNK     1      12.447   6.306   8.513  1.00  0.00     0.123 A 
HETATM    5  C3  UNK     1      14.411   7.458   9.168  1.00  0.00     0.090 A 
HETATM    6  C5  UNK     1      12.961   5.089   8.775  1.00  0.00     0.152 A 
HETATM    7  C6  UNK     1      14.346   4.995   9.296  1.00  0.00     0.220 A 
HETATM    8  C7  UNK     1      16.367   6.286   9.979  1.00  0.00     0.055 A 
HETATM    9  C8  UNK     1      15.067   8.678   9.338  1.00  0.00     0.041 A 
HETATM   10  C9  UNK     1      17.021   7.507  10.149  1.00  0.00     0.066 A 
HETATM   11  C12 UNK     1      16.373   8.701   9.829  1.00  0.00     0.039 A 
ENDROOT
BRANCH   4  12
HETATM   12  C4  UNK     1      11.083   6.491   7.988  1.00  0.00     0.001 A 
HETATM   13  C10 UNK     1      10.820   6.276   6.635  1.00  0.00     0.017 A 
HETATM   14  C13 UNK     1       9.528   6.451   6.138  1.00  0.00     0.037 A 
HETATM   15  C15 UNK     1       8.500   6.841   6.996  1.00  0.00     0.065 A 
HETATM   16  C14 UNK     1       8.761   7.056   8.349  1.00  0.00     0.037 A 
HETATM   17  C11 UNK     1      10.054   6.881   8.845  1.00  0.00     0.017 A 
BRANCH  15  18
HETATM   18  O5  UNK     1       7.239   7.011   6.512  1.00  0.00    -0.361 OA
HETATM   19  H10 UNK     1       6.739   7.577   7.125  1.00  0.00     0.217 HD
ENDBRANCH  15  18
ENDBRANCH   4  12
BRANCH   6  20
HETATM   20  O2  UNK     1      12.266   3.918   8.565  1.00  0.00    -0.355 OA
HETATM   21  H8  UNK     1      12.286   3.375   9.368  1.00  0.00     0.218 HD
ENDBRANCH   6  20
BRANCH  10  22
HETATM   22  O4  UNK     1      18.295   7.534  10.628  1.00  0.00    -0.361 OA
HETATM   23  H9  UNK     1      18.297   7.977  11.494  1.00  0.00     0.217 HD
ENDBRANCH  10  22
TORSDOF 4
ENDMDL
MODEL 2
REMARK VINA RESULT:      -8.0     21.687     23.613
REMARK  4 active torsions:
REMARK  status: ('A' for Active; 'I' for Inactive)
REMARK    1  A    between atoms: C5_10  and  O2_2 
REMARK    2  A    between atoms: C9_14  and  O4_4 
REMARK    3  A    between atoms: C15_20  and  O5_5 
REMARK    4  A    between atoms: C2_7  and  C4_9 
ROOT
HETATM    1  O1  UNK     1      19.586   1.453  31.254  1.00  0.00    -0.306 OA
HETATM    2  O3  UNK     1      18.810  -0.022  27.536  1.00  0.00    -0.284 OA
HETATM    3  C1  UNK     1      19.695  -0.399  29.688  1.00  0.00     0.053 A 
HETATM    4  C2  UNK     1      18.956   2.222  30.288  1.00  0.00     0.123 A 
HETATM    5  C3  UNK     1      19.936   0.165  30.939  1.00  0.00     0.090 A 
HETATM    6  C5  UNK     1      18.675   1.801  29.041  1.00  0.00     0.152 A 
HETATM    7  C6  UNK     1      19.040   0.417  28.654  1.00  0.00     0.220 A 
HETATM    8  C7  UNK     1      20.073  -1.718  29.424  1.00  0.00     0.055 A 
HETATM    9  C8  UNK     1      20.558  -0.586  31.936  1.00  0.00     0.041 A 
HETATM   10  C9  UNK     1      20.695  -2.469  30.423  1.00  0.00     0.066 A 
HETATM   11  C12 UNK     1      20.937  -1.904  31.677  1.00  0.00     0.039 A 
ENDROOT
BRANCH   4  12
HETATM   12  C4  UNK     1      18.634   3.582  30.755  1.00  0.00     0.001 A 
HETATM   13  C10 UNK     1      17.869   3.763  31.906  1.00  0.00     0.017 A 
HETATM   14  C13 UNK     1      17.565   5.051  32.347  1.00  0.00     0.037 A 
HETATM   15  C15 UNK     1      18.028   6.158  31.636  1.00  0.00     0.065 A 
HETATM   16  C14 UNK     1      18.794   5.978  30.484  1.00  0.00     0.037 A 
HETATM   17  C11 UNK     1      19.097   4.689  30.043  1.00  0.00     0.017 A 
BRANCH  15  18
HETATM   18  O5  UNK     1      17.732   7.414  32.067  1.00  0.00    -0.361 OA
HETATM   19  H10 UNK     1      18.521   7.798  32.488  1.00  0.00     0.217 HD
ENDBRANCH  15  18
ENDBRANCH   4  12
BRANCH   6  20
HETATM   20  O2  UNK     1      18.076   2.602  28.093  1.00  0.00    -0.355 OA
HETATM   21  H8  UNK     1      17.251   2.970  28.446  1.00  0.00     0.218 HD
ENDBRANCH   6  20
BRANCH  10  22
HETATM   22  O4  UNK     1      21.066  -3.755  30.175  1.00  0.00    -0.361 OA
HETATM   23  H9  UNK     1      20.884  -4.293  30.964  1.00  0.00     0.217 HD
ENDBRANCH  10  22
TORSDOF 4
ENDMDL
MODEL 3
REMARK VINA RESULT:      -7.9     23.601     25.773
REMARK  4 active torsions:
REMARK  status: ('A' for Active; 'I' for Inactive)
REMARK    1  A    between atoms: C5_10  and  O2_2 
REMARK    2  A    between atoms: C9_14  and  O4_4 
REMARK    3  A    between atoms: C15_20  and  O5_5 
REMARK    4  A    between atoms: C2_7  and  C4_9 
ROOT
HETATM    1  O1  UNK     1      18.058   2.715  33.416  1.00  0.00    -0.306 OA
HETATM    2  O3  UNK     1      19.208   1.392  29.737  1.00  0.00    -0.284 OA
HETATM    3  C1  UNK     1      18.660   3.222  31.120  1.00  0.00     0.053 A 
HETATM    4  C2  UNK     1      18.265   1.368  33.164  1.00  0.00     0.123 A 
HETATM    5  C3  UNK     1      18.263   3.610  32.397  1.00  0.00     0.090 A 
HETATM    6  C5  UNK     1      18.639   0.863  31.973  1.00  0.00     0.152 A 
HETATM    7  C6  UNK     1      18.868   1.793  30.841  1.00  0.00     0.220 A 
HETATM    8  C7  UNK     1      18.855   4.180  30.121  1.00  0.00     0.055 A 
HETATM    9  C8  UNK     1      18.058   4.959  32.686  1.00  0.00     0.041 A 
HETATM   10  C9  UNK     1      18.649   5.529  30.411  1.00  0.00     0.066 A 
HETATM   11  C12 UNK     1      18.251   5.919  31.691  1.00  0.00     0.039 A 
ENDROOT
BRANCH   4  12
HETATM   12  C4  UNK     1      18.011   0.517  34.339  1.00  0.00     0.001 A 
HETATM   13  C10 UNK     1      16.732   0.013  34.575  1.00  0.00     0.017 A 
HETATM   14  C13 UNK     1      16.492  -0.793  35.687  1.00  0.00     0.037 A 
HETATM   15  C15 UNK     1      17.534  -1.096  36.564  1.00  0.00     0.065 A 
HETATM   16  C14 UNK     1      18.813  -0.594  36.330  1.00  0.00     0.037 A 
HETATM   17  C11 UNK     1      19.052   0.213  35.216  1.00  0.00     0.017 A 
BRANCH  15  18
HETATM   18  O5  UNK     1      17.300  -1.884  37.650  1.00  0.00    -0.361 OA
HETATM   19  H10 UNK     1      16.340  -1.953  37.789  1.00  0.00     0.217 HD
ENDBRANCH  15  18
ENDBRANCH   4  12
BRANCH   6  20
HETATM   20  O2  UNK     1      18.805  -0.487  31.747  1.00  0.00    -0.355 OA
HETATM   21  H8  UNK     1      18.024  -0.971  32.059  1.00  0.00     0.218 HD
ENDBRANCH   6  20
BRANCH  10  22
HETATM   22  O4  UNK     1      18.837   6.469  29.444  1.00  0.00    -0.361 OA
HETATM   23  H9  UNK     1      18.260   7.229  29.627  1.00  0.00     0.217 HD
ENDBRANCH  10  22
TORSDOF 4
ENDMDL
MODEL 4
REMARK VINA RESULT:      -7.9      4.124      8.080
REMARK  4 active torsions:
REMARK  status: ('A' for Active; 'I' for Inactive)
REMARK    1  A    between atoms: C5_10  and  O2_2 
REMARK    2  A    between atoms: C9_14  and  O4_4 
REMARK    3  A    between atoms: C15_20  and  O5_5 
REMARK    4  A    between atoms: C2_7  and  C4_9 
ROOT
HETATM    1  O1  UNK     1       7.681   4.393   9.270  1.00  0.00    -0.306 OA
HETATM    2  O3  UNK     1       6.398   7.315  11.803  1.00  0.00    -0.284 OA
HETATM    3  C1  UNK     1       6.203   5.083  11.067  1.00  0.00     0.053 A 
HETATM    4  C2  UNK     1       8.242   5.660   9.256  1.00  0.00     0.123 A 
HETATM    5  C3  UNK     1       6.683   4.130  10.173  1.00  0.00     0.090 A 
HETATM    6  C5  UNK     1       7.864   6.671  10.059  1.00  0.00     0.152 A 
HETATM    7  C6  UNK     1       6.784   6.435  11.048  1.00  0.00     0.220 A 
HETATM    8  C7  UNK     1       5.183   4.758  11.966  1.00  0.00     0.055 A 
HETATM    9  C8  UNK     1       6.147   2.842  10.170  1.00  0.00     0.041 A 
HETATM   10  C9  UNK     1       4.648   3.469  11.962  1.00  0.00     0.066 A 
HETATM   11  C12 UNK     1       5.128   2.512  11.066  1.00  0.00     0.039 A 
ENDROOT
BRANCH   4  12
HETATM   12  C4  UNK     1       9.301   5.809   8.242  1.00  0.00     0.001 A 
HETATM   13  C10 UNK     1       8.975   6.186   6.940  1.00  0.00     0.017 A 
HETATM   14  C13 UNK     1       9.978   6.328   5.982  1.00  0.00     0.037 A 
HETATM   15  C15 UNK     1      11.309   6.092   6.327  1.00  0.00     0.065 A 
HETATM   16  C14 UNK     1      11.637   5.714   7.628  1.00  0.00     0.037 A 
HETATM   17  C11 UNK     1      10.632   5.573   8.587  1.00  0.00     0.017 A 
BRANCH  15  18
HETATM   18  O5  UNK     1      12.288   6.231   5.392  1.00  0.00    -0.361 OA
HETATM   19  H10 UNK     1      13.067   5.720   5.672  1.00  0.00     0.217 HD
ENDBRANCH  15  18
ENDBRANCH   4  12
BRANCH   6  20
HETATM   20  O2  UNK     1       8.421   7.930   9.997  1.00  0.00    -0.355 OA
HETATM   21  H8  UNK     1       9.314   7.877   9.620  1.00  0.00     0.218 HD
ENDBRANCH   6  20
BRANCH  10  22
HETATM   22  O4  UNK     1       3.655   3.143  12.835  1.00  0.00    -0.361 OA
HETATM   23  H9  UNK     1       4.050   2.736  13.624  1.00  0.00     0.217 HD
ENDBRANCH  10  22
TORSDOF 4
ENDMDL
MODEL 5
REMARK VINA RESULT:      -7.8     24.249     26.130
REMARK  4 active torsions:
REMARK  status: ('A' for Active; 'I' for Inactive)
REMARK    1  A    between atoms: C5_10  and  O2_2 
REMARK    2  A    between atoms: C9_14  and  O4_4 
REMARK    3  A    between atoms: C15_20  and  O5_5 
REMARK    4  A    between atoms: C2_7  and  C4_9 
ROOT
HETATM    1  O1  UNK     1      18.260   3.628  34.577  1.00  0.00    -0.306 OA
HETATM    2  O3  UNK     1      18.419   1.294  31.240  1.00  0.00    -0.284 OA
HETATM    3  C1  UNK     1      18.353   1.410  33.595  1.00  0.00     0.053 A 
HETATM    4  C2  UNK     1      18.258   4.182  33.306  1.00  0.00     0.123 A 
HETATM    5  C3  UNK     1      18.302   2.262  34.695  1.00  0.00     0.090 A 
HETATM    6  C5  UNK     1      18.314   3.471  32.164  1.00  0.00     0.152 A 
HETATM    7  C6  UNK     1      18.366   1.992  32.243  1.00  0.00     0.220 A 
HETATM    8  C7  UNK     1      18.394   0.025  33.776  1.00  0.00     0.055 A 
HETATM    9  C8  UNK     1      18.291   1.736  35.987  1.00  0.00     0.041 A 
HETATM   10  C9  UNK     1      18.382  -0.500  35.069  1.00  0.00     0.066 A 
HETATM   11  C12 UNK     1      18.331   0.353  36.173  1.00  0.00     0.039 A 
ENDROOT
BRANCH   4  12
HETATM   12  C4  UNK     1      18.210   5.654  33.320  1.00  0.00     0.001 A 
HETATM   13  C10 UNK     1      17.028   6.318  32.993  1.00  0.00     0.017 A 
HETATM   14  C13 UNK     1      16.983   7.712  33.007  1.00  0.00     0.037 A 
HETATM   15  C15 UNK     1      18.121   8.442  33.348  1.00  0.00     0.065 A 
HETATM   16  C14 UNK     1      19.304   7.779  33.676  1.00  0.00     0.037 A 
HETATM   17  C11 UNK     1      19.348   6.384  33.662  1.00  0.00     0.017 A 
BRANCH  15  18
HETATM   18  O5  UNK     1      18.077   9.802  33.362  1.00  0.00    -0.361 OA
HETATM   19  H10 UNK     1      17.519  10.092  34.104  1.00  0.00     0.217 HD
ENDBRANCH  15  18
ENDBRANCH   4  12
BRANCH   6  20
HETATM   20  O2  UNK     1      18.344   4.055  30.916  1.00  0.00    -0.355 OA
HETATM   21  H8  UNK     1      17.483   4.459  30.721  1.00  0.00     0.218 HD
ENDBRANCH   6  20
BRANCH  10  22
HETATM   22  O4  UNK     1      18.421  -1.848  35.255  1.00  0.00    -0.361 OA
HETATM   23  H9  UNK     1      19.249  -2.194  34.881  1.00  0.00     0.217 HD
ENDBRANCH  10  22
TORSDOF 4
ENDMDL
MODEL 6
REMARK VINA RESULT:      -7.8      1.562      2.150
REMARK  4 active torsions:
REMARK  status: ('A' for Active; 'I' for Inactive)
REMARK    1  A    between atoms: C5_10  and  O2_2 
REMARK    2  A    between atoms: C9_14  and  O4_4 
REMARK    3  A    between atoms: C15_20  and  O5_5 
REMARK    4  A    between atoms: C2_7  and  C4_9 
ROOT
HETATM    1  O1  UNK     1      13.190   8.802   8.448  1.00  0.00    -0.306 OA
HETATM    2  O3  UNK     1      15.261   6.366  10.974  1.00  0.00    -0.284 OA
HETATM    3  C1  UNK     1      15.246   8.312   9.643  1.00  0.00     0.053 A 
HETATM    4  C2  UNK     1      12.610   7.671   8.999  1.00  0.00     0.123 A 
HETATM    5  C3  UNK     1      14.486   9.102   8.783  1.00  0.00     0.090 A 
HETATM    6  C5  UNK     1      13.236   6.821   9.834  1.00  0.00     0.152 A 
HETATM    7  C6  UNK     1      14.640   7.101  10.220  1.00  0.00     0.220 A 
HETATM    8  C7  UNK     1      16.562   8.667   9.949  1.00  0.00     0.055 A 
HETATM    9  C8  UNK     1      15.038  10.253   8.222  1.00  0.00     0.041 A 
HETATM   10  C9  UNK     1      17.113   9.820   9.386  1.00  0.00     0.066 A 
HETATM   11  C12 UNK     1      16.352  10.612   8.524  1.00  0.00     0.039 A 
ENDROOT
BRANCH   4  12
HETATM   12  C4  UNK     1      11.218   7.466   8.560  1.00  0.00     0.001 A 
HETATM   13  C10 UNK     1      10.165   8.004   9.300  1.00  0.00     0.017 A 
HETATM   14  C13 UNK     1       8.849   7.810   8.883  1.00  0.00     0.037 A 
HETATM   15  C15 UNK     1       8.585   7.078   7.726  1.00  0.00     0.065 A 
HETATM   16  C14 UNK     1       9.637   6.539   6.985  1.00  0.00     0.037 A 
HETATM   17  C11 UNK     1      10.955   6.734   7.402  1.00  0.00     0.017 A 
BRANCH  15  18
HETATM   18  O5  UNK     1       7.300   6.889   7.319  1.00  0.00    -0.361 OA
HETATM   19  H10 UNK     1       7.176   5.950   7.093  1.00  0.00     0.217 HD
ENDBRANCH  15  18
ENDBRANCH   4  12
BRANCH   6  20
HETATM   20  O2  UNK     1      12.640   5.686  10.339  1.00  0.00    -0.355 OA
HETATM   21  H8  UNK     1      12.450   5.065   9.618  1.00  0.00     0.218 HD
ENDBRANCH   6  20
BRANCH  10  22
HETATM   22  O4  UNK     1      18.394  10.173   9.679  1.00  0.00    -0.361 OA
HETATM   23  H9  UNK     1      18.787   9.491  10.250  1.00  0.00     0.217 HD
ENDBRANCH  10  22
TORSDOF 4
ENDMDL
MODEL 7
REMARK VINA RESULT:      -7.7      4.034      7.732
REMARK  4 active torsions:
REMARK  status: ('A' for Active; 'I' for Inactive)
REMARK    1  A    between atoms: C5_10  and  O2_2 
REMARK    2  A    between atoms: C9_14  and  O4_4 
REMARK    3  A    between atoms: C15_20  and  O5_5 
REMARK    4  A    between atoms: C2_7  and  C4_9 
ROOT
HETATM    1  O1  UNK     1       7.729   7.044   9.923  1.00  0.00    -0.306 OA
HETATM    2  O3  UNK     1       5.384   3.789  10.637  1.00  0.00    -0.284 OA
HETATM    3  C1  UNK     1       5.901   6.031  11.157  1.00  0.00     0.053 A 
HETATM    4  C2  UNK     1       7.897   5.864   9.217  1.00  0.00     0.123 A 
HETATM    5  C3  UNK     1       6.738   7.106  10.869  1.00  0.00     0.090 A 
HETATM    6  C5  UNK     1       7.163   4.751   9.406  1.00  0.00     0.152 A 
HETATM    7  C6  UNK     1       6.083   4.769  10.422  1.00  0.00     0.220 A 
HETATM    8  C7  UNK     1       4.907   6.152  12.131  1.00  0.00     0.055 A 
HETATM    9  C8  UNK     1       6.587   8.312  11.554  1.00  0.00     0.041 A 
HETATM   10  C9  UNK     1       4.757   7.359  12.815  1.00  0.00     0.066 A 
HETATM   11  C12 UNK     1       5.595   8.437  12.528  1.00  0.00     0.039 A 
ENDROOT
BRANCH   4  12
HETATM   12  C4  UNK     1       8.992   5.931   8.234  1.00  0.00     0.001 A 
HETATM   13  C10 UNK     1      10.311   5.730   8.641  1.00  0.00     0.017 A 
HETATM   14  C13 UNK     1      11.346   5.793   7.710  1.00  0.00     0.037 A 
HETATM   15  C15 UNK     1      11.063   6.058   6.370  1.00  0.00     0.065 A 
HETATM   16  C14 UNK     1       9.745   6.259   5.961  1.00  0.00     0.037 A 
HETATM   17  C11 UNK     1       8.709   6.196   6.894  1.00  0.00     0.017 A 
BRANCH  15  18
HETATM   18  O5  UNK     1      12.074   6.119   5.461  1.00  0.00    -0.361 OA
HETATM   19  H10 UNK     1      12.867   6.478   5.895  1.00  0.00     0.217 HD
ENDBRANCH  15  18
ENDBRANCH   4  12
BRANCH   6  20
HETATM   20  O2  UNK     1       7.377   3.581   8.709  1.00  0.00    -0.355 OA
HETATM   21  H8  UNK     1       7.310   3.749   7.755  1.00  0.00     0.218 HD
ENDBRANCH   6  20
BRANCH  10  22
HETATM   22  O4  UNK     1       3.790   7.486  13.766  1.00  0.00    -0.361 OA
HETATM   23  H9  UNK     1       3.180   8.195  13.502  1.00  0.00     0.217 HD
ENDBRANCH  10  22
TORSDOF 4
ENDMDL
MODEL 8
REMARK VINA RESULT:      -7.7     23.213     24.985
REMARK  4 active torsions:
REMARK  status: ('A' for Active; 'I' for Inactive)
REMARK    1  A    between atoms: C5_10  and  O2_2 
REMARK    2  A    between atoms: C9_14  and  O4_4 
REMARK    3  A    between atoms: C15_20  and  O5_5 
REMARK    4  A    between atoms: C2_7  and  C4_9 
ROOT
HETATM    1  O1  UNK     1      18.027   3.582  33.347  1.00  0.00    -0.306 OA
HETATM    2  O3  UNK     1      19.200   2.075  29.747  1.00  0.00    -0.284 OA
HETATM    3  C1  UNK     1      18.645   1.659  32.001  1.00  0.00     0.053 A 
HETATM    4  C2  UNK     1      18.199   4.401  32.242  1.00  0.00     0.123 A 
HETATM    5  C3  UNK     1      18.246   2.236  33.204  1.00  0.00     0.090 A 
HETATM    6  C5  UNK     1      18.590   3.971  31.027  1.00  0.00     0.152 A 
HETATM    7  C6  UNK     1      18.843   2.524  30.828  1.00  0.00     0.220 A 
HETATM    8  C7  UNK     1      18.853   0.280  31.914  1.00  0.00     0.055 A 
HETATM    9  C8  UNK     1      18.053   1.438  34.332  1.00  0.00     0.041 A 
HETATM   10  C9  UNK     1      18.658  -0.518  33.043  1.00  0.00     0.066 A 
HETATM   11  C12 UNK     1      18.260   0.060  34.250  1.00  0.00     0.039 A 
ENDROOT
BRANCH   4  12
HETATM   12  C4  UNK     1      17.932   5.820  32.530  1.00  0.00     0.001 A 
HETATM   13  C10 UNK     1      18.940   6.630  33.053  1.00  0.00     0.017 A 
HETATM   14  C13 UNK     1      18.686   7.974  33.324  1.00  0.00     0.037 A 
HETATM   15  C15 UNK     1      17.422   8.509  33.072  1.00  0.00     0.065 A 
HETATM   16  C14 UNK     1      16.413   7.700  32.549  1.00  0.00     0.037 A 
HETATM   17  C11 UNK     1      16.668   6.355  32.278  1.00  0.00     0.017 A 
BRANCH  15  18
HETATM   18  O5  UNK     1      17.174   9.821  33.336  1.00  0.00    -0.361 OA
HETATM   19  H10 UNK     1      18.021  10.296  33.398  1.00  0.00     0.217 HD
ENDBRANCH  15  18
ENDBRANCH   4  12
BRANCH   6  20
HETATM   20  O2  UNK     1      18.783   4.817  29.956  1.00  0.00    -0.355 OA
HETATM   21  H8  UNK     1      18.930   4.298  29.149  1.00  0.00     0.218 HD
ENDBRANCH   6  20
BRANCH  10  22
HETATM   22  O4  UNK     1      18.858  -1.862  32.968  1.00  0.00    -0.361 OA
HETATM   23  H9  UNK     1      18.343  -2.217  32.224  1.00  0.00     0.217 HD
ENDBRANCH  10  22
TORSDOF 4
ENDMDL
MODEL 9
REMARK VINA RESULT:      -7.6     11.500     13.164
REMARK  4 active torsions:
REMARK  status: ('A' for Active; 'I' for Inactive)
REMARK    1  A    between atoms: C5_10  and  O2_2 
REMARK    2  A    between atoms: C9_14  and  O4_4 
REMARK    3  A    between atoms: C15_20  and  O5_5 
REMARK    4  A    between atoms: C2_7  and  C4_9 
ROOT
HETATM    1  O1  UNK     1      19.090  -0.540  18.036  1.00  0.00    -0.306 OA
HETATM    2  O3  UNK     1      19.380   3.475  17.404  1.00  0.00    -0.284 OA
HETATM    3  C1  UNK     1      19.321   1.697  18.951  1.00  0.00     0.053 A 
HETATM    4  C2  UNK     1      19.081  -0.007  16.757  1.00  0.00     0.123 A 
HETATM    5  C3  UNK     1      19.215   0.316  19.100  1.00  0.00     0.090 A 
HETATM    6  C5  UNK     1      19.167   1.307  16.477  1.00  0.00     0.152 A 
HETATM    7  C6  UNK     1      19.298   2.270  17.596  1.00  0.00     0.220 A 
HETATM    8  C7  UNK     1      19.447   2.520  20.073  1.00  0.00     0.055 A 
HETATM    9  C8  UNK     1      19.232  -0.252  20.374  1.00  0.00     0.041 A 
HETATM   10  C9  UNK     1      19.465   1.950  21.347  1.00  0.00     0.066 A 
HETATM   11  C12 UNK     1      19.358   0.566  21.498  1.00  0.00     0.039 A 
ENDROOT
BRANCH   4  12
HETATM   12  C4  UNK     1      18.943  -1.031  15.707  1.00  0.00     0.001 A 
HETATM   13  C10 UNK     1      19.393  -0.771  14.413  1.00  0.00     0.017 A 
HETATM   14  C13 UNK     1      19.263  -1.742  13.420  1.00  0.00     0.037 A 
HETATM   15  C15 UNK     1      18.683  -2.973  13.722  1.00  0.00     0.065 A 
HETATM   16  C14 UNK     1      18.232  -3.235  15.016  1.00  0.00     0.037 A 
HETATM   17  C11 UNK     1      18.363  -2.263  16.009  1.00  0.00     0.017 A 
BRANCH  15  18
HETATM   18  O5  UNK     1      18.556  -3.921  12.753  1.00  0.00    -0.361 OA
HETATM   19  H10 UNK     1      18.754  -4.793  13.137  1.00  0.00     0.217 HD
ENDBRANCH  15  18
ENDBRANCH   4  12
BRANCH   6  20
HETATM   20  O2  UNK     1      19.122   1.808  15.193  1.00  0.00    -0.355 OA
HETATM   21  H8  UNK     1      18.338   2.369  15.086  1.00  0.00     0.218 HD
ENDBRANCH   6  20
BRANCH  10  22
HETATM   22  O4  UNK     1      19.587   2.744  22.445  1.00  0.00    -0.361 OA
HETATM   23  H9  UNK     1      20.140   2.290  23.103  1.00  0.00     0.217 HD
ENDBRANCH  10  22
TORSDOF 4
ENDMDL
MODEL 10
REMARK VINA RESULT:      -7.6     22.437     24.611
REMARK  4 active torsions:
REMARK  status: ('A' for Active; 'I' for Inactive)
REMARK    1  A    between atoms: C5_10  and  O2_2 
REMARK    2  A    between atoms: C9_14  and  O4_4 
REMARK    3  A    between atoms: C15_20  and  O5_5 
REMARK    4  A    between atoms: C2_7  and  C4_9 
ROOT
HETATM    1  O1  UNK     1      18.321   4.144  31.123  1.00  0.00    -0.306 OA
HETATM    2  O3  UNK     1      18.683   1.297  34.016  1.00  0.00    -0.284 OA
HETATM    3  C1  UNK     1      18.743   1.829  31.719  1.00  0.00     0.053 A 
HETATM    4  C2  UNK     1      18.179   4.456  32.465  1.00  0.00     0.123 A 
HETATM    5  C3  UNK     1      18.604   2.847  30.779  1.00  0.00     0.090 A 
HETATM    6  C5  UNK     1      18.280   3.566  33.470  1.00  0.00     0.152 A 
HETATM    7  C6  UNK     1      18.579   2.150  33.146  1.00  0.00     0.220 A 
HETATM    8  C7  UNK     1      19.032   0.524  31.310  1.00  0.00     0.055 A 
HETATM    9  C8  UNK     1      18.752   2.567  29.420  1.00  0.00     0.041 A 
HETATM   10  C9  UNK     1      19.181   0.247  29.950  1.00  0.00     0.066 A 
HETATM   11  C12 UNK     1      19.041   1.266  29.007  1.00  0.00     0.039 A 
ENDROOT
BRANCH   4  12
HETATM   12  C4  UNK     1      17.879   5.879  32.697  1.00  0.00     0.001 A 
HETATM   13  C10 UNK     1      18.875   6.736  33.165  1.00  0.00     0.017 A 
HETATM   14  C13 UNK     1      18.590   8.084  33.384  1.00  0.00     0.037 A 
HETATM   15  C15 UNK     1      17.308   8.575  33.133  1.00  0.00     0.065 A 
HETATM   16  C14 UNK     1      16.311   7.718  32.665  1.00  0.00     0.037 A 
HETATM   17  C11 UNK     1      16.597   6.370  32.447  1.00  0.00     0.017 A 
BRANCH  15  18
HETATM   18  O5  UNK     1      17.030   9.890  33.346  1.00  0.00    -0.361 OA
HETATM   19  H10 UNK     1      17.320  10.132  34.242  1.00  0.00     0.217 HD
ENDBRANCH  15  18
ENDBRANCH   4  12
BRANCH   6  20
HETATM   20  O2  UNK     1      18.101   3.903  34.795  1.00  0.00    -0.355 OA
HETATM   21  H8  UNK     1      17.258   4.372  34.904  1.00  0.00     0.218 HD
ENDBRANCH   6  20
BRANCH  10  22
HETATM   22  O4  UNK     1      19.463  -1.021  29.543  1.00  0.00    -0.361 OA
HETATM   23  H9  UNK     1      19.195  -1.644  30.240  1.00  0.00     0.217 HD
ENDBRANCH  10  22
TORSDOF 4
ENDMDL
