MODEL 1
REMARK VINA RESULT:      -8.2      0.000      0.000
REMARK  13 active torsions:
REMARK  status: ('A' for Active; 'I' for Inactive)
REMARK    1  A    between atoms: C1_14  and  O2_2 
REMARK    2  A    between atoms: C8_21  and  O2_2 
REMARK    3  A    between atoms: C2_15  and  O3_3 
REMARK    4  A    between atoms: C9_22  and  O3_3 
REMARK    5  A    between atoms: C10_23  and  O4_4 
REMARK    6  A    between atoms: C3_16  and  O4_4 
REMARK    7  A    between atoms: C5_18  and  O5_5 
REMARK    8  A    between atoms: C7_20  and  O5_5 
REMARK    9  A    between atoms: C15_28  and  O6_6 
REMARK   10  A    between atoms: C6_19  and  O6_6 
REMARK   11  A    between atoms: C29_42  and  O13_13 
REMARK   12  A    between atoms: C4_17  and  C6_19 
REMARK   13  A    between atoms: C22_35  and  C24_37 
ROOT
HETATM    1  O1  UNK     1      12.931   7.842  10.027  1.00  0.00    -0.348 OA
HETATM    2  C1  UNK     1      10.716   7.469   8.223  1.00  0.00     0.198 C 
HETATM    3  C2  UNK     1      11.480   6.283   8.830  1.00  0.00     0.195 C 
HETATM    4  C3  UNK     1      10.904   8.748   9.045  1.00  0.00     0.219 C 
HETATM    5  C4  UNK     1      12.923   6.678   9.189  1.00  0.00     0.181 C 
HETATM    6  C5  UNK     1      12.381   8.986   9.372  1.00  0.00     0.299 C 
ENDROOT
BRANCH   6   7
HETATM    7  O5  UNK     1      12.487  10.140  10.201  1.00  0.00    -0.318 OA
BRANCH   7   8
HETATM    8  C7  UNK     1      13.743  10.652  10.384  1.00  0.00     0.074 A 
HETATM    9  C11 UNK     1      14.745  10.390   9.450  1.00  0.00     0.075 A 
HETATM   10  C17 UNK     1      16.025  10.911   9.639  1.00  0.00     0.091 A 
HETATM   11  O10 UNK     1      16.968  10.621   8.688  1.00  0.00    -0.321 OA
HETATM   12  C18 UNK     1      16.301  11.693  10.761  1.00  0.00     0.049 A 
HETATM   13  C23 UNK     1      18.236  11.117   8.875  1.00  0.00     0.159 A 
HETATM   14  C22 UNK     1      18.658  11.882   9.893  1.00  0.00     0.048 A 
HETATM   15  C21 UNK     1      17.660  12.237  10.939  1.00  0.00     0.197 A 
HETATM   16  O12 UNK     1      17.936  12.953  11.893  1.00  0.00    -0.286 OA
HETATM   17  C19 UNK     1      15.299  11.958  11.698  1.00  0.00     0.021 A 
HETATM   18  C12 UNK     1      14.020  11.434  11.505  1.00  0.00     0.038 A 
BRANCH  14  19
HETATM   19  C24 UNK     1      20.059  12.328   9.970  1.00  0.00    -0.020 A 
HETATM   20  C25 UNK     1      20.537  13.285   9.075  1.00  0.00     0.015 A 
HETATM   21  C27 UNK     1      21.864  13.708   9.148  1.00  0.00     0.037 A 
HETATM   22  C29 UNK     1      22.714  13.172  10.115  1.00  0.00     0.068 A 
HETATM   23  C28 UNK     1      22.236  12.214  11.010  1.00  0.00     0.037 A 
HETATM   24  C26 UNK     1      20.909  11.791  10.937  1.00  0.00     0.015 A 
BRANCH  22  25
HETATM   25  O13 UNK     1      24.009  13.583  10.186  1.00  0.00    -0.356 OA
HETATM   26  C30 UNK     1      24.899  12.793  10.975  1.00  0.00     0.210 C 
ENDBRANCH  22  25
ENDBRANCH  14  19
ENDBRANCH   7   8
ENDBRANCH   6   7
BRANCH   4  27
HETATM   27  O4  UNK     1      10.154   8.650  10.256  1.00  0.00    -0.308 OA
BRANCH  27  28
HETATM   28  C10 UNK     1       8.886   9.152  10.207  1.00  0.00     0.255 C 
HETATM   29  O9  UNK     1       7.866   8.521   9.970  1.00  0.00    -0.266 OA
HETATM   30  C16 UNK     1       8.916  10.623  10.491  1.00  0.00     0.126 C 
ENDBRANCH  27  28
ENDBRANCH   4  27
BRANCH   2  31
HETATM   31  O2  UNK     1      11.197   7.714   6.902  1.00  0.00    -0.311 OA
BRANCH  31  32
HETATM   32  C8  UNK     1      11.038   6.687   6.016  1.00  0.00     0.255 C 
HETATM   33  C13 UNK     1       9.579   6.398   5.834  1.00  0.00     0.126 C 
HETATM   34  O7  UNK     1      11.933   6.079   5.446  1.00  0.00    -0.266 OA
ENDBRANCH  31  32
ENDBRANCH   2  31
BRANCH   5  35
HETATM   35  C6  UNK     1      13.673   5.580   9.935  1.00  0.00     0.213 C 
BRANCH  35  36
HETATM   36  O6  UNK     1      14.771   6.165  10.614  1.00  0.00    -0.319 OA
BRANCH  36  37
HETATM   37  C15 UNK     1      15.977   6.104   9.968  1.00  0.00     0.254 C 
HETATM   38  O11 UNK     1      16.368   5.183   9.264  1.00  0.00    -0.266 OA
HETATM   39  C20 UNK     1      16.772   7.345  10.243  1.00  0.00     0.126 C 
ENDBRANCH  36  37
ENDBRANCH  35  36
ENDBRANCH   5  35
BRANCH   3  40
HETATM   40  O3  UNK     1      10.774   5.847   9.989  1.00  0.00    -0.311 OA
BRANCH  40  41
HETATM   41  C9  UNK     1      10.092   4.672   9.858  1.00  0.00     0.255 C 
HETATM   42  C14 UNK     1       8.628   4.911  10.075  1.00  0.00     0.126 C 
HETATM   43  O8  UNK     1      10.577   3.578   9.603  1.00  0.00    -0.266 OA
ENDBRANCH  40  41
ENDBRANCH   3  40
TORSDOF 13
ENDMDL
MODEL 2
REMARK VINA RESULT:      -8.0      1.647      1.888
REMARK  13 active torsions:
REMARK  status: ('A' for Active; 'I' for Inactive)
REMARK    1  A    between atoms: C1_14  and  O2_2 
REMARK    2  A    between atoms: C8_21  and  O2_2 
REMARK    3  A    between atoms: C2_15  and  O3_3 
REMARK    4  A    between atoms: C9_22  and  O3_3 
REMARK    5  A    between atoms: C10_23  and  O4_4 
REMARK    6  A    between atoms: C3_16  and  O4_4 
REMARK    7  A    between atoms: C5_18  and  O5_5 
REMARK    8  A    between atoms: C7_20  and  O5_5 
REMARK    9  A    between atoms: C15_28  and  O6_6 
REMARK   10  A    between atoms: C6_19  and  O6_6 
REMARK   11  A    between atoms: C29_42  and  O13_13 
REMARK   12  A    between atoms: C4_17  and  C6_19 
REMARK   13  A    between atoms: C22_35  and  C24_37 
ROOT
HETATM    1  O1  UNK     1      13.042   7.419   9.875  1.00  0.00    -0.348 OA
HETATM    2  C1  UNK     1      10.741   7.653   8.156  1.00  0.00     0.198 C 
HETATM    3  C2  UNK     1      11.218   6.298   8.698  1.00  0.00     0.195 C 
HETATM    4  C3  UNK     1      11.259   8.820   9.004  1.00  0.00     0.219 C 
HETATM    5  C4  UNK     1      12.725   6.322   9.007  1.00  0.00     0.181 C 
HETATM    6  C5  UNK     1      12.761   8.684   9.274  1.00  0.00     0.299 C 
ENDROOT
BRANCH   6   7
HETATM    7  O5  UNK     1      13.169   9.749  10.129  1.00  0.00    -0.318 OA
BRANCH   7   8
HETATM    8  C7  UNK     1      14.442  10.223   9.954  1.00  0.00     0.074 A 
HETATM    9  C11 UNK     1      14.653  11.405   9.245  1.00  0.00     0.075 A 
HETATM   10  C17 UNK     1      15.951  11.885   9.066  1.00  0.00     0.091 A 
HETATM   11  O10 UNK     1      16.098  13.052   8.362  1.00  0.00    -0.321 OA
HETATM   12  C18 UNK     1      17.034  11.183   9.596  1.00  0.00     0.049 A 
HETATM   13  C23 UNK     1      17.373  13.523   8.167  1.00  0.00     0.159 A 
HETATM   14  C22 UNK     1      18.512  12.970   8.612  1.00  0.00     0.048 A 
HETATM   15  C21 UNK     1      18.396  11.711   9.399  1.00  0.00     0.197 A 
HETATM   16  O12 UNK     1      19.371  11.142   9.874  1.00  0.00    -0.286 OA
HETATM   17  C19 UNK     1      16.824   9.999  10.308  1.00  0.00     0.021 A 
HETATM   18  C12 UNK     1      15.525   9.522  10.484  1.00  0.00     0.038 A 
BRANCH  14  19
HETATM   19  C24 UNK     1      19.816  13.583   8.309  1.00  0.00    -0.020 A 
HETATM   20  C25 UNK     1      20.588  13.094   7.255  1.00  0.00     0.015 A 
HETATM   21  C27 UNK     1      21.823  13.675   6.967  1.00  0.00     0.037 A 
HETATM   22  C29 UNK     1      22.286  14.744   7.735  1.00  0.00     0.068 A 
HETATM   23  C28 UNK     1      21.514  15.232   8.789  1.00  0.00     0.037 A 
HETATM   24  C26 UNK     1      20.279  14.651   9.076  1.00  0.00     0.015 A 
BRANCH  22  25
HETATM   25  O13 UNK     1      23.491  15.311   7.455  1.00  0.00    -0.356 OA
HETATM   26  C30 UNK     1      23.495  16.702   7.134  1.00  0.00     0.210 C 
ENDBRANCH  22  25
ENDBRANCH  14  19
ENDBRANCH   7   8
ENDBRANCH   6   7
BRANCH   4  27
HETATM   27  O4  UNK     1      10.550   8.859  10.243  1.00  0.00    -0.308 OA
BRANCH  27  28
HETATM   28  C10 UNK     1       9.351   9.510  10.215  1.00  0.00     0.255 C 
HETATM   29  O9  UNK     1       8.254   9.018  10.440  1.00  0.00    -0.266 OA
HETATM   30  C16 UNK     1       9.568  10.950   9.861  1.00  0.00     0.126 C 
ENDBRANCH  27  28
ENDBRANCH   4  27
BRANCH   2  31
HETATM   31  O2  UNK     1      11.220   7.824   6.824  1.00  0.00    -0.311 OA
BRANCH  31  32
HETATM   32  C8  UNK     1      11.031   6.760   5.988  1.00  0.00     0.255 C 
HETATM   33  C13 UNK     1       9.565   6.538   5.776  1.00  0.00     0.126 C 
HETATM   34  O7  UNK     1      11.908   6.078   5.477  1.00  0.00    -0.266 OA
ENDBRANCH  31  32
ENDBRANCH   2  31
BRANCH   5  35
HETATM   35  C6  UNK     1      13.214   5.050   9.690  1.00  0.00     0.213 C 
BRANCH  35  36
HETATM   36  O6  UNK     1      14.366   5.363  10.453  1.00  0.00    -0.319 OA
BRANCH  36  37
HETATM   37  C15 UNK     1      15.561   4.932   9.939  1.00  0.00     0.254 C 
HETATM   38  O11 UNK     1      15.890   3.766   9.771  1.00  0.00    -0.266 OA
HETATM   39  C20 UNK     1      16.430   6.105   9.602  1.00  0.00     0.126 C 
ENDBRANCH  36  37
ENDBRANCH  35  36
ENDBRANCH   5  35
BRANCH   3  40
HETATM   40  O3  UNK     1      10.469   6.001   9.875  1.00  0.00    -0.311 OA
BRANCH  40  41
HETATM   41  C9  UNK     1       9.540   5.008   9.749  1.00  0.00     0.255 C 
HETATM   42  C14 UNK     1       8.186   5.609   9.515  1.00  0.00     0.126 C 
HETATM   43  O8  UNK     1       9.754   3.805   9.813  1.00  0.00    -0.266 OA
ENDBRANCH  40  41
ENDBRANCH   3  40
TORSDOF 13
ENDMDL
MODEL 3
REMARK VINA RESULT:      -8.0     32.328     34.391
REMARK  13 active torsions:
REMARK  status: ('A' for Active; 'I' for Inactive)
REMARK    1  A    between atoms: C1_14  and  O2_2 
REMARK    2  A    between atoms: C8_21  and  O2_2 
REMARK    3  A    between atoms: C2_15  and  O3_3 
REMARK    4  A    between atoms: C9_22  and  O3_3 
REMARK    5  A    between atoms: C10_23  and  O4_4 
REMARK    6  A    between atoms: C3_16  and  O4_4 
REMARK    7  A    between atoms: C5_18  and  O5_5 
REMARK    8  A    between atoms: C7_20  and  O5_5 
REMARK    9  A    between atoms: C15_28  and  O6_6 
REMARK   10  A    between atoms: C6_19  and  O6_6 
REMARK   11  A    between atoms: C29_42  and  O13_13 
REMARK   12  A    between atoms: C4_17  and  C6_19 
REMARK   13  A    between atoms: C22_35  and  C24_37 
ROOT
HETATM    1  O1  UNK     1      23.518  -9.930  36.903  1.00  0.00    -0.348 OA
HETATM    2  C1  UNK     1      21.256  -8.224  36.377  1.00  0.00     0.198 C 
HETATM    3  C2  UNK     1      21.249  -9.717  36.021  1.00  0.00     0.195 C 
HETATM    4  C3  UNK     1      22.304  -7.899  37.448  1.00  0.00     0.219 C 
HETATM    5  C4  UNK     1      22.677 -10.238  35.782  1.00  0.00     0.181 C 
HETATM    6  C5  UNK     1      23.660  -8.523  37.104  1.00  0.00     0.299 C 
ENDROOT
BRANCH   6   7
HETATM    7  O5  UNK     1      24.569  -8.257  38.168  1.00  0.00    -0.318 OA
BRANCH   7   8
HETATM    8  C7  UNK     1      25.901  -8.263  37.854  1.00  0.00     0.074 A 
HETATM    9  C11 UNK     1      26.641  -7.083  37.931  1.00  0.00     0.075 A 
HETATM   10  C17 UNK     1      27.998  -7.092  37.608  1.00  0.00     0.091 A 
HETATM   11  O10 UNK     1      28.674  -5.903  37.704  1.00  0.00    -0.321 OA
HETATM   12  C18 UNK     1      28.613  -8.278  37.209  1.00  0.00     0.049 A 
HETATM   13  C23 UNK     1      30.007  -5.899  37.372  1.00  0.00     0.159 A 
HETATM   14  C22 UNK     1      30.740  -6.950  36.974  1.00  0.00     0.048 A 
HETATM   15  C21 UNK     1      30.049  -8.265  36.876  1.00  0.00     0.197 A 
HETATM   16  O12 UNK     1      30.634  -9.291  36.550  1.00  0.00    -0.286 OA
HETATM   17  C19 UNK     1      27.874  -9.462  37.131  1.00  0.00     0.021 A 
HETATM   18  C12 UNK     1      26.517  -9.449  37.453  1.00  0.00     0.038 A 
BRANCH  14  19
HETATM   19  C24 UNK     1      32.164  -6.790  36.633  1.00  0.00    -0.020 A 
HETATM   20  C25 UNK     1      32.544  -6.588  35.307  1.00  0.00     0.015 A 
HETATM   21  C27 UNK     1      33.893  -6.435  34.984  1.00  0.00     0.037 A 
HETATM   22  C29 UNK     1      34.860  -6.486  35.987  1.00  0.00     0.068 A 
HETATM   23  C28 UNK     1      34.479  -6.688  37.314  1.00  0.00     0.037 A 
HETATM   24  C26 UNK     1      33.131  -6.841  37.637  1.00  0.00     0.015 A 
BRANCH  22  25
HETATM   25  O13 UNK     1      36.176  -6.338  35.673  1.00  0.00    -0.356 OA
HETATM   26  C30 UNK     1      36.674  -7.113  34.582  1.00  0.00     0.210 C 
ENDBRANCH  22  25
ENDBRANCH  14  19
ENDBRANCH   7   8
ENDBRANCH   6   7
BRANCH   4  27
HETATM   27  O4  UNK     1      21.858  -8.386  38.713  1.00  0.00    -0.308 OA
BRANCH  27  28
HETATM   28  C10 UNK     1      21.629  -7.434  39.664  1.00  0.00     0.255 C 
HETATM   29  O9  UNK     1      22.415  -7.068  40.527  1.00  0.00    -0.266 OA
HETATM   30  C16 UNK     1      20.246  -6.881  39.501  1.00  0.00     0.126 C 
ENDBRANCH  27  28
ENDBRANCH   4  27
BRANCH   2  31
HETATM   31  O2  UNK     1      21.560  -7.461  35.211  1.00  0.00    -0.311 OA
BRANCH  31  32
HETATM   32  C8  UNK     1      20.505  -7.206  34.381  1.00  0.00     0.255 C 
HETATM   33  C13 UNK     1      19.317  -6.783  35.190  1.00  0.00     0.126 C 
HETATM   34  O7  UNK     1      20.506  -7.300  33.162  1.00  0.00    -0.266 OA
ENDBRANCH  31  32
ENDBRANCH   2  31
BRANCH   5  35
HETATM   35  C6  UNK     1      22.734 -11.748  35.577  1.00  0.00     0.213 C 
BRANCH  35  36
HETATM   36  O6  UNK     1      24.032 -12.092  35.125  1.00  0.00    -0.319 OA
BRANCH  36  37
HETATM   37  C15 UNK     1      24.553 -13.255  35.626  1.00  0.00     0.254 C 
HETATM   38  O11 UNK     1      24.461 -14.362  35.113  1.00  0.00    -0.266 OA
HETATM   39  C20 UNK     1      25.268 -12.986  36.916  1.00  0.00     0.126 C 
ENDBRANCH  36  37
ENDBRANCH  35  36
ENDBRANCH   5  35
BRANCH   3  40
HETATM   40  O3  UNK     1      20.628 -10.426  37.090  1.00  0.00    -0.311 OA
BRANCH  40  41
HETATM   41  C9  UNK     1      19.319 -10.112  37.325  1.00  0.00     0.255 C 
HETATM   42  C14 UNK     1      19.024 -10.240  38.790  1.00  0.00     0.126 C 
HETATM   43  O8  UNK     1      18.495  -9.777  36.487  1.00  0.00    -0.266 OA
ENDBRANCH  40  41
ENDBRANCH   3  40
TORSDOF 13
ENDMDL
MODEL 4
REMARK VINA RESULT:      -7.8     16.711     21.190
REMARK  13 active torsions:
REMARK  status: ('A' for Active; 'I' for Inactive)
REMARK    1  A    between atoms: C1_14  and  O2_2 
REMARK    2  A    between atoms: C8_21  and  O2_2 
REMARK    3  A    between atoms: C2_15  and  O3_3 
REMARK    4  A    between atoms: C9_22  and  O3_3 
REMARK    5  A    between atoms: C10_23  and  O4_4 
REMARK    6  A    between atoms: C3_16  and  O4_4 
REMARK    7  A    between atoms: C5_18  and  O5_5 
REMARK    8  A    between atoms: C7_20  and  O5_5 
REMARK    9  A    between atoms: C15_28  and  O6_6 
REMARK   10  A    between atoms: C6_19  and  O6_6 
REMARK   11  A    between atoms: C29_42  and  O13_13 
REMARK   12  A    between atoms: C4_17  and  C6_19 
REMARK   13  A    between atoms: C22_35  and  C24_37 
ROOT
HETATM    1  O1  UNK     1      21.513  -5.583  14.268  1.00  0.00    -0.348 OA
HETATM    2  C1  UNK     1      18.636  -5.474  14.154  1.00  0.00     0.198 C 
HETATM    3  C2  UNK     1      19.444  -4.622  15.143  1.00  0.00     0.195 C 
HETATM    4  C3  UNK     1      19.491  -5.937  12.970  1.00  0.00     0.219 C 
HETATM    5  C4  UNK     1      20.794  -5.283  15.472  1.00  0.00     0.181 C 
HETATM    6  C5  UNK     1      20.824  -6.525  13.445  1.00  0.00     0.299 C 
ENDROOT
BRANCH   6   7
HETATM    7  O5  UNK     1      21.607  -6.864  12.303  1.00  0.00    -0.318 OA
BRANCH   7   8
HETATM    8  C7  UNK     1      21.879  -8.193  12.118  1.00  0.00     0.074 A 
HETATM    9  C11 UNK     1      21.049  -9.159  12.685  1.00  0.00     0.075 A 
HETATM   10  C17 UNK     1      21.330 -10.513  12.496  1.00  0.00     0.091 A 
HETATM   11  O10 UNK     1      20.479 -11.418  13.077  1.00  0.00    -0.321 OA
HETATM   12  C18 UNK     1      22.437 -10.897  11.742  1.00  0.00     0.049 A 
HETATM   13  C23 UNK     1      20.757 -12.753  12.910  1.00  0.00     0.159 A 
HETATM   14  C22 UNK     1      21.776 -13.281  12.215  1.00  0.00     0.048 A 
HETATM   15  C21 UNK     1      22.713 -12.333  11.551  1.00  0.00     0.197 A 
HETATM   16  O12 UNK     1      23.657 -12.713  10.871  1.00  0.00    -0.286 OA
HETATM   17  C19 UNK     1      23.270  -9.931  11.171  1.00  0.00     0.021 A 
HETATM   18  C12 UNK     1      22.987  -8.578  11.364  1.00  0.00     0.038 A 
BRANCH  14  19
HETATM   19  C24 UNK     1      21.958 -14.740  12.137  1.00  0.00    -0.020 A 
HETATM   20  C25 UNK     1      20.872 -15.563  11.837  1.00  0.00     0.015 A 
HETATM   21  C27 UNK     1      21.045 -16.945  11.763  1.00  0.00     0.037 A 
HETATM   22  C29 UNK     1      22.302 -17.504  11.990  1.00  0.00     0.068 A 
HETATM   23  C28 UNK     1      23.388 -16.681  12.291  1.00  0.00     0.037 A 
HETATM   24  C26 UNK     1      23.215 -15.299  12.365  1.00  0.00     0.015 A 
BRANCH  22  25
HETATM   25  O13 UNK     1      22.471 -18.853  11.919  1.00  0.00    -0.356 OA
HETATM   26  C30 UNK     1      21.398 -19.613  11.364  1.00  0.00     0.210 C 
ENDBRANCH  22  25
ENDBRANCH  14  19
ENDBRANCH   7   8
ENDBRANCH   6   7
BRANCH   4  27
HETATM   27  O4  UNK     1      19.737  -4.832  12.100  1.00  0.00    -0.308 OA
BRANCH  27  28
HETATM   28  C10 UNK     1      18.915  -4.743  11.015  1.00  0.00     0.255 C 
HETATM   29  O9  UNK     1      18.305  -3.748  10.648  1.00  0.00    -0.266 OA
HETATM   30  C16 UNK     1      18.859  -6.066  10.314  1.00  0.00     0.126 C 
ENDBRANCH  27  28
ENDBRANCH   4  27
BRANCH   2  31
HETATM   31  O2  UNK     1      18.140  -6.631  14.824  1.00  0.00    -0.311 OA
BRANCH  31  32
HETATM   32  C8  UNK     1      16.779  -6.726  14.908  1.00  0.00     0.255 C 
HETATM   33  C13 UNK     1      16.372  -6.888  16.341  1.00  0.00     0.126 C 
HETATM   34  O7  UNK     1      15.993  -6.687  13.973  1.00  0.00    -0.266 OA
ENDBRANCH  31  32
ENDBRANCH   2  31
BRANCH   5  35
HETATM   35  C6  UNK     1      21.696  -4.403  16.329  1.00  0.00     0.213 C 
BRANCH  35  36
HETATM   36  O6  UNK     1      23.041  -4.620  15.939  1.00  0.00    -0.319 OA
BRANCH  36  37
HETATM   37  C15 UNK     1      23.979  -4.509  16.931  1.00  0.00     0.254 C 
HETATM   38  O11 UNK     1      25.135  -4.904  16.872  1.00  0.00    -0.266 OA
HETATM   39  C20 UNK     1      23.388  -3.822  18.125  1.00  0.00     0.126 C 
ENDBRANCH  36  37
ENDBRANCH  35  36
ENDBRANCH   5  35
BRANCH   3  40
HETATM   40  O3  UNK     1      19.644  -3.336  14.562  1.00  0.00    -0.311 OA
BRANCH  40  41
HETATM   41  C9  UNK     1      18.534  -2.543  14.487  1.00  0.00     0.255 C 
HETATM   42  C14 UNK     1      17.893  -2.443  15.839  1.00  0.00     0.126 C 
HETATM   43  O8  UNK     1      18.107  -1.990  13.483  1.00  0.00    -0.266 OA
ENDBRANCH  40  41
ENDBRANCH   3  40
TORSDOF 13
ENDMDL
MODEL 5
REMARK VINA RESULT:      -7.7     31.351     33.496
REMARK  13 active torsions:
REMARK  status: ('A' for Active; 'I' for Inactive)
REMARK    1  A    between atoms: C1_14  and  O2_2 
REMARK    2  A    between atoms: C8_21  and  O2_2 
REMARK    3  A    between atoms: C2_15  and  O3_3 
REMARK    4  A    between atoms: C9_22  and  O3_3 
REMARK    5  A    between atoms: C10_23  and  O4_4 
REMARK    6  A    between atoms: C3_16  and  O4_4 
REMARK    7  A    between atoms: C5_18  and  O5_5 
REMARK    8  A    between atoms: C7_20  and  O5_5 
REMARK    9  A    between atoms: C15_28  and  O6_6 
REMARK   10  A    between atoms: C6_19  and  O6_6 
REMARK   11  A    between atoms: C29_42  and  O13_13 
REMARK   12  A    between atoms: C4_17  and  C6_19 
REMARK   13  A    between atoms: C22_35  and  C24_37 
ROOT
HETATM    1  O1  UNK     1      22.697  -7.183  38.006  1.00  0.00    -0.348 OA
HETATM    2  C1  UNK     1      20.467  -8.675  36.954  1.00  0.00     0.198 C 
HETATM    3  C2  UNK     1      20.604  -7.160  36.745  1.00  0.00     0.195 C 
HETATM    4  C3  UNK     1      21.813  -9.328  37.287  1.00  0.00     0.219 C 
HETATM    5  C4  UNK     1      21.434  -6.517  37.870  1.00  0.00     0.181 C 
HETATM    6  C5  UNK     1      22.549  -8.552  38.384  1.00  0.00     0.299 C 
ENDROOT
BRANCH   6   7
HETATM    7  O5  UNK     1      23.822  -9.156  38.595  1.00  0.00    -0.318 OA
BRANCH   7   8
HETATM    8  C7  UNK     1      24.920  -8.369  38.372  1.00  0.00     0.074 A 
HETATM    9  C11 UNK     1      25.906  -8.785  37.478  1.00  0.00     0.075 A 
HETATM   10  C17 UNK     1      27.024  -7.982  37.255  1.00  0.00     0.091 A 
HETATM   11  O10 UNK     1      27.960  -8.442  36.364  1.00  0.00    -0.321 OA
HETATM   12  C18 UNK     1      27.155  -6.766  37.924  1.00  0.00     0.049 A 
HETATM   13  C23 UNK     1      29.073  -7.666  36.150  1.00  0.00     0.159 A 
HETATM   14  C22 UNK     1      29.344  -6.477  36.710  1.00  0.00     0.048 A 
HETATM   15  C21 UNK     1      28.344  -5.931  37.668  1.00  0.00     0.197 A 
HETATM   16  O12 UNK     1      28.482  -4.842  38.212  1.00  0.00    -0.286 OA
HETATM   17  C19 UNK     1      26.169  -6.346  38.819  1.00  0.00     0.021 A 
HETATM   18  C12 UNK     1      25.052  -7.152  39.042  1.00  0.00     0.038 A 
BRANCH  14  19
HETATM   19  C24 UNK     1      30.593  -5.764  36.396  1.00  0.00    -0.020 A 
HETATM   20  C25 UNK     1      30.898  -5.443  35.073  1.00  0.00     0.015 A 
HETATM   21  C27 UNK     1      32.081  -4.766  34.775  1.00  0.00     0.037 A 
HETATM   22  C29 UNK     1      32.958  -4.412  35.800  1.00  0.00     0.068 A 
HETATM   23  C28 UNK     1      32.653  -4.733  37.122  1.00  0.00     0.037 A 
HETATM   24  C26 UNK     1      31.470  -5.409  37.420  1.00  0.00     0.015 A 
BRANCH  22  25
HETATM   25  O13 UNK     1      34.113  -3.752  35.509  1.00  0.00    -0.356 OA
HETATM   26  C30 UNK     1      34.743  -4.061  34.266  1.00  0.00     0.210 C 
ENDBRANCH  22  25
ENDBRANCH  14  19
ENDBRANCH   7   8
ENDBRANCH   6   7
BRANCH   4  27
HETATM   27  O4  UNK     1      22.621  -9.379  36.111  1.00  0.00    -0.308 OA
BRANCH  27  28
HETATM   28  C10 UNK     1      22.445 -10.478  35.322  1.00  0.00     0.255 C 
HETATM   29  O9  UNK     1      21.702 -10.564  34.354  1.00  0.00    -0.266 OA
HETATM   30  C16 UNK     1      23.309 -11.597  35.818  1.00  0.00     0.126 C 
ENDBRANCH  27  28
ENDBRANCH   4  27
BRANCH   2  31
HETATM   31  O2  UNK     1      19.572  -8.923  38.036  1.00  0.00    -0.311 OA
BRANCH  31  32
HETATM   32  C8  UNK     1      19.316 -10.239  38.300  1.00  0.00     0.255 C 
HETATM   33  C13 UNK     1      19.358 -10.475  39.779  1.00  0.00     0.126 C 
HETATM   34  O7  UNK     1      19.085 -11.110  37.473  1.00  0.00    -0.266 OA
ENDBRANCH  31  32
ENDBRANCH   2  31
BRANCH   5  35
HETATM   35  C6  UNK     1      21.726  -5.041  37.625  1.00  0.00     0.213 C 
BRANCH  35  36
HETATM   36  O6  UNK     1      20.521  -4.311  37.774  1.00  0.00    -0.319 OA
BRANCH  36  37
HETATM   37  C15 UNK     1      20.158  -3.528  36.711  1.00  0.00     0.254 C 
HETATM   38  O11 UNK     1      20.530  -3.670  35.555  1.00  0.00    -0.266 OA
HETATM   39  C20 UNK     1      19.221  -2.448  37.164  1.00  0.00     0.126 C 
ENDBRANCH  36  37
ENDBRANCH  35  36
ENDBRANCH   5  35
BRANCH   3  40
HETATM   40  O3  UNK     1      21.220  -6.941  35.478  1.00  0.00    -0.311 OA
BRANCH  40  41
HETATM   41  C9  UNK     1      20.400  -7.068  34.393  1.00  0.00     0.255 C 
HETATM   42  C14 UNK     1      18.968  -6.967  34.827  1.00  0.00     0.126 C 
HETATM   43  O8  UNK     1      20.755  -7.240  33.235  1.00  0.00    -0.266 OA
ENDBRANCH  40  41
ENDBRANCH   3  40
TORSDOF 13
ENDMDL
MODEL 6
REMARK VINA RESULT:      -7.7     32.504     35.827
REMARK  13 active torsions:
REMARK  status: ('A' for Active; 'I' for Inactive)
REMARK    1  A    between atoms: C1_14  and  O2_2 
REMARK    2  A    between atoms: C8_21  and  O2_2 
REMARK    3  A    between atoms: C2_15  and  O3_3 
REMARK    4  A    between atoms: C9_22  and  O3_3 
REMARK    5  A    between atoms: C10_23  and  O4_4 
REMARK    6  A    between atoms: C3_16  and  O4_4 
REMARK    7  A    between atoms: C5_18  and  O5_5 
REMARK    8  A    between atoms: C7_20  and  O5_5 
REMARK    9  A    between atoms: C15_28  and  O6_6 
REMARK   10  A    between atoms: C6_19  and  O6_6 
REMARK   11  A    between atoms: C29_42  and  O13_13 
REMARK   12  A    between atoms: C4_17  and  C6_19 
REMARK   13  A    between atoms: C22_35  and  C24_37 
ROOT
HETATM    1  O1  UNK     1      31.224  -7.840  36.365  1.00  0.00    -0.348 OA
HETATM    2  C1  UNK     1      33.495  -6.667  35.034  1.00  0.00     0.198 C 
HETATM    3  C2  UNK     1      32.467  -7.526  34.284  1.00  0.00     0.195 C 
HETATM    4  C3  UNK     1      32.924  -6.105  36.341  1.00  0.00     0.219 C 
HETATM    5  C4  UNK     1      31.779  -8.524  35.233  1.00  0.00     0.181 C 
HETATM    6  C5  UNK     1      32.226  -7.199  37.156  1.00  0.00     0.299 C 
ENDROOT
BRANCH   6   7
HETATM    7  O5  UNK     1      31.648  -6.606  38.315  1.00  0.00    -0.318 OA
BRANCH   7   8
HETATM    8  C7  UNK     1      30.280  -6.595  38.383  1.00  0.00     0.074 A 
HETATM    9  C11 UNK     1      29.572  -7.796  38.352  1.00  0.00     0.075 A 
HETATM   10  C17 UNK     1      28.179  -7.782  38.418  1.00  0.00     0.091 A 
HETATM   11  O10 UNK     1      27.536  -8.993  38.385  1.00  0.00    -0.321 OA
HETATM   12  C18 UNK     1      27.496  -6.570  38.516  1.00  0.00     0.049 A 
HETATM   13  C23 UNK     1      26.163  -8.988  38.433  1.00  0.00     0.159 A 
HETATM   14  C22 UNK     1      25.365  -7.913  38.530  1.00  0.00     0.048 A 
HETATM   15  C21 UNK     1      26.024  -6.579  38.590  1.00  0.00     0.197 A 
HETATM   16  O12 UNK     1      25.388  -5.539  38.707  1.00  0.00    -0.286 OA
HETATM   17  C19 UNK     1      28.204  -5.366  38.548  1.00  0.00     0.021 A 
HETATM   18  C12 UNK     1      29.597  -5.383  38.480  1.00  0.00     0.038 A 
BRANCH  14  19
HETATM   19  C24 UNK     1      23.901  -8.062  38.555  1.00  0.00    -0.020 A 
HETATM   20  C25 UNK     1      23.181  -7.689  39.690  1.00  0.00     0.015 A 
HETATM   21  C27 UNK     1      21.794  -7.829  39.714  1.00  0.00     0.037 A 
HETATM   22  C29 UNK     1      21.127  -8.344  38.602  1.00  0.00     0.068 A 
HETATM   23  C28 UNK     1      21.846  -8.717  37.467  1.00  0.00     0.037 A 
HETATM   24  C26 UNK     1      23.234  -8.577  37.444  1.00  0.00     0.015 A 
BRANCH  22  25
HETATM   25  O13 UNK     1      19.773  -8.481  38.625  1.00  0.00    -0.356 OA
HETATM   26  C30 UNK     1      19.000  -7.383  38.138  1.00  0.00     0.210 C 
ENDBRANCH  22  25
ENDBRANCH  14  19
ENDBRANCH   7   8
ENDBRANCH   6   7
BRANCH   4  27
HETATM   27  O4  UNK     1      31.996  -5.062  36.044  1.00  0.00    -0.308 OA
BRANCH  27  28
HETATM   28  C10 UNK     1      32.512  -3.798  36.042  1.00  0.00     0.255 C 
HETATM   29  O9  UNK     1      33.582  -3.454  35.560  1.00  0.00    -0.266 OA
HETATM   30  C16 UNK     1      31.563  -2.865  36.730  1.00  0.00     0.126 C 
ENDBRANCH  27  28
ENDBRANCH   4  27
BRANCH   2  31
HETATM   31  O2  UNK     1      34.634  -7.465  35.353  1.00  0.00    -0.311 OA
BRANCH  31  32
HETATM   32  C8  UNK     1      35.820  -6.793  35.436  1.00  0.00     0.255 C 
HETATM   33  C13 UNK     1      36.834  -7.446  34.546  1.00  0.00     0.126 C 
HETATM   34  O7  UNK     1      36.046  -5.806  36.122  1.00  0.00    -0.266 OA
ENDBRANCH  31  32
ENDBRANCH   2  31
BRANCH   5  35
HETATM   35  C6  UNK     1      30.643  -9.292  34.567  1.00  0.00     0.213 C 
BRANCH  35  36
HETATM   36  O6  UNK     1      29.413  -8.808  35.077  1.00  0.00    -0.319 OA
BRANCH  36  37
HETATM   37  C15 UNK     1      28.620  -8.130  34.190  1.00  0.00     0.254 C 
HETATM   38  O11 UNK     1      28.355  -8.485  33.049  1.00  0.00    -0.266 OA
HETATM   39  C20 UNK     1      28.107  -6.869  34.817  1.00  0.00     0.126 C 
ENDBRANCH  36  37
ENDBRANCH  35  36
ENDBRANCH   5  35
BRANCH   3  40
HETATM   40  O3  UNK     1      31.508  -6.654  33.691  1.00  0.00    -0.311 OA
BRANCH  40  41
HETATM   41  C9  UNK     1      31.495  -6.630  32.326  1.00  0.00     0.255 C 
HETATM   42  C14 UNK     1      30.368  -5.765  31.846  1.00  0.00     0.126 C 
HETATM   43  O8  UNK     1      32.273  -7.217  31.586  1.00  0.00    -0.266 OA
ENDBRANCH  40  41
ENDBRANCH   3  40
TORSDOF 13
ENDMDL
MODEL 7
REMARK VINA RESULT:      -7.7     32.169     34.175
REMARK  13 active torsions:
REMARK  status: ('A' for Active; 'I' for Inactive)
REMARK    1  A    between atoms: C1_14  and  O2_2 
REMARK    2  A    between atoms: C8_21  and  O2_2 
REMARK    3  A    between atoms: C2_15  and  O3_3 
REMARK    4  A    between atoms: C9_22  and  O3_3 
REMARK    5  A    between atoms: C10_23  and  O4_4 
REMARK    6  A    between atoms: C3_16  and  O4_4 
REMARK    7  A    between atoms: C5_18  and  O5_5 
REMARK    8  A    between atoms: C7_20  and  O5_5 
REMARK    9  A    between atoms: C15_28  and  O6_6 
REMARK   10  A    between atoms: C6_19  and  O6_6 
REMARK   11  A    between atoms: C29_42  and  O13_13 
REMARK   12  A    between atoms: C4_17  and  C6_19 
REMARK   13  A    between atoms: C22_35  and  C24_37 
ROOT
HETATM    1  O1  UNK     1      21.092  -9.326  38.249  1.00  0.00    -0.348 OA
HETATM    2  C1  UNK     1      20.634  -7.657  35.945  1.00  0.00     0.198 C 
HETATM    3  C2  UNK     1      19.568  -8.629  36.470  1.00  0.00     0.195 C 
HETATM    4  C3  UNK     1      21.670  -7.312  37.020  1.00  0.00     0.219 C 
HETATM    5  C4  UNK     1      20.213  -9.806  37.222  1.00  0.00     0.181 C 
HETATM    6  C5  UNK     1      22.185  -8.574  37.719  1.00  0.00     0.299 C 
ENDROOT
BRANCH   6   7
HETATM    7  O5  UNK     1      23.081  -8.189  38.758  1.00  0.00    -0.318 OA
BRANCH   7   8
HETATM    8  C7  UNK     1      24.410  -8.133  38.433  1.00  0.00     0.074 A 
HETATM    9  C11 UNK     1      25.240  -7.200  39.054  1.00  0.00     0.075 A 
HETATM   10  C17 UNK     1      26.593  -7.144  38.720  1.00  0.00     0.091 A 
HETATM   11  O10 UNK     1      27.361  -6.208  39.364  1.00  0.00    -0.321 OA
HETATM   12  C18 UNK     1      27.114  -8.018  37.767  1.00  0.00     0.049 A 
HETATM   13  C23 UNK     1      28.691  -6.134  39.030  1.00  0.00     0.159 A 
HETATM   14  C22 UNK     1      29.340  -6.900  38.140  1.00  0.00     0.048 A 
HETATM   15  C21 UNK     1      28.548  -7.943  37.432  1.00  0.00     0.197 A 
HETATM   16  O12 UNK     1      29.051  -8.713  36.623  1.00  0.00    -0.286 OA
HETATM   17  C19 UNK     1      26.285  -8.954  37.143  1.00  0.00     0.021 A 
HETATM   18  C12 UNK     1      24.931  -9.007  37.479  1.00  0.00     0.038 A 
BRANCH  14  19
HETATM   19  C24 UNK     1      30.773  -6.693  37.871  1.00  0.00    -0.020 A 
HETATM   20  C25 UNK     1      31.698  -7.676  38.224  1.00  0.00     0.015 A 
HETATM   21  C27 UNK     1      33.055  -7.480  37.969  1.00  0.00     0.037 A 
HETATM   22  C29 UNK     1      33.487  -6.301  37.362  1.00  0.00     0.068 A 
HETATM   23  C28 UNK     1      32.562  -5.318  37.010  1.00  0.00     0.037 A 
HETATM   24  C26 UNK     1      31.205  -5.514  37.265  1.00  0.00     0.015 A 
BRANCH  22  25
HETATM   25  O13 UNK     1      34.811  -6.109  37.113  1.00  0.00    -0.356 OA
HETATM   26  C30 UNK     1      35.174  -5.724  35.787  1.00  0.00     0.210 C 
ENDBRANCH  22  25
ENDBRANCH  14  19
ENDBRANCH   7   8
ENDBRANCH   6   7
BRANCH   4  27
HETATM   27  O4  UNK     1      21.083  -6.436  37.983  1.00  0.00    -0.308 OA
BRANCH  27  28
HETATM   28  C10 UNK     1      21.571  -5.162  37.995  1.00  0.00     0.255 C 
HETATM   29  O9  UNK     1      22.711  -4.826  38.285  1.00  0.00    -0.266 OA
HETATM   30  C16 UNK     1      20.491  -4.205  37.593  1.00  0.00     0.126 C 
ENDBRANCH  27  28
ENDBRANCH   4  27
BRANCH   2  31
HETATM   31  O2  UNK     1      21.317  -8.254  34.844  1.00  0.00    -0.311 OA
BRANCH  31  32
HETATM   32  C8  UNK     1      21.121  -7.655  33.633  1.00  0.00     0.255 C 
HETATM   33  C13 UNK     1      20.353  -6.382  33.817  1.00  0.00     0.126 C 
HETATM   34  O7  UNK     1      21.505  -8.073  32.549  1.00  0.00    -0.266 OA
ENDBRANCH  31  32
ENDBRANCH   2  31
BRANCH   5  35
HETATM   35  C6  UNK     1      19.191 -10.716  37.893  1.00  0.00     0.213 C 
BRANCH  35  36
HETATM   36  O6  UNK     1      19.409 -10.686  39.293  1.00  0.00    -0.319 OA
BRANCH  36  37
HETATM   37  C15 UNK     1      19.188 -11.860  39.961  1.00  0.00     0.254 C 
HETATM   38  O11 UNK     1      19.115 -12.971  39.454  1.00  0.00    -0.266 OA
HETATM   39  C20 UNK     1      19.045 -11.599  41.430  1.00  0.00     0.126 C 
ENDBRANCH  36  37
ENDBRANCH  35  36
ENDBRANCH   5  35
BRANCH   3  40
HETATM   40  O3  UNK     1      18.690  -7.905  37.328  1.00  0.00    -0.311 OA
BRANCH  40  41
HETATM   41  C9  UNK     1      17.805  -7.075  36.702  1.00  0.00     0.255 C 
HETATM   42  C14 UNK     1      17.327  -7.712  35.432  1.00  0.00     0.126 C 
HETATM   43  O8  UNK     1      17.441  -5.975  37.097  1.00  0.00    -0.266 OA
ENDBRANCH  40  41
ENDBRANCH   3  40
TORSDOF 13
ENDMDL
MODEL 8
REMARK VINA RESULT:      -7.5     16.980     21.345
REMARK  13 active torsions:
REMARK  status: ('A' for Active; 'I' for Inactive)
REMARK    1  A    between atoms: C1_14  and  O2_2 
REMARK    2  A    between atoms: C8_21  and  O2_2 
REMARK    3  A    between atoms: C2_15  and  O3_3 
REMARK    4  A    between atoms: C9_22  and  O3_3 
REMARK    5  A    between atoms: C10_23  and  O4_4 
REMARK    6  A    between atoms: C3_16  and  O4_4 
REMARK    7  A    between atoms: C5_18  and  O5_5 
REMARK    8  A    between atoms: C7_20  and  O5_5 
REMARK    9  A    between atoms: C15_28  and  O6_6 
REMARK   10  A    between atoms: C6_19  and  O6_6 
REMARK   11  A    between atoms: C29_42  and  O13_13 
REMARK   12  A    between atoms: C4_17  and  C6_19 
REMARK   13  A    between atoms: C22_35  and  C24_37 
ROOT
HETATM    1  O1  UNK     1      21.663  -5.646  14.678  1.00  0.00    -0.348 OA
HETATM    2  C1  UNK     1      18.787  -5.490  14.614  1.00  0.00     0.198 C 
HETATM    3  C2  UNK     1      19.635  -4.532  15.462  1.00  0.00     0.195 C 
HETATM    4  C3  UNK     1      19.604  -6.125  13.483  1.00  0.00     0.219 C 
HETATM    5  C4  UNK     1      20.980  -5.173  15.847  1.00  0.00     0.181 C 
HETATM    6  C5  UNK     1      20.936  -6.674  14.003  1.00  0.00     0.299 C 
ENDROOT
BRANCH   6   7
HETATM    7  O5  UNK     1      21.684  -7.179  12.900  1.00  0.00    -0.318 OA
BRANCH   7   8
HETATM    8  C7  UNK     1      21.709  -8.539  12.746  1.00  0.00     0.074 A 
HETATM    9  C11 UNK     1      22.922  -9.193  12.537  1.00  0.00     0.075 A 
HETATM   10  C17 UNK     1      22.945 -10.579  12.378  1.00  0.00     0.091 A 
HETATM   11  O10 UNK     1      24.167 -11.169  12.177  1.00  0.00    -0.321 OA
HETATM   12  C18 UNK     1      21.757 -11.307  12.428  1.00  0.00     0.049 A 
HETATM   13  C23 UNK     1      24.197 -12.531  12.002  1.00  0.00     0.159 A 
HETATM   14  C22 UNK     1      23.149 -13.368  12.026  1.00  0.00     0.048 A 
HETATM   15  C21 UNK     1      21.805 -12.772  12.262  1.00  0.00     0.197 A 
HETATM   16  O12 UNK     1      20.788 -13.451  12.330  1.00  0.00    -0.286 OA
HETATM   17  C19 UNK     1      20.540 -10.654  12.639  1.00  0.00     0.021 A 
HETATM   18  C12 UNK     1      20.521  -9.267  12.796  1.00  0.00     0.038 A 
BRANCH  14  19
HETATM   19  C24 UNK     1      23.333 -14.812  11.806  1.00  0.00    -0.020 A 
HETATM   20  C25 UNK     1      22.833 -15.410  10.649  1.00  0.00     0.015 A 
HETATM   21  C27 UNK     1      23.008 -16.778  10.440  1.00  0.00     0.037 A 
HETATM   22  C29 UNK     1      23.682 -17.548  11.388  1.00  0.00     0.068 A 
HETATM   23  C28 UNK     1      24.182 -16.949  12.545  1.00  0.00     0.037 A 
HETATM   24  C26 UNK     1      24.007 -15.582  12.754  1.00  0.00     0.015 A 
BRANCH  22  25
HETATM   25  O13 UNK     1      23.853 -18.883  11.185  1.00  0.00    -0.356 OA
HETATM   26  C30 UNK     1      23.856 -19.338   9.831  1.00  0.00     0.210 C 
ENDBRANCH  22  25
ENDBRANCH  14  19
ENDBRANCH   7   8
ENDBRANCH   6   7
BRANCH   4  27
HETATM   27  O4  UNK     1      19.849  -5.151  12.468  1.00  0.00    -0.308 OA
BRANCH  27  28
HETATM   28  C10 UNK     1      18.929  -5.106  11.461  1.00  0.00     0.255 C 
HETATM   29  O9  UNK     1      18.397  -4.102  11.011  1.00  0.00    -0.266 OA
HETATM   30  C16 UNK     1      18.654  -6.494  10.968  1.00  0.00     0.126 C 
ENDBRANCH  27  28
ENDBRANCH   4  27
BRANCH   2  31
HETATM   31  O2  UNK     1      18.285  -6.537  15.443  1.00  0.00    -0.311 OA
BRANCH  31  32
HETATM   32  C8  UNK     1      16.925  -6.651  15.491  1.00  0.00     0.255 C 
HETATM   33  C13 UNK     1      16.446  -6.407  16.889  1.00  0.00     0.126 C 
HETATM   34  O7  UNK     1      16.188  -6.911  14.550  1.00  0.00    -0.266 OA
ENDBRANCH  31  32
ENDBRANCH   2  31
BRANCH   5  35
HETATM   35  C6  UNK     1      21.920  -4.206  16.558  1.00  0.00     0.213 C 
BRANCH  35  36
HETATM   36  O6  UNK     1      23.166  -4.211  15.885  1.00  0.00    -0.319 OA
BRANCH  36  37
HETATM   37  C15 UNK     1      24.279  -4.170  16.682  1.00  0.00     0.254 C 
HETATM   38  O11 UNK     1      25.212  -4.961  16.652  1.00  0.00    -0.266 OA
HETATM   39  C20 UNK     1      24.201  -3.000  17.616  1.00  0.00     0.126 C 
ENDBRANCH  36  37
ENDBRANCH  35  36
ENDBRANCH   5  35
BRANCH   3  40
HETATM   40  O3  UNK     1      19.844  -3.339  14.710  1.00  0.00    -0.311 OA
BRANCH  40  41
HETATM   41  C9  UNK     1      18.799  -2.460  14.694  1.00  0.00     0.255 C 
HETATM   42  C14 UNK     1      18.621  -1.863  16.057  1.00  0.00     0.126 C 
HETATM   43  O8  UNK     1      18.100  -2.186  13.728  1.00  0.00    -0.266 OA
ENDBRANCH  40  41
ENDBRANCH   3  40
TORSDOF 13
ENDMDL
MODEL 9
REMARK VINA RESULT:      -7.4     23.180     26.147
REMARK  13 active torsions:
REMARK  status: ('A' for Active; 'I' for Inactive)
REMARK    1  A    between atoms: C1_14  and  O2_2 
REMARK    2  A    between atoms: C8_21  and  O2_2 
REMARK    3  A    between atoms: C2_15  and  O3_3 
REMARK    4  A    between atoms: C9_22  and  O3_3 
REMARK    5  A    between atoms: C10_23  and  O4_4 
REMARK    6  A    between atoms: C3_16  and  O4_4 
REMARK    7  A    between atoms: C5_18  and  O5_5 
REMARK    8  A    between atoms: C7_20  and  O5_5 
REMARK    9  A    between atoms: C15_28  and  O6_6 
REMARK   10  A    between atoms: C6_19  and  O6_6 
REMARK   11  A    between atoms: C29_42  and  O13_13 
REMARK   12  A    between atoms: C4_17  and  C6_19 
REMARK   13  A    between atoms: C22_35  and  C24_37 
ROOT
HETATM    1  O1  UNK     1      16.511  12.498  35.911  1.00  0.00    -0.348 OA
HETATM    2  C1  UNK     1      15.523  14.223  33.824  1.00  0.00     0.198 C 
HETATM    3  C2  UNK     1      14.896  14.199  35.225  1.00  0.00     0.195 C 
HETATM    4  C3  UNK     1      16.954  13.672  33.831  1.00  0.00     0.219 C 
HETATM    5  C4  UNK     1      15.118  12.839  35.910  1.00  0.00     0.181 C 
HETATM    6  C5  UNK     1      17.032  12.343  34.590  1.00  0.00     0.299 C 
ENDROOT
BRANCH   6   7
HETATM    7  O5  UNK     1      18.392  11.921  34.632  1.00  0.00    -0.318 OA
BRANCH   7   8
HETATM    8  C7  UNK     1      18.637  10.609  34.325  1.00  0.00     0.074 A 
HETATM    9  C11 UNK     1      17.611   9.807  33.828  1.00  0.00     0.075 A 
HETATM   10  C17 UNK     1      17.862   8.470  33.518  1.00  0.00     0.091 A 
HETATM   11  O10 UNK     1      16.816   7.730  33.032  1.00  0.00    -0.321 OA
HETATM   12  C18 UNK     1      19.138   7.939  33.704  1.00  0.00     0.049 A 
HETATM   13  C23 UNK     1      17.050   6.408  32.740  1.00  0.00     0.159 A 
HETATM   14  C22 UNK     1      18.215   5.752  32.860  1.00  0.00     0.048 A 
HETATM   15  C21 UNK     1      19.383   6.524  33.365  1.00  0.00     0.197 A 
HETATM   16  O12 UNK     1      20.496   6.027  33.485  1.00  0.00    -0.286 OA
HETATM   17  C19 UNK     1      20.169   8.741  34.200  1.00  0.00     0.021 A 
HETATM   18  C12 UNK     1      19.913  10.077  34.511  1.00  0.00     0.038 A 
BRANCH  14  19
HETATM   19  C24 UNK     1      18.312   4.323  32.522  1.00  0.00    -0.020 A 
HETATM   20  C25 UNK     1      18.547   3.932  31.204  1.00  0.00     0.015 A 
HETATM   21  C27 UNK     1      18.640   2.578  30.883  1.00  0.00     0.037 A 
HETATM   22  C29 UNK     1      18.497   1.614  31.881  1.00  0.00     0.068 A 
HETATM   23  C28 UNK     1      18.263   2.005  33.200  1.00  0.00     0.037 A 
HETATM   24  C26 UNK     1      18.170   3.359  33.520  1.00  0.00     0.015 A 
BRANCH  22  25
HETATM   25  O13 UNK     1      18.588   0.292  31.569  1.00  0.00    -0.356 OA
HETATM   26  C30 UNK     1      19.809  -0.153  30.980  1.00  0.00     0.210 C 
ENDBRANCH  22  25
ENDBRANCH  14  19
ENDBRANCH   7   8
ENDBRANCH   6   7
BRANCH   4  27
HETATM   27  O4  UNK     1      17.827  14.624  34.439  1.00  0.00    -0.308 OA
BRANCH  27  28
HETATM   28  C10 UNK     1      18.857  15.061  33.657  1.00  0.00     0.255 C 
HETATM   29  O9  UNK     1      19.760  15.809  34.001  1.00  0.00    -0.266 OA
HETATM   30  C16 UNK     1      18.726  14.481  32.281  1.00  0.00     0.126 C 
ENDBRANCH  27  28
ENDBRANCH   4  27
BRANCH   2  31
HETATM   31  O2  UNK     1      14.741  13.419  32.943  1.00  0.00    -0.311 OA
BRANCH  31  32
HETATM   32  C8  UNK     1      13.721  14.066  32.305  1.00  0.00     0.255 C 
HETATM   33  C13 UNK     1      14.262  15.236  31.542  1.00  0.00     0.126 C 
HETATM   34  O7  UNK     1      12.538  13.755  32.335  1.00  0.00    -0.266 OA
ENDBRANCH  31  32
ENDBRANCH   2  31
BRANCH   5  35
HETATM   35  C6  UNK     1      14.647  12.818  37.360  1.00  0.00     0.213 C 
BRANCH  35  36
HETATM   36  O6  UNK     1      14.222  11.504  37.677  1.00  0.00    -0.319 OA
BRANCH  36  37
HETATM   37  C15 UNK     1      13.877  11.284  38.984  1.00  0.00     0.254 C 
HETATM   38  O11 UNK     1      14.654  11.078  39.906  1.00  0.00    -0.266 OA
HETATM   39  C20 UNK     1      12.386  11.330  39.138  1.00  0.00     0.126 C 
ENDBRANCH  36  37
ENDBRANCH  35  36
ENDBRANCH   5  35
BRANCH   3  40
HETATM   40  O3  UNK     1      15.481  15.249  35.992  1.00  0.00    -0.311 OA
BRANCH  40  41
HETATM   41  C9  UNK     1      14.982  16.498  35.759  1.00  0.00     0.255 C 
HETATM   42  C14 UNK     1      13.491  16.485  35.918  1.00  0.00     0.126 C 
HETATM   43  O8  UNK     1      15.631  17.492  35.463  1.00  0.00    -0.266 OA
ENDBRANCH  40  41
ENDBRANCH   3  40
TORSDOF 13
ENDMDL
MODEL 10
REMARK VINA RESULT:      -7.4     33.289     36.616
REMARK  13 active torsions:
REMARK  status: ('A' for Active; 'I' for Inactive)
REMARK    1  A    between atoms: C1_14  and  O2_2 
REMARK    2  A    between atoms: C8_21  and  O2_2 
REMARK    3  A    between atoms: C2_15  and  O3_3 
REMARK    4  A    between atoms: C9_22  and  O3_3 
REMARK    5  A    between atoms: C10_23  and  O4_4 
REMARK    6  A    between atoms: C3_16  and  O4_4 
REMARK    7  A    between atoms: C5_18  and  O5_5 
REMARK    8  A    between atoms: C7_20  and  O5_5 
REMARK    9  A    between atoms: C15_28  and  O6_6 
REMARK   10  A    between atoms: C6_19  and  O6_6 
REMARK   11  A    between atoms: C29_42  and  O13_13 
REMARK   12  A    between atoms: C4_17  and  C6_19 
REMARK   13  A    between atoms: C22_35  and  C24_37 
ROOT
HETATM    1  O1  UNK     1      29.654  -9.080  36.552  1.00  0.00    -0.348 OA
HETATM    2  C1  UNK     1      30.937  -6.751  35.442  1.00  0.00     0.198 C 
HETATM    3  C2  UNK     1      29.802  -6.642  36.470  1.00  0.00     0.195 C 
HETATM    4  C3  UNK     1      31.616  -8.125  35.485  1.00  0.00     0.219 C 
HETATM    5  C4  UNK     1      28.885  -7.877  36.417  1.00  0.00     0.181 C 
HETATM    6  C5  UNK     1      30.580  -9.254  35.478  1.00  0.00     0.299 C 
ENDROOT
BRANCH   6   7
HETATM    7  O5  UNK     1      31.262 -10.499  35.600  1.00  0.00    -0.318 OA
BRANCH   7   8
HETATM    8  C7  UNK     1      31.171 -11.355  34.535  1.00  0.00     0.074 A 
HETATM    9  C11 UNK     1      31.847 -12.575  34.562  1.00  0.00     0.075 A 
HETATM   10  C17 UNK     1      31.755 -13.444  33.475  1.00  0.00     0.091 A 
HETATM   11  O10 UNK     1      32.440 -14.629  33.558  1.00  0.00    -0.321 OA
HETATM   12  C18 UNK     1      30.989 -13.094  32.364  1.00  0.00     0.049 A 
HETATM   13  C23 UNK     1      32.369 -15.484  32.486  1.00  0.00     0.159 A 
HETATM   14  C22 UNK     1      31.676 -15.295  31.351  1.00  0.00     0.048 A 
HETATM   15  C21 UNK     1      30.902 -14.030  31.228  1.00  0.00     0.197 A 
HETATM   16  O12 UNK     1      30.215 -13.774  30.247  1.00  0.00    -0.286 OA
HETATM   17  C19 UNK     1      30.310 -11.873  32.334  1.00  0.00     0.021 A 
HETATM   18  C12 UNK     1      30.405 -11.005  33.423  1.00  0.00     0.038 A 
BRANCH  14  19
HETATM   19  C24 UNK     1      31.707 -16.299  30.274  1.00  0.00    -0.020 A 
HETATM   20  C25 UNK     1      30.844 -17.394  30.316  1.00  0.00     0.015 A 
HETATM   21  C27 UNK     1      30.873 -18.344  29.296  1.00  0.00     0.037 A 
HETATM   22  C29 UNK     1      31.766 -18.199  28.234  1.00  0.00     0.068 A 
HETATM   23  C28 UNK     1      32.629 -17.104  28.192  1.00  0.00     0.037 A 
HETATM   24  C26 UNK     1      32.600 -16.154  29.213  1.00  0.00     0.015 A 
BRANCH  22  25
HETATM   25  O13 UNK     1      31.795 -19.126  27.238  1.00  0.00    -0.356 OA
HETATM   26  C30 UNK     1      32.569 -20.304  27.469  1.00  0.00     0.210 C 
ENDBRANCH  22  25
ENDBRANCH  14  19
ENDBRANCH   7   8
ENDBRANCH   6   7
BRANCH   4  27
HETATM   27  O4  UNK     1      32.423  -8.220  36.658  1.00  0.00    -0.308 OA
BRANCH  27  28
HETATM   28  C10 UNK     1      33.690  -7.727  36.542  1.00  0.00     0.255 C 
HETATM   29  O9  UNK     1      34.351  -7.211  37.433  1.00  0.00    -0.266 OA
HETATM   30  C16 UNK     1      34.176  -7.911  35.137  1.00  0.00     0.126 C 
ENDBRANCH  27  28
ENDBRANCH   4  27
BRANCH   2  31
HETATM   31  O2  UNK     1      30.408  -6.557  34.131  1.00  0.00    -0.311 OA
BRANCH  31  32
HETATM   32  C8  UNK     1      30.908  -5.487  33.445  1.00  0.00     0.255 C 
HETATM   33  C13 UNK     1      32.018  -4.857  34.231  1.00  0.00     0.126 C 
HETATM   34  O7  UNK     1      30.526  -5.084  32.355  1.00  0.00    -0.266 OA
ENDBRANCH  31  32
ENDBRANCH   2  31
BRANCH   5  35
HETATM   35  C6  UNK     1      27.835  -7.886  37.522  1.00  0.00     0.213 C 
BRANCH  35  36
HETATM   36  O6  UNK     1      27.072  -6.696  37.429  1.00  0.00    -0.319 OA
BRANCH  36  37
HETATM   37  C15 UNK     1      26.875  -6.016  38.601  1.00  0.00     0.254 C 
HETATM   38  O11 UNK     1      26.153  -5.040  38.751  1.00  0.00    -0.266 OA
HETATM   39  C20 UNK     1      27.680  -6.641  39.701  1.00  0.00     0.126 C 
ENDBRANCH  36  37
ENDBRANCH  35  36
ENDBRANCH   5  35
BRANCH   3  40
HETATM   40  O3  UNK     1      30.387  -6.505  37.763  1.00  0.00    -0.311 OA
BRANCH  40  41
HETATM   41  C9  UNK     1      30.933  -5.284  38.038  1.00  0.00     0.255 C 
HETATM   42  C14 UNK     1      29.895  -4.216  37.870  1.00  0.00     0.126 C 
HETATM   43  O8  UNK     1      32.091  -5.069  38.370  1.00  0.00    -0.266 OA
ENDBRANCH  40  41
ENDBRANCH   3  40
TORSDOF 13
ENDMDL
