MODEL 1
REMARK VINA RESULT:      -8.5      0.000      0.000
REMARK  5 active torsions:
REMARK  status: ('A' for Active; 'I' for Inactive)
REMARK    1  A    between atoms: C7_13  and  O2_2 
REMARK    2  A    between atoms: C13_19  and  O3_3 
REMARK    3  A    between atoms: C11_17  and  O5_5 
REMARK    4  A    between atoms: C15_21  and  O6_6 
REMARK    5  A    between atoms: C2_8  and  C4_10 
ROOT
HETATM    1  O1  UNK     1      18.727  -0.403  33.884  1.00  0.00    -0.309 OA
HETATM    2  O4  UNK     1      20.392  -3.431  36.043  1.00  0.00    -0.287 OA
HETATM    3  C1  UNK     1      19.027  -1.501  36.030  1.00  0.00     0.081 A 
HETATM    4  C2  UNK     1      19.546  -1.354  33.293  1.00  0.00     0.090 A 
HETATM    5  C3  UNK     1      18.489  -0.493  35.232  1.00  0.00     0.095 A 
HETATM    6  C5  UNK     1      19.889  -2.517  35.405  1.00  0.00     0.190 A 
HETATM    7  C6  UNK     1      20.117  -2.375  33.953  1.00  0.00     0.094 A 
HETATM    8  C7  UNK     1      18.749  -1.545  37.398  1.00  0.00     0.085 A 
HETATM    9  C8  UNK     1      17.667   0.481  35.799  1.00  0.00     0.075 A 
HETATM   10  C11 UNK     1      17.387   0.441  37.166  1.00  0.00     0.071 A 
HETATM   11  C12 UNK     1      17.928  -0.568  37.963  1.00  0.00     0.074 A 
ENDROOT
BRANCH   4  12
HETATM   12  C4  UNK     1      19.731  -1.166  31.840  1.00  0.00     0.001 A 
HETATM   13  C10 UNK     1      20.219  -2.214  31.055  1.00  0.00     0.017 A 
HETATM   14  C14 UNK     1      20.394  -2.037  29.681  1.00  0.00     0.040 A 
HETATM   15  C15 UNK     1      20.080  -0.813  29.091  1.00  0.00     0.099 A 
HETATM   16  C13 UNK     1      19.593   0.235  29.872  1.00  0.00     0.102 A 
HETATM   17  C9  UNK     1      19.418   0.058  31.245  1.00  0.00     0.054 A 
BRANCH  15  18
HETATM   18  O6  UNK     1      20.256  -0.653  27.749  1.00  0.00    -0.358 OA
HETATM   19  H9  UNK     1      19.410  -0.815  27.298  1.00  0.00     0.217 HD
ENDBRANCH  15  18
BRANCH  16  20
HETATM   20  O3  UNK     1      19.283   1.435  29.307  1.00  0.00    -0.353 OA
HETATM   21  C16 UNK     1      17.927   1.634  28.914  1.00  0.00     0.210 C 
ENDBRANCH  16  20
ENDBRANCH   4  12
BRANCH   8  22
HETATM   22  O2  UNK     1      19.251  -2.508  38.219  1.00  0.00    -0.360 OA
HETATM   23  H7  UNK     1      19.183  -2.235  39.146  1.00  0.00     0.217 HD
ENDBRANCH   8  22
BRANCH  10  24
HETATM   24  O5  UNK     1      16.586   1.392  37.722  1.00  0.00    -0.361 OA
HETATM   25  H8  UNK     1      15.662   1.089  37.678  1.00  0.00     0.217 HD
ENDBRANCH  10  24
TORSDOF 5
ENDMDL
MODEL 2
REMARK VINA RESULT:      -8.5     13.600     17.222
REMARK  5 active torsions:
REMARK  status: ('A' for Active; 'I' for Inactive)
REMARK    1  A    between atoms: C7_13  and  O2_2 
REMARK    2  A    between atoms: C13_19  and  O3_3 
REMARK    3  A    between atoms: C11_17  and  O5_5 
REMARK    4  A    between atoms: C15_21  and  O6_6 
REMARK    5  A    between atoms: C2_8  and  C4_10 
ROOT
HETATM    1  O1  UNK     1      19.145  -1.050  17.740  1.00  0.00    -0.309 OA
HETATM    2  O4  UNK     1      19.163   2.212  15.298  1.00  0.00    -0.287 OA
HETATM    3  C1  UNK     1      19.114   1.368  17.505  1.00  0.00     0.081 A 
HETATM    4  C2  UNK     1      19.174  -1.174  16.359  1.00  0.00     0.090 A 
HETATM    5  C3  UNK     1      19.112   0.210  18.282  1.00  0.00     0.095 A 
HETATM    6  C5  UNK     1      19.155   1.240  16.041  1.00  0.00     0.190 A 
HETATM    7  C6  UNK     1      19.187  -0.137  15.506  1.00  0.00     0.094 A 
HETATM    8  C7  UNK     1      19.081   2.625  18.111  1.00  0.00     0.085 A 
HETATM    9  C8  UNK     1      19.076   0.304  19.673  1.00  0.00     0.075 A 
HETATM   10  C11 UNK     1      19.042   1.559  20.282  1.00  0.00     0.071 A 
HETATM   11  C12 UNK     1      19.045   2.716  19.503  1.00  0.00     0.074 A 
ENDROOT
BRANCH   4  12
HETATM   12  C4  UNK     1      19.214  -2.573  15.884  1.00  0.00     0.001 A 
HETATM   13  C10 UNK     1      18.045  -3.192  15.432  1.00  0.00     0.017 A 
HETATM   14  C14 UNK     1      18.082  -4.513  14.983  1.00  0.00     0.040 A 
HETATM   15  C15 UNK     1      19.286  -5.217  14.986  1.00  0.00     0.099 A 
HETATM   16  C13 UNK     1      20.453  -4.602  15.437  1.00  0.00     0.102 A 
HETATM   17  C9  UNK     1      20.417  -3.281  15.886  1.00  0.00     0.054 A 
BRANCH  15  18
HETATM   18  O6  UNK     1      19.308  -6.506  14.546  1.00  0.00    -0.358 OA
HETATM   19  H9  UNK     1      18.700  -7.036  15.088  1.00  0.00     0.217 HD
ENDBRANCH  15  18
BRANCH  16  20
HETATM   20  O3  UNK     1      21.635  -5.279  15.444  1.00  0.00    -0.353 OA
HETATM   21  C16 UNK     1      22.611  -4.868  16.399  1.00  0.00     0.210 C 
ENDBRANCH  16  20
ENDBRANCH   4  12
BRANCH   8  22
HETATM   22  O2  UNK     1      19.082   3.785  17.397  1.00  0.00    -0.360 OA
HETATM   23  H7  UNK     1      18.264   3.868  16.884  1.00  0.00     0.217 HD
ENDBRANCH   8  22
BRANCH  10  24
HETATM   24  O5  UNK     1      19.007   1.653  21.641  1.00  0.00    -0.361 OA
HETATM   25  H8  UNK     1      18.942   0.758  22.017  1.00  0.00     0.217 HD
ENDBRANCH  10  24
TORSDOF 5
ENDMDL
MODEL 3
REMARK VINA RESULT:      -8.4     13.178     17.612
REMARK  5 active torsions:
REMARK  status: ('A' for Active; 'I' for Inactive)
REMARK    1  A    between atoms: C7_13  and  O2_2 
REMARK    2  A    between atoms: C13_19  and  O3_3 
REMARK    3  A    between atoms: C11_17  and  O5_5 
REMARK    4  A    between atoms: C15_21  and  O6_6 
REMARK    5  A    between atoms: C2_8  and  C4_10 
ROOT
HETATM    1  O1  UNK     1      19.182  -0.741  17.331  1.00  0.00    -0.309 OA
HETATM    2  O4  UNK     1      19.375   3.161  16.173  1.00  0.00    -0.287 OA
HETATM    3  C1  UNK     1      19.384   1.600  17.948  1.00  0.00     0.081 A 
HETATM    4  C2  UNK     1      19.109  -0.373  15.995  1.00  0.00     0.090 A 
HETATM    5  C3  UNK     1      19.313   0.247  18.274  1.00  0.00     0.095 A 
HETATM    6  C5  UNK     1      19.316   1.993  16.532  1.00  0.00     0.190 A 
HETATM    7  C6  UNK     1      19.172   0.894  15.555  1.00  0.00     0.094 A 
HETATM    8  C7  UNK     1      19.519   2.562  18.950  1.00  0.00     0.085 A 
HETATM    9  C8  UNK     1      19.377  -0.153  19.609  1.00  0.00     0.075 A 
HETATM   10  C11 UNK     1      19.512   0.806  20.614  1.00  0.00     0.071 A 
HETATM   11  C12 UNK     1      19.582   2.160  20.285  1.00  0.00     0.074 A 
ENDROOT
BRANCH   4  12
HETATM   12  C4  UNK     1      18.974  -1.514  15.066  1.00  0.00     0.001 A 
HETATM   13  C10 UNK     1      18.705  -2.792  15.562  1.00  0.00     0.017 A 
HETATM   14  C14 UNK     1      18.577  -3.870  14.685  1.00  0.00     0.040 A 
HETATM   15  C15 UNK     1      18.719  -3.672  13.311  1.00  0.00     0.099 A 
HETATM   16  C13 UNK     1      18.989  -2.397  12.814  1.00  0.00     0.102 A 
HETATM   17  C9  UNK     1      19.116  -1.320  13.690  1.00  0.00     0.054 A 
BRANCH  15  18
HETATM   18  O6  UNK     1      18.593  -4.733  12.466  1.00  0.00    -0.358 OA
HETATM   19  H9  UNK     1      18.912  -4.475  11.584  1.00  0.00     0.217 HD
ENDBRANCH  15  18
BRANCH  16  20
HETATM   20  O3  UNK     1      19.130  -2.191  11.475  1.00  0.00    -0.353 OA
HETATM   21  C16 UNK     1      20.461  -2.119  10.967  1.00  0.00     0.210 C 
ENDBRANCH  16  20
ENDBRANCH   4  12
BRANCH   8  22
HETATM   22  O2  UNK     1      19.592   3.896  18.683  1.00  0.00    -0.360 OA
HETATM   23  H7  UNK     1      19.050   4.117  17.910  1.00  0.00     0.217 HD
ENDBRANCH   8  22
BRANCH  10  24
HETATM   24  O5  UNK     1      19.574   0.418  21.918  1.00  0.00    -0.361 OA
HETATM   25  H8  UNK     1      19.325   1.170  22.482  1.00  0.00     0.217 HD
ENDBRANCH  10  24
TORSDOF 5
ENDMDL
MODEL 4
REMARK VINA RESULT:      -8.2      5.399      7.106
REMARK  5 active torsions:
REMARK  status: ('A' for Active; 'I' for Inactive)
REMARK    1  A    between atoms: C7_13  and  O2_2 
REMARK    2  A    between atoms: C13_19  and  O3_3 
REMARK    3  A    between atoms: C11_17  and  O5_5 
REMARK    4  A    between atoms: C15_21  and  O6_6 
REMARK    5  A    between atoms: C2_8  and  C4_10 
ROOT
HETATM    1  O1  UNK     1      18.306   3.799  34.319  1.00  0.00    -0.309 OA
HETATM    2  O4  UNK     1      18.292   1.763  30.790  1.00  0.00    -0.287 OA
HETATM    3  C1  UNK     1      18.322   1.669  33.151  1.00  0.00     0.081 A 
HETATM    4  C2  UNK     1      18.293   4.458  33.098  1.00  0.00     0.090 A 
HETATM    5  C3  UNK     1      18.324   2.427  34.321  1.00  0.00     0.095 A 
HETATM    6  C5  UNK     1      18.299   2.364  31.855  1.00  0.00     0.190 A 
HETATM    7  C6  UNK     1      18.282   3.840  31.906  1.00  0.00     0.094 A 
HETATM    8  C7  UNK     1      18.339   0.274  33.212  1.00  0.00     0.085 A 
HETATM    9  C8  UNK     1      18.343   1.793  35.562  1.00  0.00     0.075 A 
HETATM   10  C11 UNK     1      18.361   0.399  35.628  1.00  0.00     0.071 A 
HETATM   11  C12 UNK     1      18.360  -0.358  34.456  1.00  0.00     0.074 A 
ENDROOT
BRANCH   4  12
HETATM   12  C4  UNK     1      18.269   5.930  33.212  1.00  0.00     0.001 A 
HETATM   13  C10 UNK     1      19.219   6.587  33.999  1.00  0.00     0.017 A 
HETATM   14  C14 UNK     1      19.197   7.978  34.107  1.00  0.00     0.040 A 
HETATM   15  C15 UNK     1      18.225   8.715  33.430  1.00  0.00     0.099 A 
HETATM   16  C13 UNK     1      17.275   8.062  32.645  1.00  0.00     0.102 A 
HETATM   17  C9  UNK     1      17.297   6.671  32.536  1.00  0.00     0.054 A 
BRANCH  15  18
HETATM   18  O6  UNK     1      18.214  10.072  33.544  1.00  0.00    -0.358 OA
HETATM   19  H9  UNK     1      18.901  10.445  32.966  1.00  0.00     0.217 HD
ENDBRANCH  15  18
BRANCH  16  20
HETATM   20  O3  UNK     1      16.321   8.770  31.978  1.00  0.00    -0.353 OA
HETATM   21  C16 UNK     1      15.048   8.896  32.609  1.00  0.00     0.210 C 
ENDBRANCH  16  20
ENDBRANCH   4  12
BRANCH   8  22
HETATM   22  O2  UNK     1      18.338  -0.510  32.099  1.00  0.00    -0.360 OA
HETATM   23  H7  UNK     1      18.096   0.010  31.318  1.00  0.00     0.217 HD
ENDBRANCH   8  22
BRANCH  10  24
HETATM   24  O5  UNK     1      18.381  -0.223  36.840  1.00  0.00    -0.361 OA
HETATM   25  H8  UNK     1      19.203   0.015  37.303  1.00  0.00     0.217 HD
ENDBRANCH  10  24
TORSDOF 5
ENDMDL
MODEL 5
REMARK VINA RESULT:      -8.1      6.222      7.982
REMARK  5 active torsions:
REMARK  status: ('A' for Active; 'I' for Inactive)
REMARK    1  A    between atoms: C7_13  and  O2_2 
REMARK    2  A    between atoms: C13_19  and  O3_3 
REMARK    3  A    between atoms: C11_17  and  O5_5 
REMARK    4  A    between atoms: C15_21  and  O6_6 
REMARK    5  A    between atoms: C2_8  and  C4_10 
ROOT
HETATM    1  O1  UNK     1      16.719   5.617  32.463  1.00  0.00    -0.309 OA
HETATM    2  O4  UNK     1      19.645   8.188  33.661  1.00  0.00    -0.287 OA
HETATM    3  C1  UNK     1      17.364   7.861  33.137  1.00  0.00     0.081 A 
HETATM    4  C2  UNK     1      18.036   5.206  32.608  1.00  0.00     0.090 A 
HETATM    5  C3  UNK     1      16.412   6.929  32.725  1.00  0.00     0.095 A 
HETATM    6  C5  UNK     1      18.759   7.425  33.300  1.00  0.00     0.190 A 
HETATM    7  C6  UNK     1      19.039   6.006  33.004  1.00  0.00     0.094 A 
HETATM    8  C7  UNK     1      16.994   9.183  33.391  1.00  0.00     0.085 A 
HETATM    9  C8  UNK     1      15.082   7.315  32.565  1.00  0.00     0.075 A 
HETATM   10  C11 UNK     1      14.709   8.636  32.817  1.00  0.00     0.071 A 
HETATM   11  C12 UNK     1      15.662   9.567  33.229  1.00  0.00     0.074 A 
ENDROOT
BRANCH   4  12
HETATM   12  C4  UNK     1      18.253   3.776  32.306  1.00  0.00     0.001 A 
HETATM   13  C10 UNK     1      18.189   2.827  33.330  1.00  0.00     0.017 A 
HETATM   14  C14 UNK     1      18.393   1.476  33.046  1.00  0.00     0.040 A 
HETATM   15  C15 UNK     1      18.663   1.072  31.739  1.00  0.00     0.099 A 
HETATM   16  C13 UNK     1      18.728   2.017  30.715  1.00  0.00     0.102 A 
HETATM   17  C9  UNK     1      18.523   3.367  30.999  1.00  0.00     0.054 A 
BRANCH  15  18
HETATM   18  O6  UNK     1      18.861  -0.250  31.474  1.00  0.00    -0.358 OA
HETATM   19  H9  UNK     1      19.763  -0.373  31.133  1.00  0.00     0.217 HD
ENDBRANCH  15  18
BRANCH  16  20
HETATM   20  O3  UNK     1      18.990   1.634  29.434  1.00  0.00    -0.353 OA
HETATM   21  C16 UNK     1      17.912   1.708  28.503  1.00  0.00     0.210 C 
ENDBRANCH  16  20
ENDBRANCH   4  12
BRANCH   8  22
HETATM   22  O2  UNK     1      17.886  10.130  33.794  1.00  0.00    -0.360 OA
HETATM   23  H7  UNK     1      18.461  10.391  33.059  1.00  0.00     0.217 HD
ENDBRANCH   8  22
BRANCH  10  24
HETATM   24  O5  UNK     1      13.410   9.016  32.661  1.00  0.00    -0.361 OA
HETATM   25  H8  UNK     1      13.386   9.950  32.389  1.00  0.00     0.217 HD
ENDBRANCH  10  24
TORSDOF 5
ENDMDL
MODEL 6
REMARK VINA RESULT:      -8.1      4.604      7.415
REMARK  5 active torsions:
REMARK  status: ('A' for Active; 'I' for Inactive)
REMARK    1  A    between atoms: C7_13  and  O2_2 
REMARK    2  A    between atoms: C13_19  and  O3_3 
REMARK    3  A    between atoms: C11_17  and  O5_5 
REMARK    4  A    between atoms: C15_21  and  O6_6 
REMARK    5  A    between atoms: C2_8  and  C4_10 
ROOT
HETATM    1  O1  UNK     1      20.536  -6.098  35.747  1.00  0.00    -0.309 OA
HETATM    2  O4  UNK     1      20.741  -7.278  39.642  1.00  0.00    -0.287 OA
HETATM    3  C1  UNK     1      20.957  -7.863  37.363  1.00  0.00     0.081 A 
HETATM    4  C2  UNK     1      20.267  -5.222  36.789  1.00  0.00     0.090 A 
HETATM    5  C3  UNK     1      20.870  -7.393  36.053  1.00  0.00     0.095 A 
HETATM    6  C5  UNK     1      20.680  -6.935  38.470  1.00  0.00     0.190 A 
HETATM    7  C6  UNK     1      20.324  -5.553  38.089  1.00  0.00     0.094 A 
HETATM    8  C7  UNK     1      21.302  -9.192  37.615  1.00  0.00     0.085 A 
HETATM    9  C8  UNK     1      21.128  -8.252  34.985  1.00  0.00     0.075 A 
HETATM   10  C11 UNK     1      21.473  -9.582  35.233  1.00  0.00     0.071 A 
HETATM   11  C12 UNK     1      21.559 -10.050  36.544  1.00  0.00     0.074 A 
ENDROOT
BRANCH   4  12
HETATM   12  C4  UNK     1      19.925  -3.854  36.348  1.00  0.00     0.001 A 
HETATM   13  C10 UNK     1      19.329  -2.959  37.241  1.00  0.00     0.017 A 
HETATM   14  C14 UNK     1      19.006  -1.667  36.826  1.00  0.00     0.040 A 
HETATM   15  C15 UNK     1      19.277  -1.267  35.517  1.00  0.00     0.099 A 
HETATM   16  C13 UNK     1      19.870  -2.159  34.624  1.00  0.00     0.102 A 
HETATM   17  C9  UNK     1      20.194  -3.450  35.039  1.00  0.00     0.054 A 
BRANCH  15  18
HETATM   18  O6  UNK     1      18.956  -0.003  35.124  1.00  0.00    -0.358 OA
HETATM   19  H9  UNK     1      18.041   0.003  34.794  1.00  0.00     0.217 HD
ENDBRANCH  15  18
BRANCH  16  20
HETATM   20  O3  UNK     1      20.140  -1.780  33.343  1.00  0.00    -0.353 OA
HETATM   21  C16 UNK     1      20.976  -2.643  32.575  1.00  0.00     0.210 C 
ENDBRANCH  16  20
ENDBRANCH   4  12
BRANCH   8  22
HETATM   22  O2  UNK     1      21.400  -9.699  38.875  1.00  0.00    -0.360 OA
HETATM   23  H7  UNK     1      21.179 -10.643  38.880  1.00  0.00     0.217 HD
ENDBRANCH   8  22
BRANCH  10  24
HETATM   24  O5  UNK     1      21.726 -10.423  34.192  1.00  0.00    -0.361 OA
HETATM   25  H8  UNK     1      20.884 -10.789  33.872  1.00  0.00     0.217 HD
ENDBRANCH  10  24
TORSDOF 5
ENDMDL
MODEL 7
REMARK VINA RESULT:      -8.1     13.723     19.201
REMARK  5 active torsions:
REMARK  status: ('A' for Active; 'I' for Inactive)
REMARK    1  A    between atoms: C7_13  and  O2_2 
REMARK    2  A    between atoms: C13_19  and  O3_3 
REMARK    3  A    between atoms: C11_17  and  O5_5 
REMARK    4  A    between atoms: C15_21  and  O6_6 
REMARK    5  A    between atoms: C2_8  and  C4_10 
ROOT
HETATM    1  O1  UNK     1      19.414  -0.381  14.428  1.00  0.00    -0.309 OA
HETATM    2  O4  UNK     1      17.911  -3.933  15.742  1.00  0.00    -0.287 OA
HETATM    3  C1  UNK     1      18.814  -2.686  13.949  1.00  0.00     0.081 A 
HETATM    4  C2  UNK     1      18.981  -0.550  15.735  1.00  0.00     0.090 A 
HETATM    5  C3  UNK     1      19.319  -1.445  13.566  1.00  0.00     0.095 A 
HETATM    6  C5  UNK     1      18.362  -2.871  15.337  1.00  0.00     0.190 A 
HETATM    7  C6  UNK     1      18.482  -1.697  16.224  1.00  0.00     0.094 A 
HETATM    8  C7  UNK     1      18.742  -3.734  13.029  1.00  0.00     0.085 A 
HETATM    9  C8  UNK     1      19.756  -1.243  12.257  1.00  0.00     0.075 A 
HETATM   10  C11 UNK     1      19.685  -2.288  11.334  1.00  0.00     0.071 A 
HETATM   11  C12 UNK     1      19.179  -3.530  11.720  1.00  0.00     0.074 A 
ENDROOT
BRANCH   4  12
HETATM   12  C4  UNK     1      19.133   0.654  16.577  1.00  0.00     0.001 A 
HETATM   13  C10 UNK     1      19.398   1.893  15.985  1.00  0.00     0.017 A 
HETATM   14  C14 UNK     1      19.542   3.031  16.780  1.00  0.00     0.040 A 
HETATM   15  C15 UNK     1      19.422   2.934  18.166  1.00  0.00     0.099 A 
HETATM   16  C13 UNK     1      19.159   1.699  18.758  1.00  0.00     0.102 A 
HETATM   17  C9  UNK     1      19.014   0.561  17.965  1.00  0.00     0.054 A 
BRANCH  15  18
HETATM   18  O6  UNK     1      19.566   4.052  18.930  1.00  0.00    -0.358 OA
HETATM   19  H9  UNK     1      18.695   4.466  19.053  1.00  0.00     0.217 HD
ENDBRANCH  15  18
BRANCH  16  20
HETATM   20  O3  UNK     1      19.039   1.591  20.111  1.00  0.00    -0.353 OA
HETATM   21  C16 UNK     1      19.417   0.348  20.698  1.00  0.00     0.210 C 
ENDBRANCH  16  20
ENDBRANCH   4  12
BRANCH   8  22
HETATM   22  O2  UNK     1      18.256  -4.964  13.354  1.00  0.00    -0.360 OA
HETATM   23  H7  UNK     1      18.749  -5.658  12.890  1.00  0.00     0.217 HD
ENDBRANCH   8  22
BRANCH  10  24
HETATM   24  O5  UNK     1      20.111  -2.094  10.055  1.00  0.00    -0.361 OA
HETATM   25  H8  UNK     1      21.005  -2.467   9.961  1.00  0.00     0.217 HD
ENDBRANCH  10  24
TORSDOF 5
ENDMDL
MODEL 8
REMARK VINA RESULT:      -8.1      3.939      7.640
REMARK  5 active torsions:
REMARK  status: ('A' for Active; 'I' for Inactive)
REMARK    1  A    between atoms: C7_13  and  O2_2 
REMARK    2  A    between atoms: C13_19  and  O3_3 
REMARK    3  A    between atoms: C11_17  and  O5_5 
REMARK    4  A    between atoms: C15_21  and  O6_6 
REMARK    5  A    between atoms: C2_8  and  C4_10 
ROOT
HETATM    1  O1  UNK     1      19.092   1.854  31.630  1.00  0.00    -0.309 OA
HETATM    2  O4  UNK     1      17.978   1.994  27.713  1.00  0.00    -0.287 OA
HETATM    3  C1  UNK     1      18.986   0.764  29.461  1.00  0.00     0.081 A 
HETATM    4  C2  UNK     1      18.470   2.970  31.089  1.00  0.00     0.090 A 
HETATM    5  C3  UNK     1      19.339   0.782  30.810  1.00  0.00     0.095 A 
HETATM    6  C5  UNK     1      18.318   1.942  28.887  1.00  0.00     0.190 A 
HETATM    7  C6  UNK     1      18.076   3.070  29.809  1.00  0.00     0.094 A 
HETATM    8  C7  UNK     1      19.262  -0.355  28.674  1.00  0.00     0.085 A 
HETATM    9  C8  UNK     1      19.972  -0.322  31.380  1.00  0.00     0.075 A 
HETATM   10  C11 UNK     1      20.250  -1.443  30.596  1.00  0.00     0.071 A 
HETATM   11  C12 UNK     1      19.896  -1.459  29.247  1.00  0.00     0.074 A 
ENDROOT
BRANCH   4  12
HETATM   12  C4  UNK     1      18.247   4.061  32.059  1.00  0.00     0.001 A 
HETATM   13  C10 UNK     1      18.326   3.805  33.431  1.00  0.00     0.017 A 
HETATM   14  C14 UNK     1      18.116   4.835  34.349  1.00  0.00     0.040 A 
HETATM   15  C15 UNK     1      17.826   6.123  33.897  1.00  0.00     0.099 A 
HETATM   16  C13 UNK     1      17.746   6.381  32.529  1.00  0.00     0.102 A 
HETATM   17  C9  UNK     1      17.956   5.351  31.611  1.00  0.00     0.054 A 
BRANCH  15  18
HETATM   18  O6  UNK     1      17.622   7.120  34.803  1.00  0.00    -0.358 OA
HETATM   19  H9  UNK     1      17.839   6.789  35.691  1.00  0.00     0.217 HD
ENDBRANCH  15  18
BRANCH  16  20
HETATM   20  O3  UNK     1      17.464   7.634  32.075  1.00  0.00    -0.353 OA
HETATM   21  C16 UNK     1      16.132   7.877  31.627  1.00  0.00     0.210 C 
ENDBRANCH  16  20
ENDBRANCH   4  12
BRANCH   8  22
HETATM   22  O2  UNK     1      18.938  -0.421  27.353  1.00  0.00    -0.360 OA
HETATM   23  H7  UNK     1      18.584  -1.297  27.133  1.00  0.00     0.217 HD
ENDBRANCH   8  22
BRANCH  10  24
HETATM   24  O5  UNK     1      20.868  -2.522  31.150  1.00  0.00    -0.361 OA
HETATM   25  H8  UNK     1      20.362  -2.809  31.929  1.00  0.00     0.217 HD
ENDBRANCH  10  24
TORSDOF 5
ENDMDL
MODEL 9
REMARK VINA RESULT:      -8.1     25.778     27.908
REMARK  5 active torsions:
REMARK  status: ('A' for Active; 'I' for Inactive)
REMARK    1  A    between atoms: C7_13  and  O2_2 
REMARK    2  A    between atoms: C13_19  and  O3_3 
REMARK    3  A    between atoms: C11_17  and  O5_5 
REMARK    4  A    between atoms: C15_21  and  O6_6 
REMARK    5  A    between atoms: C2_8  and  C4_10 
ROOT
HETATM    1  O1  UNK     1       9.625   5.461   9.708  1.00  0.00    -0.309 OA
HETATM    2  O4  UNK     1       9.456   6.566   5.790  1.00  0.00    -0.287 OA
HETATM    3  C1  UNK     1      10.787   5.868   7.613  1.00  0.00     0.081 A 
HETATM    4  C2  UNK     1       8.428   5.815   9.102  1.00  0.00     0.090 A 
HETATM    5  C3  UNK     1      10.773   5.498   8.957  1.00  0.00     0.095 A 
HETATM    6  C5  UNK     1       9.518   6.235   6.965  1.00  0.00     0.190 A 
HETATM    7  C6  UNK     1       8.311   6.182   7.816  1.00  0.00     0.094 A 
HETATM    8  C7  UNK     1      11.985   5.886   6.898  1.00  0.00     0.085 A 
HETATM    9  C8  UNK     1      11.961   5.143   9.595  1.00  0.00     0.075 A 
HETATM   10  C11 UNK     1      13.162   5.161   8.884  1.00  0.00     0.071 A 
HETATM   11  C12 UNK     1      13.173   5.531   7.539  1.00  0.00     0.074 A 
ENDROOT
BRANCH   4  12
HETATM   12  C4  UNK     1       7.257   5.735   9.998  1.00  0.00     0.001 A 
HETATM   13  C10 UNK     1       6.926   6.818  10.817  1.00  0.00     0.017 A 
HETATM   14  C14 UNK     1       5.819   6.744  11.663  1.00  0.00     0.040 A 
HETATM   15  C15 UNK     1       5.041   5.586  11.693  1.00  0.00     0.099 A 
HETATM   16  C13 UNK     1       5.369   4.504  10.878  1.00  0.00     0.102 A 
HETATM   17  C9  UNK     1       6.475   4.578  10.031  1.00  0.00     0.054 A 
BRANCH  15  18
HETATM   18  O6  UNK     1       3.963   5.526  12.524  1.00  0.00    -0.358 OA
HETATM   19  H9  UNK     1       3.163   5.369  11.995  1.00  0.00     0.217 HD
ENDBRANCH  15  18
BRANCH  16  20
HETATM   20  O3  UNK     1       4.617   3.368  10.897  1.00  0.00    -0.353 OA
HETATM   21  C16 UNK     1       5.317   2.126  10.854  1.00  0.00     0.210 C 
ENDBRANCH  16  20
ENDBRANCH   4  12
BRANCH   8  22
HETATM   22  O2  UNK     1      12.051   6.240   5.584  1.00  0.00    -0.360 OA
HETATM   23  H7  UNK     1      12.972   6.372   5.313  1.00  0.00     0.217 HD
ENDBRANCH   8  22
BRANCH  10  24
HETATM   24  O5  UNK     1      14.324   4.815   9.504  1.00  0.00    -0.361 OA
HETATM   25  H8  UNK     1      14.343   3.850   9.622  1.00  0.00     0.217 HD
ENDBRANCH  10  24
TORSDOF 5
ENDMDL
MODEL 10
REMARK VINA RESULT:      -8.0      6.510      8.285
REMARK  5 active torsions:
REMARK  status: ('A' for Active; 'I' for Inactive)
REMARK    1  A    between atoms: C7_13  and  O2_2 
REMARK    2  A    between atoms: C13_19  and  O3_3 
REMARK    3  A    between atoms: C11_17  and  O5_5 
REMARK    4  A    between atoms: C15_21  and  O6_6 
REMARK    5  A    between atoms: C2_8  and  C4_10 
ROOT
HETATM    1  O1  UNK     1      19.058   6.126  33.129  1.00  0.00    -0.309 OA
HETATM    2  O4  UNK     1      15.525   8.060  32.515  1.00  0.00    -0.287 OA
HETATM    3  C1  UNK     1      17.764   8.178  33.262  1.00  0.00     0.081 A 
HETATM    4  C2  UNK     1      17.950   5.471  32.612  1.00  0.00     0.090 A 
HETATM    5  C3  UNK     1      18.943   7.456  33.445  1.00  0.00     0.095 A 
HETATM    6  C5  UNK     1      16.590   7.489  32.706  1.00  0.00     0.190 A 
HETATM    7  C6  UNK     1      16.764   6.058  32.384  1.00  0.00     0.094 A 
HETATM    8  C7  UNK     1      17.704   9.531  33.601  1.00  0.00     0.085 A 
HETATM    9  C8  UNK     1      20.071   8.086  33.970  1.00  0.00     0.075 A 
HETATM   10  C11 UNK     1      20.015   9.438  34.310  1.00  0.00     0.071 A 
HETATM   11  C12 UNK     1      18.835  10.158  34.126  1.00  0.00     0.074 A 
ENDROOT
BRANCH   4  12
HETATM   12  C4  UNK     1      18.186   4.047  32.302  1.00  0.00     0.001 A 
HETATM   13  C10 UNK     1      18.115   3.088  33.317  1.00  0.00     0.017 A 
HETATM   14  C14 UNK     1      18.338   1.742  33.025  1.00  0.00     0.040 A 
HETATM   15  C15 UNK     1      18.632   1.351  31.719  1.00  0.00     0.099 A 
HETATM   16  C13 UNK     1      18.705   2.306  30.704  1.00  0.00     0.102 A 
HETATM   17  C9  UNK     1      18.481   3.652  30.996  1.00  0.00     0.054 A 
BRANCH  15  18
HETATM   18  O6  UNK     1      18.849   0.034  31.447  1.00  0.00    -0.358 OA
HETATM   19  H9  UNK     1      19.032  -0.435  32.279  1.00  0.00     0.217 HD
ENDBRANCH  15  18
BRANCH  16  20
HETATM   20  O3  UNK     1      18.991   1.936  29.425  1.00  0.00    -0.353 OA
HETATM   21  C16 UNK     1      17.886   1.742  28.544  1.00  0.00     0.210 C 
ENDBRANCH  16  20
ENDBRANCH   4  12
BRANCH   8  22
HETATM   22  O2  UNK     1      16.577  10.278  33.441  1.00  0.00    -0.360 OA
HETATM   23  H7  UNK     1      15.786   9.732  33.565  1.00  0.00     0.217 HD
ENDBRANCH   8  22
BRANCH  10  24
HETATM   24  O5  UNK     1      21.116  10.055  34.823  1.00  0.00    -0.361 OA
HETATM   25  H8  UNK     1      21.524   9.471  35.485  1.00  0.00     0.217 HD
ENDBRANCH  10  24
TORSDOF 5
ENDMDL
