MODEL 1
REMARK VINA RESULT:      -8.0      0.000      0.000
REMARK  3 active torsions:
REMARK  status: ('A' for Active; 'I' for Inactive)
REMARK    1  A    between atoms: C5_10  and  N1_3 
REMARK    2  A    between atoms: C7_12  and  N2_4 
REMARK    3  A    between atoms: C5_10  and  C6_11 
ROOT
HETATM    1  N3  UNK     1      16.612  10.208  33.871  1.00  0.00    -0.195 NA
HETATM    2  C7  UNK     1      18.750   8.684  33.778  1.00  0.00     0.395 C 
HETATM    3  C14 UNK     1      17.556   9.533  33.829  1.00  0.00     0.089 C 
ENDROOT
BRANCH   2   4
HETATM    4  N2  UNK     1      18.559   7.538  32.891  1.00  0.00     0.104 N 
HETATM    5  C3  UNK     1      19.784   6.732  32.812  1.00  0.00     0.303 C 
HETATM    6  C1  UNK     1      19.585   5.528  31.885  1.00  0.00     0.303 C 
HETATM    7  N1  UNK     1      18.456   4.703  32.334  1.00  0.00     0.096 N 
HETATM    8  C2  UNK     1      17.232   5.510  32.411  1.00  0.00     0.303 C 
HETATM    9  C4  UNK     1      17.430   6.714  33.338  1.00  0.00     0.303 C 
BRANCH   7  10
HETATM   10  C5  UNK     1      18.267   3.556  31.449  1.00  0.00     0.312 C 
BRANCH  10  11
HETATM   11  C6  UNK     1      18.439   2.260  32.162  1.00  0.00    -0.011 A 
HETATM   12  C8  UNK     1      19.019   1.109  31.458  1.00  0.00     0.006 A 
HETATM   13  C10 UNK     1      19.167  -0.093  32.152  1.00  0.00     0.090 A 
HETATM   14  C11 UNK     1      19.437   1.143  30.121  1.00  0.00     0.015 A 
HETATM   15  O1  UNK     1      18.773  -0.210  33.500  1.00  0.00    -0.275 OA
HETATM   16  C13 UNK     1      19.709  -1.235  31.559  1.00  0.00     0.045 A 
HETATM   17  C12 UNK     1      18.222   0.860  34.189  1.00  0.00     0.288 A 
HETATM   18  O2  UNK     1      17.874   0.768  35.362  1.00  0.00    -0.260 OA
HETATM   19  C9  UNK     1      18.072   2.120  33.444  1.00  0.00     0.092 A 
HETATM   20  C15 UNK     1      20.118  -1.180  30.231  1.00  0.00    -0.059 A 
HETATM   21  C16 UNK     1      19.983   0.007  29.512  1.00  0.00     0.007 A 
HETATM   22  C17 UNK     1      20.700  -2.388  29.576  1.00  0.00     0.048 C 
ENDBRANCH  10  11
ENDBRANCH   7  10
ENDBRANCH   2   4
TORSDOF 3
ENDMDL
MODEL 2
REMARK VINA RESULT:      -7.9      3.372      8.628
REMARK  3 active torsions:
REMARK  status: ('A' for Active; 'I' for Inactive)
REMARK    1  A    between atoms: C5_10  and  N1_3 
REMARK    2  A    between atoms: C7_12  and  N2_4 
REMARK    3  A    between atoms: C5_10  and  C6_11 
ROOT
HETATM    1  N3  UNK     1      20.560  -0.268  29.780  1.00  0.00    -0.195 NA
HETATM    2  C7  UNK     1      18.801   1.626  29.314  1.00  0.00     0.395 C 
HETATM    3  C14 UNK     1      19.783   0.570  29.576  1.00  0.00     0.089 C 
ENDROOT
BRANCH   2   4
HETATM    4  N2  UNK     1      18.997   2.776  30.195  1.00  0.00     0.104 N 
HETATM    5  C3  UNK     1      18.774   4.033  29.469  1.00  0.00     0.303 C 
HETATM    6  C1  UNK     1      18.975   5.239  30.393  1.00  0.00     0.303 C 
HETATM    7  N1  UNK     1      18.090   5.156  31.562  1.00  0.00     0.096 N 
HETATM    8  C2  UNK     1      18.316   3.901  32.287  1.00  0.00     0.303 C 
HETATM    9  C4  UNK     1      18.113   2.694  31.364  1.00  0.00     0.303 C 
BRANCH   7  10
HETATM   10  C5  UNK     1      18.284   6.307  32.441  1.00  0.00     0.312 C 
BRANCH  10  11
HETATM   11  C6  UNK     1      17.047   7.124  32.582  1.00  0.00    -0.011 A 
HETATM   12  C8  UNK     1      17.125   8.478  33.143  1.00  0.00     0.006 A 
HETATM   13  C10 UNK     1      15.949   9.221  33.264  1.00  0.00     0.090 A 
HETATM   14  C11 UNK     1      18.318   9.079  33.569  1.00  0.00     0.015 A 
HETATM   15  O1  UNK     1      14.708   8.690  32.857  1.00  0.00    -0.275 OA
HETATM   16  C13 UNK     1      15.933  10.515  33.786  1.00  0.00     0.045 A 
HETATM   17  C12 UNK     1      14.605   7.415  32.324  1.00  0.00     0.288 A 
HETATM   18  O2  UNK     1      13.530   6.943  31.969  1.00  0.00    -0.260 OA
HETATM   19  C9  UNK     1      15.854   6.645  32.204  1.00  0.00     0.092 A 
HETATM   20  C15 UNK     1      17.128  11.092  34.203  1.00  0.00    -0.059 A 
HETATM   21  C16 UNK     1      18.319  10.376  34.094  1.00  0.00     0.007 A 
HETATM   22  C17 UNK     1      17.136  12.474  34.764  1.00  0.00     0.048 C 
ENDBRANCH  10  11
ENDBRANCH   7  10
ENDBRANCH   2   4
TORSDOF 3
ENDMDL
MODEL 3
REMARK VINA RESULT:      -7.7      6.916     10.435
REMARK  3 active torsions:
REMARK  status: ('A' for Active; 'I' for Inactive)
REMARK    1  A    between atoms: C5_10  and  N1_3 
REMARK    2  A    between atoms: C7_12  and  N2_4 
REMARK    3  A    between atoms: C5_10  and  C6_11 
ROOT
HETATM    1  N3  UNK     1      19.612 -10.528  37.010  1.00  0.00    -0.195 NA
HETATM    2  C7  UNK     1      19.152  -8.314  38.348  1.00  0.00     0.395 C 
HETATM    3  C14 UNK     1      19.410  -9.548  37.600  1.00  0.00     0.089 C 
ENDROOT
BRANCH   2   4
HETATM    4  N2  UNK     1      19.789  -7.159  37.720  1.00  0.00     0.104 N 
HETATM    5  C3  UNK     1      18.860  -6.484  36.804  1.00  0.00     0.303 C 
HETATM    6  C1  UNK     1      19.527  -5.271  36.147  1.00  0.00     0.303 C 
HETATM    7  N1  UNK     1      20.020  -4.332  37.162  1.00  0.00     0.096 N 
HETATM    8  C2  UNK     1      20.950  -5.007  38.075  1.00  0.00     0.303 C 
HETATM    9  C4  UNK     1      20.284  -6.220  38.733  1.00  0.00     0.303 C 
BRANCH   7  10
HETATM   10  C5  UNK     1      20.656  -3.176  36.534  1.00  0.00     0.312 C 
BRANCH  10  11
HETATM   11  C6  UNK     1      19.681  -2.334  35.786  1.00  0.00    -0.011 A 
HETATM   12  C8  UNK     1      19.836  -2.146  34.338  1.00  0.00     0.006 A 
HETATM   13  C10 UNK     1      18.908  -1.351  33.664  1.00  0.00     0.090 A 
HETATM   14  C11 UNK     1      20.868  -2.721  33.583  1.00  0.00     0.015 A 
HETATM   15  O1  UNK     1      17.840  -0.738  34.350  1.00  0.00    -0.275 OA
HETATM   16  C13 UNK     1      18.980  -1.120  32.289  1.00  0.00     0.045 A 
HETATM   17  C12 UNK     1      17.669  -0.898  35.716  1.00  0.00     0.288 A 
HETATM   18  O2  UNK     1      16.743  -0.368  36.322  1.00  0.00    -0.260 OA
HETATM   19  C9  UNK     1      18.656  -1.739  36.413  1.00  0.00     0.092 A 
HETATM   20  C15 UNK     1      20.013  -1.700  31.559  1.00  0.00    -0.059 A 
HETATM   21  C16 UNK     1      20.954  -2.500  32.204  1.00  0.00     0.007 A 
HETATM   22  C17 UNK     1      20.111  -1.468  30.089  1.00  0.00     0.048 C 
ENDBRANCH  10  11
ENDBRANCH   7  10
ENDBRANCH   2   4
TORSDOF 3
ENDMDL
MODEL 4
REMARK VINA RESULT:      -7.6      7.445     11.643
REMARK  3 active torsions:
REMARK  status: ('A' for Active; 'I' for Inactive)
REMARK    1  A    between atoms: C5_10  and  N1_3 
REMARK    2  A    between atoms: C7_12  and  N2_4 
REMARK    3  A    between atoms: C5_10  and  C6_11 
ROOT
HETATM    1  N3  UNK     1      21.611  -9.772  34.467  1.00  0.00    -0.195 NA
HETATM    2  C7  UNK     1      21.029  -9.765  37.028  1.00  0.00     0.395 C 
HETATM    3  C14 UNK     1      21.353  -9.767  35.599  1.00  0.00     0.089 C 
ENDROOT
BRANCH   2   4
HETATM    4  N2  UNK     1      20.665  -8.430  37.497  1.00  0.00     0.104 N 
HETATM    5  C3  UNK     1      21.805  -7.511  37.387  1.00  0.00     0.303 C 
HETATM    6  C1  UNK     1      21.425  -6.109  37.876  1.00  0.00     0.303 C 
HETATM    7  N1  UNK     1      20.273  -5.589  37.128  1.00  0.00     0.096 N 
HETATM    8  C2  UNK     1      19.134  -6.508  37.241  1.00  0.00     0.303 C 
HETATM    9  C4  UNK     1      19.513  -7.910  36.752  1.00  0.00     0.303 C 
BRANCH   7  10
HETATM   10  C5  UNK     1      19.911  -4.253  37.596  1.00  0.00     0.312 C 
BRANCH  10  11
HETATM   11  C6  UNK     1      19.820  -3.271  36.479  1.00  0.00    -0.011 A 
HETATM   12  C8  UNK     1      19.086  -2.014  36.669  1.00  0.00     0.006 A 
HETATM   13  C10 UNK     1      19.017  -1.113  35.605  1.00  0.00     0.090 A 
HETATM   14  C11 UNK     1      18.445  -1.658  37.864  1.00  0.00     0.015 A 
HETATM   15  O1  UNK     1      19.636  -1.395  34.371  1.00  0.00    -0.275 OA
HETATM   16  C13 UNK     1      18.340   0.104  35.700  1.00  0.00     0.045 A 
HETATM   17  C12 UNK     1      20.335  -2.573  34.163  1.00  0.00     0.288 A 
HETATM   18  O2  UNK     1      20.877  -2.829  33.093  1.00  0.00    -0.260 OA
HETATM   19  C9  UNK     1      20.399  -3.513  35.295  1.00  0.00     0.092 A 
HETATM   20  C15 UNK     1      17.709   0.438  36.894  1.00  0.00    -0.059 A 
HETATM   21  C16 UNK     1      17.762  -0.441  37.975  1.00  0.00     0.007 A 
HETATM   22  C17 UNK     1      16.980   1.733  37.019  1.00  0.00     0.048 C 
ENDBRANCH  10  11
ENDBRANCH   7  10
ENDBRANCH   2   4
TORSDOF 3
ENDMDL
MODEL 5
REMARK VINA RESULT:      -7.5      7.340      9.742
REMARK  3 active torsions:
REMARK  status: ('A' for Active; 'I' for Inactive)
REMARK    1  A    between atoms: C5_10  and  N1_3 
REMARK    2  A    between atoms: C7_12  and  N2_4 
REMARK    3  A    between atoms: C5_10  and  C6_11 
ROOT
HETATM    1  N3  UNK     1      15.279   0.466  35.831  1.00  0.00    -0.195 NA
HETATM    2  C7  UNK     1      17.687   0.295  34.793  1.00  0.00     0.395 C 
HETATM    3  C14 UNK     1      16.344   0.389  35.374  1.00  0.00     0.089 C 
ENDROOT
BRANCH   2   4
HETATM    4  N2  UNK     1      18.529  -0.642  35.532  1.00  0.00     0.104 N 
HETATM    5  C3  UNK     1      17.720  -1.471  36.435  1.00  0.00     0.303 C 
HETATM    6  C1  UNK     1      18.602  -2.457  37.208  1.00  0.00     0.303 C 
HETATM    7  N1  UNK     1      19.373  -3.302  36.288  1.00  0.00     0.096 N 
HETATM    8  C2  UNK     1      20.183  -2.473  35.388  1.00  0.00     0.303 C 
HETATM    9  C4  UNK     1      19.301  -1.487  34.614  1.00  0.00     0.303 C 
BRANCH   7  10
HETATM   10  C5  UNK     1      20.214  -4.241  37.027  1.00  0.00     0.312 C 
BRANCH  10  11
HETATM   11  C6  UNK     1      20.198  -5.604  36.427  1.00  0.00    -0.011 A 
HETATM   12  C8  UNK     1      20.058  -6.783  37.292  1.00  0.00     0.006 A 
HETATM   13  C10 UNK     1      20.048  -8.048  36.702  1.00  0.00     0.090 A 
HETATM   14  C11 UNK     1      19.933  -6.716  38.686  1.00  0.00     0.015 A 
HETATM   15  O1  UNK     1      20.168  -8.201  35.305  1.00  0.00    -0.275 OA
HETATM   16  C13 UNK     1      19.919  -9.219  37.449  1.00  0.00     0.045 A 
HETATM   17  C12 UNK     1      20.301  -7.107  34.465  1.00  0.00     0.288 A 
HETATM   18  O2  UNK     1      20.407  -7.229  33.249  1.00  0.00    -0.260 OA
HETATM   19  C9  UNK     1      20.311  -5.780  35.103  1.00  0.00     0.092 A 
HETATM   20  C15 UNK     1      19.796  -9.131  38.832  1.00  0.00    -0.059 A 
HETATM   21  C16 UNK     1      19.802  -7.882  39.450  1.00  0.00     0.007 A 
HETATM   22  C17 UNK     1      19.657 -10.369  39.651  1.00  0.00     0.048 C 
ENDBRANCH  10  11
ENDBRANCH   7  10
ENDBRANCH   2   4
TORSDOF 3
ENDMDL
MODEL 6
REMARK VINA RESULT:      -7.4      2.528      4.049
REMARK  3 active torsions:
REMARK  status: ('A' for Active; 'I' for Inactive)
REMARK    1  A    between atoms: C5_10  and  N1_3 
REMARK    2  A    between atoms: C7_12  and  N2_4 
REMARK    3  A    between atoms: C5_10  and  C6_11 
ROOT
HETATM    1  N3  UNK     1      14.140  11.004  35.351  1.00  0.00    -0.195 NA
HETATM    2  C7  UNK     1      14.176   9.246  33.399  1.00  0.00     0.395 C 
HETATM    3  C14 UNK     1      14.158  10.226  34.488  1.00  0.00     0.089 C 
ENDROOT
BRANCH   2   4
HETATM    4  N2  UNK     1      15.487   8.615  33.262  1.00  0.00     0.104 N 
HETATM    5  C3  UNK     1      15.666   7.561  34.268  1.00  0.00     0.303 C 
HETATM    6  C1  UNK     1      17.039   6.896  34.123  1.00  0.00     0.303 C 
HETATM    7  N1  UNK     1      17.217   6.352  32.771  1.00  0.00     0.096 N 
HETATM    8  C2  UNK     1      17.040   7.408  31.767  1.00  0.00     0.303 C 
HETATM    9  C4  UNK     1      15.666   8.072  31.911  1.00  0.00     0.303 C 
BRANCH   7  10
HETATM   10  C5  UNK     1      18.527   5.720  32.634  1.00  0.00     0.312 C 
BRANCH  10  11
HETATM   11  C6  UNK     1      18.426   4.312  32.159  1.00  0.00    -0.011 A 
HETATM   12  C8  UNK     1      18.400   3.212  33.131  1.00  0.00     0.006 A 
HETATM   13  C10 UNK     1      18.306   1.902  32.657  1.00  0.00     0.090 A 
HETATM   14  C11 UNK     1      18.464   3.396  34.520  1.00  0.00     0.015 A 
HETATM   15  O1  UNK     1      18.236   1.631  31.276  1.00  0.00    -0.275 OA
HETATM   16  C13 UNK     1      18.275   0.799  33.511  1.00  0.00     0.045 A 
HETATM   17  C12 UNK     1      18.259   2.650  30.336  1.00  0.00     0.288 A 
HETATM   18  O2  UNK     1      18.199   2.425  29.131  1.00  0.00    -0.260 OA
HETATM   19  C9  UNK     1      18.359   4.025  30.852  1.00  0.00     0.092 A 
HETATM   20  C15 UNK     1      18.340   1.004  34.886  1.00  0.00    -0.059 A 
HETATM   21  C16 UNK     1      18.434   2.301  35.389  1.00  0.00     0.007 A 
HETATM   22  C17 UNK     1      18.308  -0.160  35.819  1.00  0.00     0.048 C 
ENDBRANCH  10  11
ENDBRANCH   7  10
ENDBRANCH   2   4
TORSDOF 3
ENDMDL
MODEL 7
REMARK VINA RESULT:      -7.4     24.107     25.184
REMARK  3 active torsions:
REMARK  status: ('A' for Active; 'I' for Inactive)
REMARK    1  A    between atoms: C5_10  and  N1_3 
REMARK    2  A    between atoms: C7_12  and  N2_4 
REMARK    3  A    between atoms: C5_10  and  C6_11 
ROOT
HETATM    1  N3  UNK     1      17.171  14.445   6.130  1.00  0.00    -0.195 NA
HETATM    2  C7  UNK     1      18.278  12.481   7.479  1.00  0.00     0.395 C 
HETATM    3  C14 UNK     1      17.658  13.576   6.727  1.00  0.00     0.089 C 
ENDROOT
BRANCH   2   4
HETATM    4  N2  UNK     1      17.309  11.797   8.333  1.00  0.00     0.104 N 
HETATM    5  C3  UNK     1      16.146  11.356   7.552  1.00  0.00     0.303 C 
HETATM    6  C1  UNK     1      15.130  10.636   8.445  1.00  0.00     0.303 C 
HETATM    7  N1  UNK     1      15.752   9.495   9.129  1.00  0.00     0.096 N 
HETATM    8  C2  UNK     1      16.912   9.938   9.911  1.00  0.00     0.303 C 
HETATM    9  C4  UNK     1      17.929  10.657   9.018  1.00  0.00     0.303 C 
BRANCH   7  10
HETATM   10  C5  UNK     1      14.782   8.810   9.981  1.00  0.00     0.312 C 
BRANCH  10  11
HETATM   11  C6  UNK     1      14.519   7.416   9.527  1.00  0.00    -0.011 A 
HETATM   12  C8  UNK     1      13.334   7.125   8.710  1.00  0.00     0.006 A 
HETATM   13  C10 UNK     1      13.112   5.810   8.299  1.00  0.00     0.090 A 
HETATM   14  C11 UNK     1      12.402   8.095   8.313  1.00  0.00     0.015 A 
HETATM   15  O1  UNK     1      14.001   4.776   8.655  1.00  0.00    -0.275 OA
HETATM   16  C13 UNK     1      12.011   5.446   7.522  1.00  0.00     0.045 A 
HETATM   17  C12 UNK     1      15.128   5.022   9.424  1.00  0.00     0.288 A 
HETATM   18  O2  UNK     1      15.908   4.129   9.740  1.00  0.00    -0.260 OA
HETATM   19  C9  UNK     1      15.347   6.414   9.850  1.00  0.00     0.092 A 
HETATM   20  C15 UNK     1      11.099   6.423   7.139  1.00  0.00    -0.059 A 
HETATM   21  C16 UNK     1      11.294   7.746   7.534  1.00  0.00     0.007 A 
HETATM   22  C17 UNK     1       9.915   6.058   6.308  1.00  0.00     0.048 C 
ENDBRANCH  10  11
ENDBRANCH   7  10
ENDBRANCH   2   4
TORSDOF 3
ENDMDL
MODEL 8
REMARK VINA RESULT:      -7.4     15.548     17.521
REMARK  3 active torsions:
REMARK  status: ('A' for Active; 'I' for Inactive)
REMARK    1  A    between atoms: C5_10  and  N1_3 
REMARK    2  A    between atoms: C7_12  and  N2_4 
REMARK    3  A    between atoms: C5_10  and  C6_11 
ROOT
HETATM    1  N3  UNK     1      36.588  -7.736  32.744  1.00  0.00    -0.195 NA
HETATM    2  C7  UNK     1      35.954  -6.739  35.090  1.00  0.00     0.395 C 
HETATM    3  C14 UNK     1      36.306  -7.295  33.780  1.00  0.00     0.089 C 
ENDROOT
BRANCH   2   4
HETATM    4  N2  UNK     1      34.609  -6.167  35.090  1.00  0.00     0.104 N 
HETATM    5  C3  UNK     1      33.658  -7.071  34.430  1.00  0.00     0.303 C 
HETATM    6  C1  UNK     1      32.247  -6.474  34.432  1.00  0.00     0.303 C 
HETATM    7  N1  UNK     1      31.807  -6.176  35.801  1.00  0.00     0.096 N 
HETATM    8  C2  UNK     1      32.757  -5.271  36.459  1.00  0.00     0.303 C 
HETATM    9  C4  UNK     1      34.169  -5.869  36.458  1.00  0.00     0.303 C 
BRANCH   7  10
HETATM   10  C5  UNK     1      30.462  -5.606  35.801  1.00  0.00     0.312 C 
BRANCH  10  11
HETATM   11  C6  UNK     1      29.851  -5.604  37.160  1.00  0.00    -0.011 A 
HETATM   12  C8  UNK     1      29.186  -6.812  37.665  1.00  0.00     0.006 A 
HETATM   13  C10 UNK     1      28.623  -6.781  38.941  1.00  0.00     0.090 A 
HETATM   14  C11 UNK     1      29.082  -8.007  36.938  1.00  0.00     0.015 A 
HETATM   15  O1  UNK     1      28.685  -5.620  39.737  1.00  0.00    -0.275 OA
HETATM   16  C13 UNK     1      27.973  -7.884  39.498  1.00  0.00     0.045 A 
HETATM   17  C12 UNK     1      29.306  -4.465  39.286  1.00  0.00     0.288 A 
HETATM   18  O2  UNK     1      29.365  -3.449  39.970  1.00  0.00    -0.260 OA
HETATM   19  C9  UNK     1      29.895  -4.514  37.938  1.00  0.00     0.092 A 
HETATM   20  C15 UNK     1      27.880  -9.060  38.760  1.00  0.00    -0.059 A 
HETATM   21  C16 UNK     1      28.435  -9.122  37.482  1.00  0.00     0.007 A 
HETATM   22  C17 UNK     1      27.191 -10.252  39.333  1.00  0.00     0.048 C 
ENDBRANCH  10  11
ENDBRANCH   7  10
ENDBRANCH   2   4
TORSDOF 3
ENDMDL
MODEL 9
REMARK VINA RESULT:      -7.3     23.906     25.020
REMARK  3 active torsions:
REMARK  status: ('A' for Active; 'I' for Inactive)
REMARK    1  A    between atoms: C5_10  and  N1_3 
REMARK    2  A    between atoms: C7_12  and  N2_4 
REMARK    3  A    between atoms: C5_10  and  C6_11 
ROOT
HETATM    1  N3  UNK     1      20.413  12.358   7.801  1.00  0.00    -0.195 NA
HETATM    2  C7  UNK     1      17.824  12.629   7.445  1.00  0.00     0.395 C 
HETATM    3  C14 UNK     1      19.268  12.476   7.645  1.00  0.00     0.089 C 
ENDROOT
BRANCH   2   4
HETATM    4  N2  UNK     1      17.060  11.830   8.401  1.00  0.00     0.104 N 
HETATM    5  C3  UNK     1      15.680  11.640   7.936  1.00  0.00     0.303 C 
HETATM    6  C1  UNK     1      14.878  10.799   8.936  1.00  0.00     0.303 C 
HETATM    7  N1  UNK     1      15.526   9.502   9.166  1.00  0.00     0.096 N 
HETATM    8  C2  UNK     1      16.904   9.694   9.634  1.00  0.00     0.303 C 
HETATM    9  C4  UNK     1      17.706  10.534   8.633  1.00  0.00     0.303 C 
BRANCH   7  10
HETATM   10  C5  UNK     1      14.760   8.703  10.120  1.00  0.00     0.312 C 
BRANCH  10  11
HETATM   11  C6  UNK     1      14.509   7.321   9.624  1.00  0.00    -0.011 A 
HETATM   12  C8  UNK     1      13.347   7.053   8.766  1.00  0.00     0.006 A 
HETATM   13  C10 UNK     1      13.136   5.749   8.316  1.00  0.00     0.090 A 
HETATM   14  C11 UNK     1      12.429   8.034   8.367  1.00  0.00     0.015 A 
HETATM   15  O1  UNK     1      14.014   4.704   8.671  1.00  0.00    -0.275 OA
HETATM   16  C13 UNK     1      12.058   5.406   7.498  1.00  0.00     0.045 A 
HETATM   17  C12 UNK     1      15.118   4.929   9.478  1.00  0.00     0.288 A 
HETATM   18  O2  UNK     1      15.887   4.027   9.794  1.00  0.00    -0.260 OA
HETATM   19  C9  UNK     1      15.327   6.309   9.945  1.00  0.00     0.092 A 
HETATM   20  C15 UNK     1      11.158   6.395   7.114  1.00  0.00    -0.059 A 
HETATM   21  C16 UNK     1      11.343   7.707   7.547  1.00  0.00     0.007 A 
HETATM   22  C17 UNK     1       9.998   6.053   6.240  1.00  0.00     0.048 C 
ENDBRANCH  10  11
ENDBRANCH   7  10
ENDBRANCH   2   4
TORSDOF 3
ENDMDL
MODEL 10
REMARK VINA RESULT:      -7.3     23.660     25.130
REMARK  3 active torsions:
REMARK  status: ('A' for Active; 'I' for Inactive)
REMARK    1  A    between atoms: C5_10  and  N1_3 
REMARK    2  A    between atoms: C7_12  and  N2_4 
REMARK    3  A    between atoms: C5_10  and  C6_11 
ROOT
HETATM    1  N3  UNK     1       7.193   6.106  11.077  1.00  0.00    -0.195 NA
HETATM    2  C7  UNK     1       7.753   5.792   8.530  1.00  0.00     0.395 C 
HETATM    3  C14 UNK     1       7.443   5.968   9.952  1.00  0.00     0.089 C 
ENDROOT
BRANCH   2   4
HETATM    4  N2  UNK     1       9.046   6.378   8.184  1.00  0.00     0.104 N 
HETATM    5  C3  UNK     1      10.093   5.909   9.100  1.00  0.00     0.303 C 
HETATM    6  C1  UNK     1      11.451   6.520   8.736  1.00  0.00     0.303 C 
HETATM    7  N1  UNK     1      11.808   6.210   7.347  1.00  0.00     0.096 N 
HETATM    8  C2  UNK     1      10.762   6.681   6.432  1.00  0.00     0.303 C 
HETATM    9  C4  UNK     1       9.405   6.069   6.795  1.00  0.00     0.303 C 
BRANCH   7  10
HETATM   10  C5  UNK     1      13.103   6.794   7.001  1.00  0.00     0.312 C 
BRANCH  10  11
HETATM   11  C6  UNK     1      14.108   6.618   8.086  1.00  0.00    -0.011 A 
HETATM   12  C8  UNK     1      14.649   7.794   8.780  1.00  0.00     0.006 A 
HETATM   13  C10 UNK     1      15.589   7.599   9.792  1.00  0.00     0.090 A 
HETATM   14  C11 UNK     1      14.275   9.113   8.486  1.00  0.00     0.015 A 
HETATM   15  O1  UNK     1      16.017   6.304  10.149  1.00  0.00    -0.275 OA
HETATM   16  C13 UNK     1      16.154   8.660  10.501  1.00  0.00     0.045 A 
HETATM   17  C12 UNK     1      15.524   5.177   9.512  1.00  0.00     0.288 A 
HETATM   18  O2  UNK     1      15.891   4.046   9.814  1.00  0.00    -0.260 OA
HETATM   19  C9  UNK     1      14.533   5.399   8.446  1.00  0.00     0.092 A 
HETATM   20  C15 UNK     1      15.770   9.962  10.194  1.00  0.00    -0.059 A 
HETATM   21  C16 UNK     1      14.831  10.188   9.188  1.00  0.00     0.007 A 
HETATM   22  C17 UNK     1      16.359  11.112  10.939  1.00  0.00     0.048 C 
ENDBRANCH  10  11
ENDBRANCH   7  10
ENDBRANCH   2   4
TORSDOF 3
ENDMDL
