MODEL 1
REMARK VINA RESULT:      -7.8      0.000      0.000
REMARK  6 active torsions:
REMARK  status: ('A' for Active; 'I' for Inactive)
REMARK    1  A    between atoms: C7_14  and  S1_1 
REMARK    2  A    between atoms: O2_3  and  S1_1 
REMARK    3  A    between atoms: C2_9  and  O2_3 
REMARK    4  A    between atoms: C14_21  and  O4_5 
REMARK    5  A    between atoms: C23_30  and  O4_5 
REMARK    6  A    between atoms: C1_8  and  C4_11 
ROOT
HETATM    1  O1  UNK     1      32.016  -7.568  32.168  1.00  0.00    -0.306 OA
HETATM    2  O3  UNK     1      35.951  -6.885  32.979  1.00  0.00    -0.284 OA
HETATM    3  C1  UNK     1      32.457  -7.323  33.458  1.00  0.00     0.125 A 
HETATM    4  C2  UNK     1      33.739  -7.097  33.798  1.00  0.00     0.175 A 
HETATM    5  C3  UNK     1      34.293  -7.330  31.361  1.00  0.00     0.051 A 
HETATM    6  C5  UNK     1      32.935  -7.561  31.151  1.00  0.00     0.090 A 
HETATM    7  C6  UNK     1      34.769  -7.086  32.731  1.00  0.00     0.222 A 
HETATM    8  C8  UNK     1      35.184  -7.336  30.285  1.00  0.00     0.018 A 
HETATM    9  C11 UNK     1      32.459  -7.798  29.860  1.00  0.00     0.038 A 
HETATM   10  C17 UNK     1      34.706  -7.573  28.996  1.00  0.00     0.001 A 
HETATM   11  C19 UNK     1      33.347  -7.804  28.784  1.00  0.00     0.003 A 
ENDROOT
BRANCH   4  12
HETATM   12  O2  UNK     1      34.147  -6.888  35.097  1.00  0.00    -0.222 OA
BRANCH  12  13
HETATM   13  S1  UNK     1      34.394  -5.375  35.630  1.00  0.00     0.303 S 
HETATM   14  O5  UNK     1      35.548  -5.356  36.509  1.00  0.00    -0.193 OA
HETATM   15  O6  UNK     1      34.287  -4.471  34.500  1.00  0.00    -0.193 OA
BRANCH  13  16
HETATM   16  C7  UNK     1      32.995  -5.071  36.664  1.00  0.00     0.086 A 
HETATM   17  C12 UNK     1      32.153  -3.991  36.400  1.00  0.00     0.026 A 
HETATM   18  C20 UNK     1      31.050  -3.750  37.218  1.00  0.00     0.008 A 
HETATM   19  C18 UNK     1      30.788  -4.588  38.301  1.00  0.00    -0.062 A 
HETATM   20  C21 UNK     1      31.629  -5.668  38.566  1.00  0.00     0.008 A 
HETATM   21  C22 UNK     1      29.608  -4.330  39.176  1.00  0.00     0.048 C 
HETATM   22  C13 UNK     1      32.733  -5.910  37.748  1.00  0.00     0.026 A 
ENDBRANCH  13  16
ENDBRANCH  12  13
ENDBRANCH   4  12
BRANCH   3  23
HETATM   23  C4  UNK     1      31.371  -7.357  34.453  1.00  0.00     0.001 A 
HETATM   24  C10 UNK     1      30.376  -6.379  34.434  1.00  0.00     0.017 A 
HETATM   25  C16 UNK     1      29.347  -6.412  35.374  1.00  0.00     0.037 A 
HETATM   26  C14 UNK     1      29.311  -7.424  36.334  1.00  0.00     0.068 A 
HETATM   27  C15 UNK     1      30.305  -8.401  36.354  1.00  0.00     0.037 A 
HETATM   28  C9  UNK     1      31.335  -8.368  35.413  1.00  0.00     0.017 A 
BRANCH  26  29
HETATM   29  O4  UNK     1      28.306  -7.457  37.251  1.00  0.00    -0.352 OA
BRANCH  29  30
HETATM   30  C23 UNK     1      28.571  -8.131  38.481  1.00  0.00     0.171 C 
HETATM   31  C24 UNK     1      27.740  -7.500  39.578  1.00  0.00     0.034 C 
ENDBRANCH  29  30
ENDBRANCH  26  29
ENDBRANCH   3  23
TORSDOF 6
ENDMDL
MODEL 2
REMARK VINA RESULT:      -7.6      2.797      7.534
REMARK  6 active torsions:
REMARK  status: ('A' for Active; 'I' for Inactive)
REMARK    1  A    between atoms: C7_14  and  S1_1 
REMARK    2  A    between atoms: O2_3  and  S1_1 
REMARK    3  A    between atoms: C2_9  and  O2_3 
REMARK    4  A    between atoms: C14_21  and  O4_5 
REMARK    5  A    between atoms: C23_30  and  O4_5 
REMARK    6  A    between atoms: C1_8  and  C4_11 
ROOT
HETATM    1  O1  UNK     1      27.659  -8.782  35.675  1.00  0.00    -0.306 OA
HETATM    2  O3  UNK     1      29.710  -5.841  37.611  1.00  0.00    -0.284 OA
HETATM    3  C1  UNK     1      28.377  -7.823  34.979  1.00  0.00     0.125 A 
HETATM    4  C2  UNK     1      29.070  -6.822  35.554  1.00  0.00     0.175 A 
HETATM    5  C3  UNK     1      28.346  -7.759  37.766  1.00  0.00     0.051 A 
HETATM    6  C5  UNK     1      27.662  -8.736  37.044  1.00  0.00     0.090 A 
HETATM    7  C6  UNK     1      29.097  -6.729  37.033  1.00  0.00     0.222 A 
HETATM    8  C8  UNK     1      28.313  -7.762  39.163  1.00  0.00     0.018 A 
HETATM    9  C11 UNK     1      26.941  -9.723  37.717  1.00  0.00     0.038 A 
HETATM   10  C17 UNK     1      27.591  -8.750  39.833  1.00  0.00     0.001 A 
HETATM   11  C19 UNK     1      26.906  -9.728  39.112  1.00  0.00     0.003 A 
ENDROOT
BRANCH   4  12
HETATM   12  O2  UNK     1      29.747  -5.865  34.830  1.00  0.00    -0.222 OA
BRANCH  12  13
HETATM   13  S1  UNK     1      31.324  -6.071  34.501  1.00  0.00     0.303 S 
HETATM   14  O5  UNK     1      32.026  -4.818  34.704  1.00  0.00    -0.193 OA
HETATM   15  O6  UNK     1      31.764  -7.298  35.136  1.00  0.00    -0.193 OA
BRANCH  13  16
HETATM   16  C7  UNK     1      31.345  -6.359  32.758  1.00  0.00     0.086 A 
HETATM   17  C12 UNK     1      30.632  -5.517  31.904  1.00  0.00     0.026 A 
HETATM   18  C20 UNK     1      30.646  -5.746  30.528  1.00  0.00     0.008 A 
HETATM   19  C18 UNK     1      31.372  -6.815  30.006  1.00  0.00    -0.062 A 
HETATM   20  C21 UNK     1      32.086  -7.656  30.860  1.00  0.00     0.008 A 
HETATM   21  C22 UNK     1      31.388  -7.059  28.534  1.00  0.00     0.048 C 
HETATM   22  C13 UNK     1      32.072  -7.428  32.236  1.00  0.00     0.026 A 
ENDBRANCH  13  16
ENDBRANCH  12  13
ENDBRANCH   4  12
BRANCH   3  23
HETATM   23  C4  UNK     1      28.291  -7.987  33.518  1.00  0.00     0.001 A 
HETATM   24  C10 UNK     1      28.892  -9.087  32.904  1.00  0.00     0.017 A 
HETATM   25  C16 UNK     1      28.809  -9.245  31.520  1.00  0.00     0.037 A 
HETATM   26  C14 UNK     1      28.127  -8.303  30.751  1.00  0.00     0.068 A 
HETATM   27  C15 UNK     1      27.527  -7.203  31.364  1.00  0.00     0.037 A 
HETATM   28  C9  UNK     1      27.610  -7.046  32.748  1.00  0.00     0.017 A 
BRANCH  26  29
HETATM   29  O4  UNK     1      28.045  -8.456  29.401  1.00  0.00    -0.352 OA
BRANCH  29  30
HETATM   30  C23 UNK     1      28.028  -9.792  28.899  1.00  0.00     0.171 C 
HETATM   31  C24 UNK     1      29.229  -9.996  27.999  1.00  0.00     0.034 C 
ENDBRANCH  29  30
ENDBRANCH  26  29
ENDBRANCH   3  23
TORSDOF 6
ENDMDL
MODEL 3
REMARK VINA RESULT:      -7.6      3.495      7.244
REMARK  6 active torsions:
REMARK  status: ('A' for Active; 'I' for Inactive)
REMARK    1  A    between atoms: C7_14  and  S1_1 
REMARK    2  A    between atoms: O2_3  and  S1_1 
REMARK    3  A    between atoms: C2_9  and  O2_3 
REMARK    4  A    between atoms: C14_21  and  O4_5 
REMARK    5  A    between atoms: C23_30  and  O4_5 
REMARK    6  A    between atoms: C1_8  and  C4_11 
ROOT
HETATM    1  O1  UNK     1      31.356  -8.087  35.468  1.00  0.00    -0.306 OA
HETATM    2  O3  UNK     1      31.848  -4.258  34.162  1.00  0.00    -0.284 OA
HETATM    3  C1  UNK     1      31.268  -7.764  34.123  1.00  0.00     0.125 A 
HETATM    4  C2  UNK     1      31.413  -6.523  33.624  1.00  0.00     0.175 A 
HETATM    5  C3  UNK     1      31.813  -5.759  35.981  1.00  0.00     0.051 A 
HETATM    6  C5  UNK     1      31.631  -7.087  36.363  1.00  0.00     0.090 A 
HETATM    7  C6  UNK     1      31.705  -5.408  34.557  1.00  0.00     0.222 A 
HETATM    8  C8  UNK     1      32.091  -4.780  36.939  1.00  0.00     0.018 A 
HETATM    9  C11 UNK     1      31.725  -7.444  37.709  1.00  0.00     0.038 A 
HETATM   10  C17 UNK     1      32.186  -5.141  38.284  1.00  0.00     0.001 A 
HETATM   11  C19 UNK     1      32.003  -6.469  38.668  1.00  0.00     0.003 A 
ENDROOT
BRANCH   4  12
HETATM   12  O2  UNK     1      31.287  -6.233  32.284  1.00  0.00    -0.222 OA
BRANCH  12  13
HETATM   13  S1  UNK     1      29.855  -5.741  31.697  1.00  0.00     0.303 S 
HETATM   14  O5  UNK     1      28.885  -5.693  32.774  1.00  0.00    -0.193 OA
HETATM   15  O6  UNK     1      30.085  -4.600  30.833  1.00  0.00    -0.193 OA
BRANCH  13  16
HETATM   16  C7  UNK     1      29.356  -7.080  30.659  1.00  0.00     0.086 A 
HETATM   17  C12 UNK     1      28.097  -7.659  30.822  1.00  0.00     0.026 A 
HETATM   18  C20 UNK     1      27.704  -8.718  30.004  1.00  0.00     0.008 A 
HETATM   19  C18 UNK     1      28.570  -9.198  29.023  1.00  0.00    -0.062 A 
HETATM   20  C21 UNK     1      29.828  -8.620  28.858  1.00  0.00     0.008 A 
HETATM   21  C22 UNK     1      28.149 -10.331  28.147  1.00  0.00     0.048 C 
HETATM   22  C13 UNK     1      30.222  -7.561  29.676  1.00  0.00     0.026 A 
ENDBRANCH  13  16
ENDBRANCH  12  13
ENDBRANCH   4  12
BRANCH   3  23
HETATM   23  C4  UNK     1      30.971  -8.929  33.271  1.00  0.00     0.001 A 
HETATM   24  C10 UNK     1      31.921  -9.384  32.355  1.00  0.00     0.017 A 
HETATM   25  C16 UNK     1      31.640 -10.487  31.550  1.00  0.00     0.037 A 
HETATM   26  C14 UNK     1      30.410 -11.136  31.659  1.00  0.00     0.068 A 
HETATM   27  C15 UNK     1      29.461 -10.681  32.574  1.00  0.00     0.037 A 
HETATM   28  C9  UNK     1      29.741  -9.577  33.379  1.00  0.00     0.017 A 
BRANCH  26  29
HETATM   29  O4  UNK     1      30.136 -12.213  30.874  1.00  0.00    -0.352 OA
BRANCH  29  30
HETATM   30  C23 UNK     1      31.087 -13.277  30.876  1.00  0.00     0.171 C 
HETATM   31  C24 UNK     1      30.868 -14.132  32.107  1.00  0.00     0.034 C 
ENDBRANCH  29  30
ENDBRANCH  26  29
ENDBRANCH   3  23
TORSDOF 6
ENDMDL
MODEL 4
REMARK VINA RESULT:      -7.4      2.515      3.504
REMARK  6 active torsions:
REMARK  status: ('A' for Active; 'I' for Inactive)
REMARK    1  A    between atoms: C7_14  and  S1_1 
REMARK    2  A    between atoms: O2_3  and  S1_1 
REMARK    3  A    between atoms: C2_9  and  O2_3 
REMARK    4  A    between atoms: C14_21  and  O4_5 
REMARK    5  A    between atoms: C23_30  and  O4_5 
REMARK    6  A    between atoms: C1_8  and  C4_11 
ROOT
HETATM    1  O1  UNK     1      28.684  -9.076  31.742  1.00  0.00    -0.306 OA
HETATM    2  O3  UNK     1      32.660  -9.927  31.477  1.00  0.00    -0.284 OA
HETATM    3  C1  UNK     1      29.516  -8.997  32.847  1.00  0.00     0.125 A 
HETATM    4  C2  UNK     1      30.833  -9.270  32.832  1.00  0.00     0.175 A 
HETATM    5  C3  UNK     1      30.582  -9.734  30.379  1.00  0.00     0.051 A 
HETATM    6  C5  UNK     1      29.230  -9.433  30.537  1.00  0.00     0.090 A 
HETATM    7  C6  UNK     1      31.466  -9.667  31.552  1.00  0.00     0.222 A 
HETATM    8  C8  UNK     1      31.083 -10.094  29.125  1.00  0.00     0.018 A 
HETATM    9  C11 UNK     1      28.370  -9.492  29.439  1.00  0.00     0.038 A 
HETATM   10  C17 UNK     1      30.221 -10.150  28.030  1.00  0.00     0.001 A 
HETATM   11  C19 UNK     1      28.868  -9.850  28.186  1.00  0.00     0.003 A 
ENDROOT
BRANCH   4  12
HETATM   12  O2  UNK     1      31.625  -9.213  33.959  1.00  0.00    -0.222 OA
BRANCH  12  13
HETATM   13  S1  UNK     1      32.557  -7.910  34.222  1.00  0.00     0.303 S 
HETATM   14  O5  UNK     1      33.859  -8.338  34.696  1.00  0.00    -0.193 OA
HETATM   15  O6  UNK     1      32.420  -7.016  33.088  1.00  0.00    -0.193 OA
BRANCH  13  16
HETATM   16  C7  UNK     1      31.779  -7.120  35.596  1.00  0.00     0.086 A 
HETATM   17  C12 UNK     1      31.381  -7.873  36.701  1.00  0.00     0.026 A 
HETATM   18  C20 UNK     1      30.763  -7.249  37.785  1.00  0.00     0.008 A 
HETATM   19  C18 UNK     1      30.544  -5.873  37.765  1.00  0.00    -0.062 A 
HETATM   20  C21 UNK     1      30.942  -5.119  36.661  1.00  0.00     0.008 A 
HETATM   21  C22 UNK     1      29.884  -5.206  38.925  1.00  0.00     0.048 C 
HETATM   22  C13 UNK     1      31.559  -5.742  35.576  1.00  0.00     0.026 A 
ENDBRANCH  13  16
ENDBRANCH  12  13
ENDBRANCH   4  12
BRANCH   3  23
HETATM   23  C4  UNK     1      28.804  -8.601  34.075  1.00  0.00     0.001 A 
HETATM   24  C10 UNK     1      28.413  -9.572  34.998  1.00  0.00     0.017 A 
HETATM   25  C16 UNK     1      27.741  -9.197  36.161  1.00  0.00     0.037 A 
HETATM   26  C14 UNK     1      27.460  -7.852  36.402  1.00  0.00     0.068 A 
HETATM   27  C15 UNK     1      27.850  -6.882  35.479  1.00  0.00     0.037 A 
HETATM   28  C9  UNK     1      28.522  -7.257  34.316  1.00  0.00     0.017 A 
BRANCH  26  29
HETATM   29  O4  UNK     1      26.805  -7.486  37.538  1.00  0.00    -0.352 OA
BRANCH  29  30
HETATM   30  C23 UNK     1      26.648  -8.482  38.547  1.00  0.00     0.171 C 
HETATM   31  C24 UNK     1      27.662  -8.235  39.644  1.00  0.00     0.034 C 
ENDBRANCH  29  30
ENDBRANCH  26  29
ENDBRANCH   3  23
TORSDOF 6
ENDMDL
MODEL 5
REMARK VINA RESULT:      -7.3      2.082      6.917
REMARK  6 active torsions:
REMARK  status: ('A' for Active; 'I' for Inactive)
REMARK    1  A    between atoms: C7_14  and  S1_1 
REMARK    2  A    between atoms: O2_3  and  S1_1 
REMARK    3  A    between atoms: C2_9  and  O2_3 
REMARK    4  A    between atoms: C14_21  and  O4_5 
REMARK    5  A    between atoms: C23_30  and  O4_5 
REMARK    6  A    between atoms: C1_8  and  C4_11 
ROOT
HETATM    1  O1  UNK     1      30.730  -7.227  36.383  1.00  0.00    -0.306 OA
HETATM    2  O3  UNK     1      31.930  -3.335  36.238  1.00  0.00    -0.284 OA
HETATM    3  C1  UNK     1      31.651  -6.788  35.445  1.00  0.00     0.125 A 
HETATM    4  C2  UNK     1      32.086  -5.520  35.337  1.00  0.00     0.175 A 
HETATM    5  C3  UNK     1      30.606  -4.979  37.291  1.00  0.00     0.051 A 
HETATM    6  C5  UNK     1      30.233  -6.322  37.284  1.00  0.00     0.090 A 
HETATM    7  C6  UNK     1      31.571  -4.505  36.287  1.00  0.00     0.222 A 
HETATM    8  C8  UNK     1      30.066  -4.101  38.234  1.00  0.00     0.018 A 
HETATM    9  C11 UNK     1      29.317  -6.795  38.224  1.00  0.00     0.038 A 
HETATM   10  C17 UNK     1      29.151  -4.578  39.173  1.00  0.00     0.001 A 
HETATM   11  C19 UNK     1      28.776  -5.921  39.168  1.00  0.00     0.003 A 
ENDROOT
BRANCH   4  12
HETATM   12  O2  UNK     1      32.979  -5.111  34.371  1.00  0.00    -0.222 OA
BRANCH  12  13
HETATM   13  S1  UNK     1      34.547  -4.925  34.751  1.00  0.00     0.303 S 
HETATM   14  O5  UNK     1      35.062  -3.736  34.101  1.00  0.00    -0.193 OA
HETATM   15  O6  UNK     1      34.696  -5.132  36.179  1.00  0.00    -0.193 OA
BRANCH  13  16
HETATM   16  C7  UNK     1      35.328  -6.291  33.950  1.00  0.00     0.086 A 
HETATM   17  C12 UNK     1      36.237  -7.085  34.651  1.00  0.00     0.026 A 
HETATM   18  C20 UNK     1      36.856  -8.162  34.017  1.00  0.00     0.008 A 
HETATM   19  C18 UNK     1      36.567  -8.446  32.683  1.00  0.00    -0.062 A 
HETATM   20  C21 UNK     1      35.658  -7.653  31.982  1.00  0.00     0.008 A 
HETATM   21  C22 UNK     1      37.229  -9.599  32.006  1.00  0.00     0.048 C 
HETATM   22  C13 UNK     1      35.039  -6.576  32.615  1.00  0.00     0.026 A 
ENDBRANCH  13  16
ENDBRANCH  12  13
ENDBRANCH   4  12
BRANCH   3  23
HETATM   23  C4  UNK     1      32.104  -7.859  34.540  1.00  0.00     0.001 A 
HETATM   24  C10 UNK     1      33.022  -8.810  34.989  1.00  0.00     0.017 A 
HETATM   25  C16 UNK     1      33.450  -9.824  34.134  1.00  0.00     0.037 A 
HETATM   26  C14 UNK     1      32.960  -9.889  32.829  1.00  0.00     0.068 A 
HETATM   27  C15 UNK     1      32.044  -8.939  32.380  1.00  0.00     0.037 A 
HETATM   28  C9  UNK     1      31.616  -7.924  33.236  1.00  0.00     0.017 A 
BRANCH  26  29
HETATM   29  O4  UNK     1      33.377 -10.880  31.994  1.00  0.00    -0.352 OA
BRANCH  29  30
HETATM   30  C23 UNK     1      33.226 -10.654  30.593  1.00  0.00     0.171 C 
HETATM   31  C24 UNK     1      32.418 -11.787  29.995  1.00  0.00     0.034 C 
ENDBRANCH  29  30
ENDBRANCH  26  29
ENDBRANCH   3  23
TORSDOF 6
ENDMDL
MODEL 6
REMARK VINA RESULT:      -7.3      1.961      6.883
REMARK  6 active torsions:
REMARK  status: ('A' for Active; 'I' for Inactive)
REMARK    1  A    between atoms: C7_14  and  S1_1 
REMARK    2  A    between atoms: O2_3  and  S1_1 
REMARK    3  A    between atoms: C2_9  and  O2_3 
REMARK    4  A    between atoms: C14_21  and  O4_5 
REMARK    5  A    between atoms: C23_30  and  O4_5 
REMARK    6  A    between atoms: C1_8  and  C4_11 
ROOT
HETATM    1  O1  UNK     1      30.023  -8.616  36.683  1.00  0.00    -0.306 OA
HETATM    2  O3  UNK     1      29.365  -4.867  38.139  1.00  0.00    -0.284 OA
HETATM    3  C1  UNK     1      30.648  -7.507  36.135  1.00  0.00     0.125 A 
HETATM    4  C2  UNK     1      30.472  -6.243  36.561  1.00  0.00     0.175 A 
HETATM    5  C3  UNK     1      28.916  -7.177  38.295  1.00  0.00     0.051 A 
HETATM    6  C5  UNK     1      29.180  -8.431  37.748  1.00  0.00     0.090 A 
HETATM    7  C6  UNK     1      29.564  -5.995  37.707  1.00  0.00     0.222 A 
HETATM    8  C8  UNK     1      28.046  -7.049  39.381  1.00  0.00     0.018 A 
HETATM    9  C11 UNK     1      28.575  -9.568  38.286  1.00  0.00     0.038 A 
HETATM   10  C17 UNK     1      27.444  -8.188  39.917  1.00  0.00     0.001 A 
HETATM   11  C19 UNK     1      27.706  -9.444  39.371  1.00  0.00     0.003 A 
ENDROOT
BRANCH   4  12
HETATM   12  O2  UNK     1      31.086  -5.159  35.972  1.00  0.00    -0.222 OA
BRANCH  12  13
HETATM   13  S1  UNK     1      32.381  -4.484  36.681  1.00  0.00     0.303 S 
HETATM   14  O5  UNK     1      32.446  -3.079  36.326  1.00  0.00    -0.193 OA
HETATM   15  O6  UNK     1      32.420  -4.918  38.064  1.00  0.00    -0.193 OA
BRANCH  13  16
HETATM   16  C7  UNK     1      33.744  -5.252  35.862  1.00  0.00     0.086 A 
HETATM   17  C12 UNK     1      33.997  -4.975  34.519  1.00  0.00     0.026 A 
HETATM   18  C20 UNK     1      35.072  -5.584  33.871  1.00  0.00     0.008 A 
HETATM   19  C18 UNK     1      35.894  -6.470  34.566  1.00  0.00    -0.062 A 
HETATM   20  C21 UNK     1      35.641  -6.747  35.910  1.00  0.00     0.008 A 
HETATM   21  C22 UNK     1      37.043  -7.120  33.874  1.00  0.00     0.048 C 
HETATM   22  C13 UNK     1      34.566  -6.139  36.558  1.00  0.00     0.026 A 
ENDBRANCH  13  16
ENDBRANCH  12  13
ENDBRANCH   4  12
BRANCH   3  23
HETATM   23  C4  UNK     1      31.526  -7.844  35.001  1.00  0.00     0.001 A 
HETATM   24  C10 UNK     1      31.302  -7.267  33.750  1.00  0.00     0.017 A 
HETATM   25  C16 UNK     1      32.134  -7.584  32.677  1.00  0.00     0.037 A 
HETATM   26  C14 UNK     1      33.190  -8.478  32.853  1.00  0.00     0.068 A 
HETATM   27  C15 UNK     1      33.413  -9.055  34.103  1.00  0.00     0.037 A 
HETATM   28  C9  UNK     1      32.581  -8.738  35.177  1.00  0.00     0.017 A 
BRANCH  26  29
HETATM   29  O4  UNK     1      34.003  -8.787  31.806  1.00  0.00    -0.352 OA
BRANCH  29  30
HETATM   30  C23 UNK     1      33.858  -8.009  30.619  1.00  0.00     0.171 C 
HETATM   31  C24 UNK     1      35.085  -7.139  30.448  1.00  0.00     0.034 C 
ENDBRANCH  29  30
ENDBRANCH  26  29
ENDBRANCH   3  23
TORSDOF 6
ENDMDL
MODEL 7
REMARK VINA RESULT:      -7.3      2.531      7.423
REMARK  6 active torsions:
REMARK  status: ('A' for Active; 'I' for Inactive)
REMARK    1  A    between atoms: C7_14  and  S1_1 
REMARK    2  A    between atoms: O2_3  and  S1_1 
REMARK    3  A    between atoms: C2_9  and  O2_3 
REMARK    4  A    between atoms: C14_21  and  O4_5 
REMARK    5  A    between atoms: C23_30  and  O4_5 
REMARK    6  A    between atoms: C1_8  and  C4_11 
ROOT
HETATM    1  O1  UNK     1      28.381  -9.172  35.945  1.00  0.00    -0.306 OA
HETATM    2  O3  UNK     1      29.490  -5.440  37.147  1.00  0.00    -0.284 OA
HETATM    3  C1  UNK     1      29.012  -8.292  35.081  1.00  0.00     0.125 A 
HETATM    4  C2  UNK     1      29.399  -7.046  35.409  1.00  0.00     0.175 A 
HETATM    5  C3  UNK     1      28.504  -7.508  37.708  1.00  0.00     0.051 A 
HETATM    6  C5  UNK     1      28.146  -8.769  37.233  1.00  0.00     0.090 A 
HETATM    7  C6  UNK     1      29.160  -6.564  36.790  1.00  0.00     0.222 A 
HETATM    8  C8  UNK     1      28.239  -7.151  39.032  1.00  0.00     0.018 A 
HETATM    9  C11 UNK     1      27.521  -9.682  38.084  1.00  0.00     0.038 A 
HETATM   10  C17 UNK     1      27.614  -8.066  39.880  1.00  0.00     0.001 A 
HETATM   11  C19 UNK     1      27.255  -9.328  39.407  1.00  0.00     0.003 A 
ENDROOT
BRANCH   4  12
HETATM   12  O2  UNK     1      29.995  -6.184  34.514  1.00  0.00    -0.222 OA
BRANCH  12  13
HETATM   13  S1  UNK     1      31.615  -6.099  34.437  1.00  0.00     0.303 S 
HETATM   14  O5  UNK     1      32.022  -4.707  34.401  1.00  0.00    -0.193 OA
HETATM   15  O6  UNK     1      32.166  -7.024  35.409  1.00  0.00    -0.193 OA
BRANCH  13  16
HETATM   16  C7  UNK     1      31.985  -6.752  32.839  1.00  0.00     0.086 A 
HETATM   17  C12 UNK     1      31.218  -6.376  31.737  1.00  0.00     0.026 A 
HETATM   18  C20 UNK     1      31.508  -6.894  30.475  1.00  0.00     0.008 A 
HETATM   19  C18 UNK     1      32.565  -7.788  30.315  1.00  0.00    -0.062 A 
HETATM   20  C21 UNK     1      33.334  -8.164  31.416  1.00  0.00     0.008 A 
HETATM   21  C22 UNK     1      32.876  -8.342  28.965  1.00  0.00     0.048 C 
HETATM   22  C13 UNK     1      33.043  -7.647  32.679  1.00  0.00     0.026 A 
ENDBRANCH  13  16
ENDBRANCH  12  13
ENDBRANCH   4  12
BRANCH   3  23
HETATM   23  C4  UNK     1      29.204  -8.850  33.731  1.00  0.00     0.001 A 
HETATM   24  C10 UNK     1      28.412  -8.403  32.672  1.00  0.00     0.017 A 
HETATM   25  C16 UNK     1      28.595  -8.930  31.394  1.00  0.00     0.037 A 
HETATM   26  C14 UNK     1      29.570  -9.902  31.173  1.00  0.00     0.068 A 
HETATM   27  C15 UNK     1      30.362 -10.349  32.231  1.00  0.00     0.037 A 
HETATM   28  C9  UNK     1      30.179  -9.823  33.510  1.00  0.00     0.017 A 
BRANCH  26  29
HETATM   29  O4  UNK     1      29.750 -10.416  29.926  1.00  0.00    -0.352 OA
BRANCH  29  30
HETATM   30  C23 UNK     1      29.382  -9.589  28.823  1.00  0.00     0.171 C 
HETATM   31  C24 UNK     1      28.100 -10.118  28.215  1.00  0.00     0.034 C 
ENDBRANCH  29  30
ENDBRANCH  26  29
ENDBRANCH   3  23
TORSDOF 6
ENDMDL
MODEL 8
REMARK VINA RESULT:      -7.3      1.907      2.391
REMARK  6 active torsions:
REMARK  status: ('A' for Active; 'I' for Inactive)
REMARK    1  A    between atoms: C7_14  and  S1_1 
REMARK    2  A    between atoms: O2_3  and  S1_1 
REMARK    3  A    between atoms: C2_9  and  O2_3 
REMARK    4  A    between atoms: C14_21  and  O4_5 
REMARK    5  A    between atoms: C23_30  and  O4_5 
REMARK    6  A    between atoms: C1_8  and  C4_11 
ROOT
HETATM    1  O1  UNK     1      33.876  -9.814  33.932  1.00  0.00    -0.306 OA
HETATM    2  O3  UNK     1      36.070  -6.705  32.475  1.00  0.00    -0.284 OA
HETATM    3  C1  UNK     1      33.502  -8.498  34.153  1.00  0.00     0.125 A 
HETATM    4  C2  UNK     1      34.182  -7.425  33.708  1.00  0.00     0.175 A 
HETATM    5  C3  UNK     1      35.794  -9.039  32.662  1.00  0.00     0.051 A 
HETATM    6  C5  UNK     1      35.003 -10.057  33.191  1.00  0.00     0.090 A 
HETATM    7  C6  UNK     1      35.411  -7.641  32.907  1.00  0.00     0.222 A 
HETATM    8  C8  UNK     1      36.933  -9.348  31.914  1.00  0.00     0.018 A 
HETATM    9  C11 UNK     1      35.347 -11.392  32.974  1.00  0.00     0.038 A 
HETATM   10  C17 UNK     1      37.274 -10.684  31.698  1.00  0.00     0.001 A 
HETATM   11  C19 UNK     1      36.484 -11.703  32.228  1.00  0.00     0.003 A 
ENDROOT
BRANCH   4  12
HETATM   12  O2  UNK     1      33.799  -6.129  33.974  1.00  0.00    -0.222 OA
BRANCH  12  13
HETATM   13  S1  UNK     1      34.448  -5.341  35.236  1.00  0.00     0.303 S 
HETATM   14  O5  UNK     1      35.392  -6.210  35.912  1.00  0.00    -0.193 OA
HETATM   15  O6  UNK     1      34.823  -4.010  34.797  1.00  0.00    -0.193 OA
BRANCH  13  16
HETATM   16  C7  UNK     1      33.087  -5.151  36.345  1.00  0.00     0.086 A 
HETATM   17  C12 UNK     1      33.233  -5.485  37.692  1.00  0.00     0.026 A 
HETATM   18  C20 UNK     1      32.157  -5.338  38.568  1.00  0.00     0.008 A 
HETATM   19  C18 UNK     1      30.936  -4.858  38.097  1.00  0.00    -0.062 A 
HETATM   20  C21 UNK     1      30.790  -4.523  36.751  1.00  0.00     0.008 A 
HETATM   21  C22 UNK     1      29.786  -4.700  39.034  1.00  0.00     0.048 C 
HETATM   22  C13 UNK     1      31.865  -4.671  35.875  1.00  0.00     0.026 A 
ENDBRANCH  13  16
ENDBRANCH  12  13
ENDBRANCH   4  12
BRANCH   3  23
HETATM   23  C4  UNK     1      32.275  -8.376  34.960  1.00  0.00     0.001 A 
HETATM   24  C10 UNK     1      31.090  -7.941  34.366  1.00  0.00     0.017 A 
HETATM   25  C16 UNK     1      29.928  -7.828  35.130  1.00  0.00     0.037 A 
HETATM   26  C14 UNK     1      29.951  -8.150  36.487  1.00  0.00     0.068 A 
HETATM   27  C15 UNK     1      31.136  -8.585  37.080  1.00  0.00     0.037 A 
HETATM   28  C9  UNK     1      32.298  -8.698  36.317  1.00  0.00     0.017 A 
BRANCH  26  29
HETATM   29  O4  UNK     1      28.817  -8.041  37.232  1.00  0.00    -0.352 OA
BRANCH  29  30
HETATM   30  C23 UNK     1      28.921  -8.347  38.621  1.00  0.00     0.171 C 
HETATM   31  C24 UNK     1      27.698  -7.814  39.337  1.00  0.00     0.034 C 
ENDBRANCH  29  30
ENDBRANCH  26  29
ENDBRANCH   3  23
TORSDOF 6
ENDMDL
MODEL 9
REMARK VINA RESULT:      -7.3      2.703      3.835
REMARK  6 active torsions:
REMARK  status: ('A' for Active; 'I' for Inactive)
REMARK    1  A    between atoms: C7_14  and  S1_1 
REMARK    2  A    between atoms: O2_3  and  S1_1 
REMARK    3  A    between atoms: C2_9  and  O2_3 
REMARK    4  A    between atoms: C14_21  and  O4_5 
REMARK    5  A    between atoms: C23_30  and  O4_5 
REMARK    6  A    between atoms: C1_8  and  C4_11 
ROOT
HETATM    1  O1  UNK     1      28.803  -8.532  32.409  1.00  0.00    -0.306 OA
HETATM    2  O3  UNK     1      32.082 -10.590  31.134  1.00  0.00    -0.284 OA
HETATM    3  C1  UNK     1      29.900  -8.727  33.232  1.00  0.00     0.125 A 
HETATM    4  C2  UNK     1      31.010  -9.400  32.879  1.00  0.00     0.175 A 
HETATM    5  C3  UNK     1      29.937  -9.745  30.637  1.00  0.00     0.051 A 
HETATM    6  C5  UNK     1      28.845  -9.036  31.135  1.00  0.00     0.090 A 
HETATM    7  C6  UNK     1      31.097  -9.968  31.512  1.00  0.00     0.222 A 
HETATM    8  C8  UNK     1      29.923 -10.235  29.329  1.00  0.00     0.018 A 
HETATM    9  C11 UNK     1      27.730  -8.813  30.325  1.00  0.00     0.038 A 
HETATM   10  C17 UNK     1      28.807 -10.010  28.521  1.00  0.00     0.001 A 
HETATM   11  C19 UNK     1      27.713  -9.301  29.018  1.00  0.00     0.003 A 
ENDROOT
BRANCH   4  12
HETATM   12  O2  UNK     1      32.071  -9.603  33.735  1.00  0.00    -0.222 OA
BRANCH  12  13
HETATM   13  S1  UNK     1      33.368  -8.630  33.654  1.00  0.00     0.303 S 
HETATM   14  O5  UNK     1      34.573  -9.420  33.818  1.00  0.00    -0.193 OA
HETATM   15  O6  UNK     1      33.196  -7.736  32.525  1.00  0.00    -0.193 OA
BRANCH  13  16
HETATM   16  C7  UNK     1      33.234  -7.646  35.114  1.00  0.00     0.086 A 
HETATM   17  C12 UNK     1      33.082  -8.259  36.358  1.00  0.00     0.026 A 
HETATM   18  C20 UNK     1      32.974  -7.481  37.511  1.00  0.00     0.008 A 
HETATM   19  C18 UNK     1      33.017  -6.091  37.420  1.00  0.00    -0.062 A 
HETATM   20  C21 UNK     1      33.169  -5.477  36.177  1.00  0.00     0.008 A 
HETATM   21  C22 UNK     1      32.901  -5.259  38.654  1.00  0.00     0.048 C 
HETATM   22  C13 UNK     1      33.277  -6.254  35.024  1.00  0.00     0.026 A 
ENDBRANCH  13  16
ENDBRANCH  12  13
ENDBRANCH   4  12
BRANCH   3  23
HETATM   23  C4  UNK     1      29.727  -8.136  34.571  1.00  0.00     0.001 A 
HETATM   24  C10 UNK     1      29.735  -6.749  34.727  1.00  0.00     0.017 A 
HETATM   25  C16 UNK     1      29.569  -6.189  35.993  1.00  0.00     0.037 A 
HETATM   26  C14 UNK     1      29.394  -7.015  37.104  1.00  0.00     0.068 A 
HETATM   27  C15 UNK     1      29.386  -8.401  36.948  1.00  0.00     0.037 A 
HETATM   28  C9  UNK     1      29.552  -8.961  35.681  1.00  0.00     0.017 A 
BRANCH  26  29
HETATM   29  O4  UNK     1      29.231  -6.469  38.340  1.00  0.00    -0.352 OA
BRANCH  29  30
HETATM   30  C23 UNK     1      28.548  -5.219  38.413  1.00  0.00     0.171 C 
HETATM   31  C24 UNK     1      29.475  -4.185  39.017  1.00  0.00     0.034 C 
ENDBRANCH  29  30
ENDBRANCH  26  29
ENDBRANCH   3  23
TORSDOF 6
ENDMDL
MODEL 10
REMARK VINA RESULT:      -7.2      5.029      7.161
REMARK  6 active torsions:
REMARK  status: ('A' for Active; 'I' for Inactive)
REMARK    1  A    between atoms: C7_14  and  S1_1 
REMARK    2  A    between atoms: O2_3  and  S1_1 
REMARK    3  A    between atoms: C2_9  and  O2_3 
REMARK    4  A    between atoms: C14_21  and  O4_5 
REMARK    5  A    between atoms: C23_30  and  O4_5 
REMARK    6  A    between atoms: C1_8  and  C4_11 
ROOT
HETATM    1  O1  UNK     1      30.934 -13.050  30.869  1.00  0.00    -0.306 OA
HETATM    2  O3  UNK     1      34.857 -12.507  29.909  1.00  0.00    -0.284 OA
HETATM    3  C1  UNK     1      31.385 -11.864  30.312  1.00  0.00     0.125 A 
HETATM    4  C2  UNK     1      32.664 -11.616  29.978  1.00  0.00     0.175 A 
HETATM    5  C3  UNK     1      33.191 -13.938  30.770  1.00  0.00     0.051 A 
HETATM    6  C5  UNK     1      31.837 -14.059  31.080  1.00  0.00     0.090 A 
HETATM    7  C6  UNK     1      33.678 -12.676  30.194  1.00  0.00     0.222 A 
HETATM    8  C8  UNK     1      34.067 -15.000  31.008  1.00  0.00     0.018 A 
HETATM    9  C11 UNK     1      31.351 -15.246  31.630  1.00  0.00     0.038 A 
HETATM   10  C17 UNK     1      33.577 -16.186  31.557  1.00  0.00     0.001 A 
HETATM   11  C19 UNK     1      32.223 -16.308  31.868  1.00  0.00     0.003 A 
ENDROOT
BRANCH   4  12
HETATM   12  O2  UNK     1      33.084 -10.412  29.455  1.00  0.00    -0.222 OA
BRANCH  12  13
HETATM   13  S1  UNK     1      33.758  -9.302  30.431  1.00  0.00     0.303 S 
HETATM   14  O5  UNK     1      33.849  -9.836  31.776  1.00  0.00    -0.193 OA
HETATM   15  O6  UNK     1      34.916  -8.747  29.756  1.00  0.00    -0.193 OA
BRANCH  13  16
HETATM   16  C7  UNK     1      32.541  -8.024  30.500  1.00  0.00     0.086 A 
HETATM   17  C12 UNK     1      32.130  -7.518  31.733  1.00  0.00     0.026 A 
HETATM   18  C20 UNK     1      31.167  -6.511  31.788  1.00  0.00     0.008 A 
HETATM   19  C18 UNK     1      30.615  -6.009  30.610  1.00  0.00    -0.062 A 
HETATM   20  C21 UNK     1      31.026  -6.514  29.377  1.00  0.00     0.008 A 
HETATM   21  C22 UNK     1      29.585  -4.931  30.669  1.00  0.00     0.048 C 
HETATM   22  C13 UNK     1      31.989  -7.522  29.322  1.00  0.00     0.026 A 
ENDBRANCH  13  16
ENDBRANCH  12  13
ENDBRANCH   4  12
BRANCH   3  23
HETATM   23  C4  UNK     1      30.314 -10.867  30.137  1.00  0.00     0.001 A 
HETATM   24  C10 UNK     1      29.831 -10.580  28.860  1.00  0.00     0.017 A 
HETATM   25  C16 UNK     1      28.816  -9.638  28.694  1.00  0.00     0.037 A 
HETATM   26  C14 UNK     1      28.284  -8.982  29.805  1.00  0.00     0.068 A 
HETATM   27  C15 UNK     1      28.769  -9.269  31.081  1.00  0.00     0.037 A 
HETATM   28  C9  UNK     1      29.783 -10.211  31.247  1.00  0.00     0.017 A 
BRANCH  26  29
HETATM   29  O4  UNK     1      27.294  -8.063  29.644  1.00  0.00    -0.352 OA
BRANCH  29  30
HETATM   30  C23 UNK     1      26.915  -7.309  30.794  1.00  0.00     0.171 C 
HETATM   31  C24 UNK     1      25.716  -6.451  30.448  1.00  0.00     0.034 C 
ENDBRANCH  29  30
ENDBRANCH  26  29
ENDBRANCH   3  23
TORSDOF 6
ENDMDL
