MODEL 1
REMARK VINA RESULT:      -8.0      0.000      0.000
REMARK  5 active torsions:
REMARK  status: ('A' for Active; 'I' for Inactive)
REMARK    1  A    between atoms: C17_25  and  O5_5 
REMARK    2  A    between atoms: C20_28  and  O5_5 
REMARK    3  A    between atoms: C7_15  and  N1_6 
REMARK       I    between atoms: C12_20  and  N2_7 
REMARK    4  A    between atoms: C1_9  and  C4_12 
REMARK    5  A    between atoms: C12_20  and  C3_11 
ROOT
HETATM    1  N3  UNK     1      35.518  -6.205  29.669  1.00  0.00    -0.195 NA
HETATM    2  C20 UNK     1      34.181  -8.105  30.889  1.00  0.00     0.299 C 
HETATM    3  C21 UNK     1      34.926  -7.044  30.209  1.00  0.00     0.085 C 
ENDROOT
BRANCH   2   4
HETATM    4  O5  UNK     1      32.781  -7.835  30.848  1.00  0.00    -0.338 OA
BRANCH   4   5
HETATM    5  C17 UNK     1      32.209  -7.352  31.985  1.00  0.00     0.070 A 
HETATM    6  C14 UNK     1      32.482  -7.955  33.213  1.00  0.00     0.037 A 
HETATM    7  C10 UNK     1      31.898  -7.459  34.378  1.00  0.00     0.011 A 
HETATM    8  C4  UNK     1      31.043  -6.365  34.307  1.00  0.00    -0.044 A 
HETATM    9  C11 UNK     1      30.765  -5.759  33.087  1.00  0.00     0.011 A 
HETATM   10  C15 UNK     1      31.350  -6.254  31.922  1.00  0.00     0.037 A 
BRANCH   8  11
HETATM   11  C1  UNK     1      30.412  -5.833  35.561  1.00  0.00     0.103 C 
HETATM   12  C2  UNK     1      29.469  -6.863  36.156  1.00  0.00     0.066 A 
HETATM   13  C5  UNK     1      29.752  -7.448  37.331  1.00  0.00     0.104 A 
HETATM   14  C8  UNK     1      28.216  -7.186  35.426  1.00  0.00     0.298 A 
HETATM   15  C6  UNK     1      28.870  -8.464  37.899  1.00  0.00     0.033 A 
HETATM   16  O1  UNK     1      30.880  -7.144  38.072  1.00  0.00    -0.292 OA
HETATM   17  C13 UNK     1      29.126  -9.124  39.107  1.00  0.00     0.017 A 
HETATM   18  C9  UNK     1      27.715  -8.800  37.199  1.00  0.00     0.092 A 
HETATM   19  C18 UNK     1      28.237 -10.092  39.587  1.00  0.00     0.001 A 
HETATM   20  C19 UNK     1      27.087 -10.412  38.866  1.00  0.00     0.003 A 
HETATM   21  C16 UNK     1      26.820  -9.764  37.664  1.00  0.00     0.038 A 
HETATM   22  O2  UNK     1      27.402  -8.166  35.983  1.00  0.00    -0.274 OA
HETATM   23  C7  UNK     1      31.685  -6.058  37.720  1.00  0.00     0.154 C 
HETATM   24  C3  UNK     1      31.484  -5.413  36.551  1.00  0.00     0.073 C 
HETATM   25  O3  UNK     1      27.906  -6.623  34.380  1.00  0.00    -0.259 OA
BRANCH  23  26
HETATM   26  N1  UNK     1      32.631  -5.761  38.660  1.00  0.00    -0.379 N 
HETATM   27  H8  UNK     1      33.183  -6.511  39.055  1.00  0.00     0.158 HD
HETATM   28  H9  UNK     1      32.780  -4.805  38.955  1.00  0.00     0.158 HD
ENDBRANCH  23  26
BRANCH  24  29
HETATM   29  C12 UNK     1      32.290  -4.234  36.185  1.00  0.00     0.250 C 
HETATM   30  O4  UNK     1      33.438  -4.349  35.777  1.00  0.00    -0.268 OA
HETATM   31  N2  UNK     1      31.618  -3.050  36.353  1.00  0.00    -0.366 N 
HETATM   32  H12 UNK     1      32.063  -2.164  36.136  1.00  0.00     0.159 HD
HETATM   33  H13 UNK     1      30.663  -3.006  36.695  1.00  0.00     0.159 HD
ENDBRANCH  24  29
ENDBRANCH   8  11
ENDBRANCH   4   5
ENDBRANCH   2   4
TORSDOF 5
ENDMDL
MODEL 2
REMARK VINA RESULT:      -7.9      3.144      7.294
REMARK  5 active torsions:
REMARK  status: ('A' for Active; 'I' for Inactive)
REMARK    1  A    between atoms: C17_25  and  O5_5 
REMARK    2  A    between atoms: C20_28  and  O5_5 
REMARK    3  A    between atoms: C7_15  and  N1_6 
REMARK       I    between atoms: C12_20  and  N2_7 
REMARK    4  A    between atoms: C1_9  and  C4_12 
REMARK    5  A    between atoms: C12_20  and  C3_11 
ROOT
HETATM    1  N3  UNK     1      29.433  -3.641  39.956  1.00  0.00    -0.195 NA
HETATM    2  C20 UNK     1      30.184  -4.815  37.733  1.00  0.00     0.299 C 
HETATM    3  C21 UNK     1      29.766  -4.161  38.973  1.00  0.00     0.085 C 
ENDROOT
BRANCH   2   4
HETATM    4  O5  UNK     1      30.647  -6.138  37.999  1.00  0.00    -0.338 OA
BRANCH   4   5
HETATM    5  C17 UNK     1      31.451  -6.713  37.063  1.00  0.00     0.070 A 
HETATM    6  C14 UNK     1      31.481  -6.207  35.763  1.00  0.00     0.037 A 
HETATM    7  C10 UNK     1      32.305  -6.795  34.805  1.00  0.00     0.011 A 
HETATM    8  C4  UNK     1      33.095  -7.885  35.152  1.00  0.00    -0.044 A 
HETATM    9  C11 UNK     1      33.072  -8.395  36.446  1.00  0.00     0.011 A 
HETATM   10  C15 UNK     1      32.247  -7.808  37.404  1.00  0.00     0.037 A 
BRANCH   8  11
HETATM   11  C1  UNK     1      33.982  -8.519  34.120  1.00  0.00     0.103 C 
HETATM   12  C2  UNK     1      33.161  -8.970  32.925  1.00  0.00     0.066 A 
HETATM   13  C5  UNK     1      33.309  -8.373  31.732  1.00  0.00     0.104 A 
HETATM   14  C8  UNK     1      32.217 -10.105  33.098  1.00  0.00     0.298 A 
HETATM   15  C6  UNK     1      32.504  -8.775  30.582  1.00  0.00     0.033 A 
HETATM   16  O1  UNK     1      34.212  -7.348  31.509  1.00  0.00    -0.292 OA
HETATM   17  C13 UNK     1      32.597  -8.173  29.322  1.00  0.00     0.017 A 
HETATM   18  C9  UNK     1      31.588  -9.810  30.748  1.00  0.00     0.092 A 
HETATM   19  C18 UNK     1      31.788  -8.608  28.266  1.00  0.00     0.001 A 
HETATM   20  C19 UNK     1      30.877  -9.646  28.460  1.00  0.00     0.003 A 
HETATM   21  C16 UNK     1      30.773 -10.254  29.707  1.00  0.00     0.038 A 
HETATM   22  O2  UNK     1      31.453 -10.457  31.990  1.00  0.00    -0.274 OA
HETATM   23  C7  UNK     1      35.160  -7.017  32.480  1.00  0.00     0.154 C 
HETATM   24  C3  UNK     1      35.086  -7.559  33.715  1.00  0.00     0.073 C 
HETATM   25  O3  UNK     1      32.106 -10.705  34.162  1.00  0.00    -0.259 OA
BRANCH  23  26
HETATM   26  N1  UNK     1      36.104  -6.137  32.034  1.00  0.00    -0.379 N 
HETATM   27  H8  UNK     1      35.883  -5.150  32.012  1.00  0.00     0.158 HD
HETATM   28  H9  UNK     1      37.012  -6.466  31.733  1.00  0.00     0.158 HD
ENDBRANCH  23  26
BRANCH  24  29
HETATM   29  C12 UNK     1      36.106  -7.262  34.738  1.00  0.00     0.250 C 
HETATM   30  O4  UNK     1      36.114  -6.196  35.337  1.00  0.00    -0.268 OA
HETATM   31  N2  UNK     1      36.999  -8.287  34.919  1.00  0.00    -0.366 N 
HETATM   32  H12 UNK     1      37.751  -8.208  35.597  1.00  0.00     0.159 HD
HETATM   33  H13 UNK     1      36.950  -9.156  34.396  1.00  0.00     0.159 HD
ENDBRANCH  24  29
ENDBRANCH   8  11
ENDBRANCH   4   5
ENDBRANCH   2   4
TORSDOF 5
ENDMDL
MODEL 3
REMARK VINA RESULT:      -7.9      1.290      1.345
REMARK  5 active torsions:
REMARK  status: ('A' for Active; 'I' for Inactive)
REMARK    1  A    between atoms: C17_25  and  O5_5 
REMARK    2  A    between atoms: C20_28  and  O5_5 
REMARK    3  A    between atoms: C7_15  and  N1_6 
REMARK       I    between atoms: C12_20  and  N2_7 
REMARK    4  A    between atoms: C1_9  and  C4_12 
REMARK    5  A    between atoms: C12_20  and  C3_11 
ROOT
HETATM    1  N3  UNK     1      31.386  -9.137  27.751  1.00  0.00    -0.195 NA
HETATM    2  C20 UNK     1      32.033  -7.305  29.514  1.00  0.00     0.299 C 
HETATM    3  C21 UNK     1      31.672  -8.327  28.531  1.00  0.00     0.085 C 
ENDROOT
BRANCH   2   4
HETATM    4  O5  UNK     1      32.476  -7.914  30.726  1.00  0.00    -0.338 OA
BRANCH   4   5
HETATM    5  C17 UNK     1      31.972  -7.417  31.889  1.00  0.00     0.070 A 
HETATM    6  C14 UNK     1      32.250  -8.053  33.099  1.00  0.00     0.037 A 
HETATM    7  C10 UNK     1      31.734  -7.544  34.290  1.00  0.00     0.011 A 
HETATM    8  C4  UNK     1      30.943  -6.400  34.263  1.00  0.00    -0.044 A 
HETATM    9  C11 UNK     1      30.661  -5.760  33.062  1.00  0.00     0.011 A 
HETATM   10  C15 UNK     1      31.177  -6.270  31.871  1.00  0.00     0.037 A 
BRANCH   8  11
HETATM   11  C1  UNK     1      30.386  -5.853  35.545  1.00  0.00     0.103 C 
HETATM   12  C2  UNK     1      29.408  -6.837  36.159  1.00  0.00     0.066 A 
HETATM   13  C5  UNK     1      29.697  -7.455  37.316  1.00  0.00     0.104 A 
HETATM   14  C8  UNK     1      28.114  -7.079  35.469  1.00  0.00     0.298 A 
HETATM   15  C6  UNK     1      28.779  -8.428  37.901  1.00  0.00     0.033 A 
HETATM   16  O1  UNK     1      30.865  -7.225  38.021  1.00  0.00    -0.292 OA
HETATM   17  C13 UNK     1      29.038  -9.120  39.090  1.00  0.00     0.017 A 
HETATM   18  C9  UNK     1      27.584  -8.688  37.237  1.00  0.00     0.092 A 
HETATM   19  C18 UNK     1      28.113 -10.043  39.589  1.00  0.00     0.001 A 
HETATM   20  C19 UNK     1      26.922 -10.288  38.904  1.00  0.00     0.003 A 
HETATM   21  C16 UNK     1      26.652  -9.607  37.721  1.00  0.00     0.038 A 
HETATM   22  O2  UNK     1      27.265  -8.020  36.041  1.00  0.00    -0.274 OA
HETATM   23  C7  UNK     1      31.717  -6.181  37.656  1.00  0.00     0.154 C 
HETATM   24  C3  UNK     1      31.514  -5.508  36.503  1.00  0.00     0.073 C 
HETATM   25  O3  UNK     1      27.801  -6.483  34.442  1.00  0.00    -0.259 OA
BRANCH  23  26
HETATM   26  N1  UNK     1      32.710  -5.951  38.565  1.00  0.00    -0.379 N 
HETATM   27  H8  UNK     1      33.372  -5.206  38.392  1.00  0.00     0.158 HD
HETATM   28  H9  UNK     1      32.782  -6.516  39.402  1.00  0.00     0.158 HD
ENDBRANCH  23  26
BRANCH  24  29
HETATM   29  C12 UNK     1      32.372  -4.371  36.124  1.00  0.00     0.250 C 
HETATM   30  O4  UNK     1      33.553  -4.529  35.848  1.00  0.00    -0.268 OA
HETATM   31  N2  UNK     1      31.705  -3.172  36.122  1.00  0.00    -0.366 N 
HETATM   32  H12 UNK     1      32.185  -2.311  35.878  1.00  0.00     0.159 HD
HETATM   33  H13 UNK     1      30.721  -3.092  36.358  1.00  0.00     0.159 HD
ENDBRANCH  24  29
ENDBRANCH   8  11
ENDBRANCH   4   5
ENDBRANCH   2   4
TORSDOF 5
ENDMDL
MODEL 4
REMARK VINA RESULT:      -7.8      3.188      4.569
REMARK  5 active torsions:
REMARK  status: ('A' for Active; 'I' for Inactive)
REMARK    1  A    between atoms: C17_25  and  O5_5 
REMARK    2  A    between atoms: C20_28  and  O5_5 
REMARK    3  A    between atoms: C7_15  and  N1_6 
REMARK       I    between atoms: C12_20  and  N2_7 
REMARK    4  A    between atoms: C1_9  and  C4_12 
REMARK    5  A    between atoms: C12_20  and  C3_11 
ROOT
HETATM    1  N3  UNK     1      30.766  -9.995  27.393  1.00  0.00    -0.195 NA
HETATM    2  C20 UNK     1      29.073  -8.615  28.846  1.00  0.00     0.299 C 
HETATM    3  C21 UNK     1      30.017  -9.384  28.036  1.00  0.00     0.085 C 
ENDROOT
BRANCH   2   4
HETATM    4  O5  UNK     1      29.691  -7.427  29.338  1.00  0.00    -0.338 OA
BRANCH   4   5
HETATM    5  C17 UNK     1      30.330  -7.513  30.537  1.00  0.00     0.070 A 
HETATM    6  C14 UNK     1      31.705  -7.287  30.613  1.00  0.00     0.037 A 
HETATM    7  C10 UNK     1      32.359  -7.374  31.841  1.00  0.00     0.011 A 
HETATM    8  C4  UNK     1      31.635  -7.688  32.986  1.00  0.00    -0.044 A 
HETATM    9  C11 UNK     1      30.265  -7.916  32.919  1.00  0.00     0.011 A 
HETATM   10  C15 UNK     1      29.610  -7.828  31.691  1.00  0.00     0.037 A 
BRANCH   8  11
HETATM   11  C1  UNK     1      32.340  -7.784  34.308  1.00  0.00     0.103 C 
HETATM   12  C2  UNK     1      31.734  -6.810  35.301  1.00  0.00     0.066 A 
HETATM   13  C5  UNK     1      31.060  -7.258  36.372  1.00  0.00     0.104 A 
HETATM   14  C8  UNK     1      31.929  -5.353  35.078  1.00  0.00     0.298 A 
HETATM   15  C6  UNK     1      30.445  -6.331  37.319  1.00  0.00     0.033 A 
HETATM   16  O1  UNK     1      30.896  -8.603  36.650  1.00  0.00    -0.292 OA
HETATM   17  C13 UNK     1      29.712  -6.741  38.439  1.00  0.00     0.017 A 
HETATM   18  C9  UNK     1      30.590  -4.966  37.092  1.00  0.00     0.092 A 
HETATM   19  C18 UNK     1      29.145  -5.794  39.300  1.00  0.00     0.001 A 
HETATM   20  C19 UNK     1      29.304  -4.431  39.049  1.00  0.00     0.003 A 
HETATM   21  C16 UNK     1      30.031  -4.010  37.941  1.00  0.00     0.038 A 
HETATM   22  O2  UNK     1      31.322  -4.494  35.987  1.00  0.00    -0.274 OA
HETATM   23  C7  UNK     1      31.600  -9.566  35.923  1.00  0.00     0.154 C 
HETATM   24  C3  UNK     1      32.298  -9.212  34.823  1.00  0.00     0.073 C 
HETATM   25  O3  UNK     1      32.590  -4.919  34.140  1.00  0.00    -0.259 OA
BRANCH  23  26
HETATM   26  N1  UNK     1      31.494 -10.823  36.448  1.00  0.00    -0.379 N 
HETATM   27  H8  UNK     1      30.750 -11.019  37.105  1.00  0.00     0.158 HD
HETATM   28  H9  UNK     1      32.148 -11.548  36.183  1.00  0.00     0.158 HD
ENDBRANCH  23  26
BRANCH  24  29
HETATM   29  C12 UNK     1      33.089 -10.204  34.072  1.00  0.00     0.250 C 
HETATM   30  O4  UNK     1      32.570 -11.210  33.605  1.00  0.00    -0.268 OA
HETATM   31  N2  UNK     1      34.414  -9.869  33.970  1.00  0.00    -0.366 N 
HETATM   32  H12 UNK     1      35.067 -10.471  33.476  1.00  0.00     0.159 HD
HETATM   33  H13 UNK     1      34.798  -9.021  34.375  1.00  0.00     0.159 HD
ENDBRANCH  24  29
ENDBRANCH   8  11
ENDBRANCH   4   5
ENDBRANCH   2   4
TORSDOF 5
ENDMDL
MODEL 5
REMARK VINA RESULT:      -7.8      2.766      7.534
REMARK  5 active torsions:
REMARK  status: ('A' for Active; 'I' for Inactive)
REMARK    1  A    between atoms: C17_25  and  O5_5 
REMARK    2  A    between atoms: C20_28  and  O5_5 
REMARK    3  A    between atoms: C7_15  and  N1_6 
REMARK       I    between atoms: C12_20  and  N2_7 
REMARK    4  A    between atoms: C1_9  and  C4_12 
REMARK    5  A    between atoms: C12_20  and  C3_11 
ROOT
HETATM    1  N3  UNK     1      26.161  -5.085  38.704  1.00  0.00    -0.195 NA
HETATM    2  C20 UNK     1      28.036  -6.887  39.046  1.00  0.00     0.299 C 
HETATM    3  C21 UNK     1      26.991  -5.882  38.855  1.00  0.00     0.085 C 
ENDROOT
BRANCH   2   4
HETATM    4  O5  UNK     1      29.322  -6.270  39.074  1.00  0.00    -0.338 OA
BRANCH   4   5
HETATM    5  C17 UNK     1      29.937  -6.067  37.876  1.00  0.00     0.070 A 
HETATM    6  C14 UNK     1      30.296  -4.776  37.486  1.00  0.00     0.037 A 
HETATM    7  C10 UNK     1      30.927  -4.568  36.260  1.00  0.00     0.011 A 
HETATM    8  C4  UNK     1      31.193  -5.652  35.431  1.00  0.00    -0.044 A 
HETATM    9  C11 UNK     1      30.838  -6.942  35.812  1.00  0.00     0.011 A 
HETATM   10  C15 UNK     1      30.208  -7.150  37.038  1.00  0.00     0.037 A 
BRANCH   8  11
HETATM   11  C1  UNK     1      31.870  -5.428  34.110  1.00  0.00     0.103 C 
HETATM   12  C2  UNK     1      33.270  -6.015  34.128  1.00  0.00     0.066 A 
HETATM   13  C5  UNK     1      33.576  -7.073  33.360  1.00  0.00     0.104 A 
HETATM   14  C8  UNK     1      34.299  -5.374  34.989  1.00  0.00     0.298 A 
HETATM   15  C6  UNK     1      34.910  -7.667  33.391  1.00  0.00     0.033 A 
HETATM   16  O1  UNK     1      32.668  -7.671  32.505  1.00  0.00    -0.292 OA
HETATM   17  C13 UNK     1      35.279  -8.784  32.632  1.00  0.00     0.017 A 
HETATM   18  C9  UNK     1      35.866  -7.096  34.227  1.00  0.00     0.092 A 
HETATM   19  C18 UNK     1      36.575  -9.303  32.718  1.00  0.00     0.001 A 
HETATM   20  C19 UNK     1      37.514  -8.713  33.564  1.00  0.00     0.003 A 
HETATM   21  C16 UNK     1      37.162  -7.603  34.324  1.00  0.00     0.038 A 
HETATM   22  O2  UNK     1      35.556  -5.969  35.009  1.00  0.00    -0.274 OA
HETATM   23  C7  UNK     1      31.432  -7.071  32.255  1.00  0.00     0.154 C 
HETATM   24  C3  UNK     1      31.031  -6.008  32.984  1.00  0.00     0.073 C 
HETATM   25  O3  UNK     1      34.061  -4.372  35.654  1.00  0.00    -0.259 OA
BRANCH  23  26
HETATM   26  N1  UNK     1      30.739  -7.665  31.239  1.00  0.00    -0.379 N 
HETATM   27  H8  UNK     1      29.826  -8.057  31.431  1.00  0.00     0.158 HD
HETATM   28  H9  UNK     1      31.131  -7.712  30.307  1.00  0.00     0.158 HD
ENDBRANCH  23  26
BRANCH  24  29
HETATM   29  C12 UNK     1      29.753  -5.329  32.702  1.00  0.00     0.250 C 
HETATM   30  O4  UNK     1      28.681  -5.850  32.978  1.00  0.00    -0.268 OA
HETATM   31  N2  UNK     1      29.916  -4.098  32.120  1.00  0.00    -0.366 N 
HETATM   32  H12 UNK     1      29.112  -3.528  31.875  1.00  0.00     0.159 HD
HETATM   33  H13 UNK     1      30.829  -3.707  31.911  1.00  0.00     0.159 HD
ENDBRANCH  24  29
ENDBRANCH   8  11
ENDBRANCH   4   5
ENDBRANCH   2   4
TORSDOF 5
ENDMDL
MODEL 6
REMARK VINA RESULT:      -7.8      3.348      4.235
REMARK  5 active torsions:
REMARK  status: ('A' for Active; 'I' for Inactive)
REMARK    1  A    between atoms: C17_25  and  O5_5 
REMARK    2  A    between atoms: C20_28  and  O5_5 
REMARK    3  A    between atoms: C7_15  and  N1_6 
REMARK       I    between atoms: C12_20  and  N2_7 
REMARK    4  A    between atoms: C1_9  and  C4_12 
REMARK    5  A    between atoms: C12_20  and  C3_11 
ROOT
HETATM    1  N3  UNK     1      30.663  -9.944  27.443  1.00  0.00    -0.195 NA
HETATM    2  C20 UNK     1      28.510  -9.414  28.845  1.00  0.00     0.299 C 
HETATM    3  C21 UNK     1      29.711  -9.709  28.063  1.00  0.00     0.085 C 
ENDROOT
BRANCH   2   4
HETATM    4  O5  UNK     1      28.680  -8.204  29.582  1.00  0.00    -0.338 OA
BRANCH   4   5
HETATM    5  C17 UNK     1      29.352  -8.287  30.762  1.00  0.00     0.070 A 
HETATM    6  C14 UNK     1      28.855  -9.086  31.793  1.00  0.00     0.037 A 
HETATM    7  C10 UNK     1      29.544  -9.172  33.002  1.00  0.00     0.011 A 
HETATM    8  C4  UNK     1      30.725  -8.458  33.174  1.00  0.00    -0.044 A 
HETATM    9  C11 UNK     1      31.226  -7.659  32.151  1.00  0.00     0.011 A 
HETATM   10  C15 UNK     1      30.538  -7.574  30.942  1.00  0.00     0.037 A 
BRANCH   8  11
HETATM   11  C1  UNK     1      31.466  -8.549  34.476  1.00  0.00     0.103 C 
HETATM   12  C2  UNK     1      30.576  -8.103  35.622  1.00  0.00     0.066 A 
HETATM   13  C5  UNK     1      30.165  -8.982  36.549  1.00  0.00     0.104 A 
HETATM   14  C8  UNK     1      30.196  -6.669  35.710  1.00  0.00     0.298 A 
HETATM   15  C6  UNK     1      29.283  -8.574  37.639  1.00  0.00     0.033 A 
HETATM   16  O1  UNK     1      30.535 -10.316  36.538  1.00  0.00    -0.292 OA
HETATM   17  C13 UNK     1      28.805  -9.451  38.619  1.00  0.00     0.017 A 
HETATM   18  C9  UNK     1      28.891  -7.240  37.703  1.00  0.00     0.092 A 
HETATM   19  C18 UNK     1      27.957  -8.989  39.631  1.00  0.00     0.001 A 
HETATM   20  C19 UNK     1      27.577  -7.647  39.672  1.00  0.00     0.003 A 
HETATM   21  C16 UNK     1      28.045  -6.764  38.705  1.00  0.00     0.038 A 
HETATM   22  O2  UNK     1      29.345  -6.310  36.750  1.00  0.00    -0.274 OA
HETATM   23  C7  UNK     1      31.522 -10.769  35.659  1.00  0.00     0.154 C 
HETATM   24  C3  UNK     1      31.989  -9.959  34.685  1.00  0.00     0.073 C 
HETATM   25  O3  UNK     1      30.605  -5.834  34.910  1.00  0.00    -0.259 OA
BRANCH  23  26
HETATM   26  N1  UNK     1      31.921 -12.051  35.911  1.00  0.00    -0.379 N 
HETATM   27  H8  UNK     1      31.666 -12.481  36.790  1.00  0.00     0.158 HD
HETATM   28  H9  UNK     1      32.461 -12.565  35.227  1.00  0.00     0.158 HD
ENDBRANCH  23  26
BRANCH  24  29
HETATM   29  C12 UNK     1      33.066 -10.401  33.781  1.00  0.00     0.250 C 
HETATM   30  O4  UNK     1      32.922 -11.366  33.043  1.00  0.00    -0.268 OA
HETATM   31  N2  UNK     1      34.194  -9.626  33.870  1.00  0.00    -0.366 N 
HETATM   32  H12 UNK     1      35.009  -9.826  33.298  1.00  0.00     0.159 HD
HETATM   33  H13 UNK     1      34.266  -8.832  34.499  1.00  0.00     0.159 HD
ENDBRANCH  24  29
ENDBRANCH   8  11
ENDBRANCH   4   5
ENDBRANCH   2   4
TORSDOF 5
ENDMDL
MODEL 7
REMARK VINA RESULT:      -7.7      2.470      6.648
REMARK  5 active torsions:
REMARK  status: ('A' for Active; 'I' for Inactive)
REMARK    1  A    between atoms: C17_25  and  O5_5 
REMARK    2  A    between atoms: C20_28  and  O5_5 
REMARK    3  A    between atoms: C7_15  and  N1_6 
REMARK       I    between atoms: C12_20  and  N2_7 
REMARK    4  A    between atoms: C1_9  and  C4_12 
REMARK    5  A    between atoms: C12_20  and  C3_11 
ROOT
HETATM    1  N3  UNK     1      26.215 -10.455  37.025  1.00  0.00    -0.195 NA
HETATM    2  C20 UNK     1      27.307  -9.877  39.340  1.00  0.00     0.299 C 
HETATM    3  C21 UNK     1      26.699 -10.200  38.049  1.00  0.00     0.085 C 
ENDROOT
BRANCH   2   4
HETATM    4  O5  UNK     1      28.684 -10.250  39.349  1.00  0.00    -0.338 OA
BRANCH   4   5
HETATM    5  C17 UNK     1      29.531  -9.513  38.579  1.00  0.00     0.070 A 
HETATM    6  C14 UNK     1      30.854  -9.922  38.408  1.00  0.00     0.037 A 
HETATM    7  C10 UNK     1      31.721  -9.166  37.619  1.00  0.00     0.011 A 
HETATM    8  C4  UNK     1      31.260  -8.006  37.007  1.00  0.00    -0.044 A 
HETATM    9  C11 UNK     1      29.943  -7.591  37.174  1.00  0.00     0.011 A 
HETATM   10  C15 UNK     1      29.076  -8.346  37.962  1.00  0.00     0.037 A 
BRANCH   8  11
HETATM   11  C1  UNK     1      32.194  -7.192  36.160  1.00  0.00     0.103 C 
HETATM   12  C2  UNK     1      31.751  -7.221  34.709  1.00  0.00     0.066 A 
HETATM   13  C5  UNK     1      31.294  -6.109  34.112  1.00  0.00     0.104 A 
HETATM   14  C8  UNK     1      31.863  -8.498  33.956  1.00  0.00     0.298 A 
HETATM   15  C6  UNK     1      30.834  -6.129  32.727  1.00  0.00     0.033 A 
HETATM   16  O1  UNK     1      31.219  -4.885  34.756  1.00  0.00    -0.292 OA
HETATM   17  C13 UNK     1      30.326  -5.007  32.062  1.00  0.00     0.017 A 
HETATM   18  C9  UNK     1      30.899  -7.332  32.029  1.00  0.00     0.092 A 
HETATM   19  C18 UNK     1      29.899  -5.104  30.733  1.00  0.00     0.001 A 
HETATM   20  C19 UNK     1      29.972  -6.322  30.057  1.00  0.00     0.003 A 
HETATM   21  C16 UNK     1      30.475  -7.445  30.705  1.00  0.00     0.038 A 
HETATM   22  O2  UNK     1      31.406  -8.492  32.643  1.00  0.00    -0.274 OA
HETATM   23  C7  UNK     1      31.807  -4.710  36.011  1.00  0.00     0.154 C 
HETATM   24  C3  UNK     1      32.285  -5.773  36.693  1.00  0.00     0.073 C 
HETATM   25  O3  UNK     1      32.332  -9.514  34.460  1.00  0.00    -0.259 OA
BRANCH  23  26
HETATM   26  N1  UNK     1      31.831  -3.406  36.418  1.00  0.00    -0.379 N 
HETATM   27  H8  UNK     1      32.320  -2.725  35.852  1.00  0.00     0.158 HD
HETATM   28  H9  UNK     1      31.366  -3.125  37.271  1.00  0.00     0.158 HD
ENDBRANCH  23  26
BRANCH  24  29
HETATM   29  C12 UNK     1      32.954  -5.602  37.995  1.00  0.00     0.250 C 
HETATM   30  O4  UNK     1      32.417  -4.996  38.912  1.00  0.00    -0.268 OA
HETATM   31  N2  UNK     1      34.195  -6.184  38.042  1.00  0.00    -0.366 N 
HETATM   32  H12 UNK     1      34.760  -6.137  38.885  1.00  0.00     0.159 HD
HETATM   33  H13 UNK     1      34.599  -6.678  37.253  1.00  0.00     0.159 HD
ENDBRANCH  24  29
ENDBRANCH   8  11
ENDBRANCH   4   5
ENDBRANCH   2   4
TORSDOF 5
ENDMDL
MODEL 8
REMARK VINA RESULT:      -7.7      3.091      4.755
REMARK  5 active torsions:
REMARK  status: ('A' for Active; 'I' for Inactive)
REMARK    1  A    between atoms: C17_25  and  O5_5 
REMARK    2  A    between atoms: C20_28  and  O5_5 
REMARK    3  A    between atoms: C7_15  and  N1_6 
REMARK       I    between atoms: C12_20  and  N2_7 
REMARK    4  A    between atoms: C1_9  and  C4_12 
REMARK    5  A    between atoms: C12_20  and  C3_11 
ROOT
HETATM    1  N3  UNK     1      28.574 -10.368  28.321  1.00  0.00    -0.195 NA
HETATM    2  C20 UNK     1      30.463 -11.638  29.626  1.00  0.00     0.299 C 
HETATM    3  C21 UNK     1      29.410 -10.929  28.897  1.00  0.00     0.085 C 
ENDROOT
BRANCH   2   4
HETATM    4  O5  UNK     1      31.739 -11.067  29.338  1.00  0.00    -0.338 OA
BRANCH   4   5
HETATM    5  C17 UNK     1      32.166 -10.064  30.154  1.00  0.00     0.070 A 
HETATM    6  C14 UNK     1      32.227 -10.264  31.533  1.00  0.00     0.037 A 
HETATM    7  C10 UNK     1      32.666  -9.238  32.368  1.00  0.00     0.011 A 
HETATM    8  C4  UNK     1      33.040  -8.016  31.818  1.00  0.00    -0.044 A 
HETATM    9  C11 UNK     1      32.983  -7.809  30.445  1.00  0.00     0.011 A 
HETATM   10  C15 UNK     1      32.544  -8.836  29.610  1.00  0.00     0.037 A 
BRANCH   8  11
HETATM   11  C1  UNK     1      33.511  -6.910  32.718  1.00  0.00     0.103 C 
HETATM   12  C2  UNK     1      32.500  -6.662  33.822  1.00  0.00     0.066 A 
HETATM   13  C5  UNK     1      32.804  -6.940  35.100  1.00  0.00     0.104 A 
HETATM   14  C8  UNK     1      31.182  -6.076  33.462  1.00  0.00     0.298 A 
HETATM   15  C6  UNK     1      31.830  -6.736  36.169  1.00  0.00     0.033 A 
HETATM   16  O1  UNK     1      34.035  -7.438  35.491  1.00  0.00    -0.292 OA
HETATM   17  C13 UNK     1      32.082  -7.031  37.514  1.00  0.00     0.017 A 
HETATM   18  C9  UNK     1      30.580  -6.227  35.832  1.00  0.00     0.092 A 
HETATM   19  C18 UNK     1      31.097  -6.814  38.484  1.00  0.00     0.001 A 
HETATM   20  C19 UNK     1      29.851  -6.304  38.119  1.00  0.00     0.003 A 
HETATM   21  C16 UNK     1      29.586  -6.006  36.787  1.00  0.00     0.038 A 
HETATM   22  O2  UNK     1      30.270  -5.906  34.497  1.00  0.00    -0.274 OA
HETATM   23  C7  UNK     1      35.096  -7.489  34.584  1.00  0.00     0.154 C 
HETATM   24  C3  UNK     1      34.886  -7.236  33.275  1.00  0.00     0.073 C 
HETATM   25  O3  UNK     1      30.902  -5.759  32.311  1.00  0.00    -0.259 OA
BRANCH  23  26
HETATM   26  N1  UNK     1      36.290  -7.804  35.169  1.00  0.00    -0.379 N 
HETATM   27  H8  UNK     1      36.426  -7.596  36.150  1.00  0.00     0.158 HD
HETATM   28  H9  UNK     1      37.027  -8.240  34.631  1.00  0.00     0.158 HD
ENDBRANCH  23  26
BRANCH  24  29
HETATM   29  C12 UNK     1      36.002  -7.235  32.311  1.00  0.00     0.250 C 
HETATM   30  O4  UNK     1      36.687  -8.232  32.131  1.00  0.00    -0.268 OA
HETATM   31  N2  UNK     1      36.162  -6.030  31.676  1.00  0.00    -0.366 N 
HETATM   32  H12 UNK     1      36.897  -5.899  30.988  1.00  0.00     0.159 HD
HETATM   33  H13 UNK     1      35.565  -5.229  31.861  1.00  0.00     0.159 HD
ENDBRANCH  24  29
ENDBRANCH   8  11
ENDBRANCH   4   5
ENDBRANCH   2   4
TORSDOF 5
ENDMDL
MODEL 9
REMARK VINA RESULT:      -7.6      2.615      3.042
REMARK  5 active torsions:
REMARK  status: ('A' for Active; 'I' for Inactive)
REMARK    1  A    between atoms: C17_25  and  O5_5 
REMARK    2  A    between atoms: C20_28  and  O5_5 
REMARK    3  A    between atoms: C7_15  and  N1_6 
REMARK       I    between atoms: C12_20  and  N2_7 
REMARK    4  A    between atoms: C1_9  and  C4_12 
REMARK    5  A    between atoms: C12_20  and  C3_11 
ROOT
HETATM    1  N3  UNK     1      31.395  -9.150  27.666  1.00  0.00    -0.195 NA
HETATM    2  C20 UNK     1      29.563 -10.377  29.088  1.00  0.00     0.299 C 
HETATM    3  C21 UNK     1      30.585  -9.692  28.295  1.00  0.00     0.085 C 
ENDROOT
BRANCH   2   4
HETATM    4  O5  UNK     1      28.671  -9.430  29.674  1.00  0.00    -0.338 OA
BRANCH   4   5
HETATM    5  C17 UNK     1      29.047  -8.876  30.860  1.00  0.00     0.070 A 
HETATM    6  C14 UNK     1      29.068  -7.489  31.006  1.00  0.00     0.037 A 
HETATM    7  C10 UNK     1      29.452  -6.921  32.220  1.00  0.00     0.011 A 
HETATM    8  C4  UNK     1      29.814  -7.745  33.281  1.00  0.00    -0.044 A 
HETATM    9  C11 UNK     1      29.796  -9.129  33.143  1.00  0.00     0.011 A 
HETATM   10  C15 UNK     1      29.412  -9.696  31.929  1.00  0.00     0.037 A 
BRANCH   8  11
HETATM   11  C1  UNK     1      30.230  -7.134  34.587  1.00  0.00     0.103 C 
HETATM   12  C2  UNK     1      29.318  -7.607  35.705  1.00  0.00     0.066 A 
HETATM   13  C5  UNK     1      29.789  -8.401  36.679  1.00  0.00     0.104 A 
HETATM   14  C8  UNK     1      27.904  -7.148  35.713  1.00  0.00     0.298 A 
HETATM   15  C6  UNK     1      28.916  -8.890  37.743  1.00  0.00     0.033 A 
HETATM   16  O1  UNK     1      31.109  -8.813  36.744  1.00  0.00    -0.292 OA
HETATM   17  C13 UNK     1      29.346  -9.738  38.770  1.00  0.00     0.017 A 
HETATM   18  C9  UNK     1      27.581  -8.496  37.732  1.00  0.00     0.092 A 
HETATM   19  C18 UNK     1      28.450 -10.171  39.754  1.00  0.00     0.001 A 
HETATM   20  C19 UNK     1      27.116  -9.763  39.719  1.00  0.00     0.003 A 
HETATM   21  C16 UNK     1      26.675  -8.920  38.705  1.00  0.00     0.038 A 
HETATM   22  O2  UNK     1      27.093  -7.639  36.729  1.00  0.00    -0.274 OA
HETATM   23  C7  UNK     1      32.066  -8.254  35.893  1.00  0.00     0.154 C 
HETATM   24  C3  UNK     1      31.686  -7.452  34.876  1.00  0.00     0.073 C 
HETATM   25  O3  UNK     1      27.465  -6.375  34.867  1.00  0.00    -0.259 OA
BRANCH  23  26
HETATM   26  N1  UNK     1      33.346  -8.606  36.217  1.00  0.00    -0.379 N 
HETATM   27  H8  UNK     1      33.758  -9.417  35.775  1.00  0.00     0.158 HD
HETATM   28  H9  UNK     1      33.875  -8.062  36.886  1.00  0.00     0.158 HD
ENDBRANCH  23  26
BRANCH  24  29
HETATM   29  C12 UNK     1      32.684  -6.812  33.999  1.00  0.00     0.250 C 
HETATM   30  O4  UNK     1      33.304  -7.457  33.164  1.00  0.00    -0.268 OA
HETATM   31  N2  UNK     1      32.819  -5.467  34.231  1.00  0.00    -0.366 N 
HETATM   32  H12 UNK     1      33.475  -4.910  33.692  1.00  0.00     0.159 HD
HETATM   33  H13 UNK     1      32.279  -4.975  34.937  1.00  0.00     0.159 HD
ENDBRANCH  24  29
ENDBRANCH   8  11
ENDBRANCH   4   5
ENDBRANCH   2   4
TORSDOF 5
ENDMDL
MODEL 10
REMARK VINA RESULT:      -7.6     15.915     18.076
REMARK  5 active torsions:
REMARK  status: ('A' for Active; 'I' for Inactive)
REMARK    1  A    between atoms: C17_25  and  O5_5 
REMARK    2  A    between atoms: C20_28  and  O5_5 
REMARK    3  A    between atoms: C7_15  and  N1_6 
REMARK       I    between atoms: C12_20  and  N2_7 
REMARK    4  A    between atoms: C1_9  and  C4_12 
REMARK    5  A    between atoms: C12_20  and  C3_11 
ROOT
HETATM    1  N3  UNK     1      18.172  12.062  34.121  1.00  0.00    -0.195 NA
HETATM    2  C20 UNK     1      16.346  10.184  34.262  1.00  0.00     0.299 C 
HETATM    3  C21 UNK     1      17.365  11.231  34.183  1.00  0.00     0.085 C 
ENDROOT
BRANCH   2   4
HETATM    4  O5  UNK     1      16.714   9.202  35.229  1.00  0.00    -0.338 OA
BRANCH   4   5
HETATM    5  C17 UNK     1      17.315   8.071  34.766  1.00  0.00     0.070 A 
HETATM    6  C14 UNK     1      18.703   8.023  34.634  1.00  0.00     0.037 A 
HETATM    7  C10 UNK     1      19.318   6.865  34.160  1.00  0.00     0.011 A 
HETATM    8  C4  UNK     1      18.542   5.762  33.820  1.00  0.00    -0.044 A 
HETATM    9  C11 UNK     1      17.158   5.803  33.949  1.00  0.00     0.011 A 
HETATM   10  C15 UNK     1      16.542   6.961  34.422  1.00  0.00     0.037 A 
BRANCH   8  11
HETATM   11  C1  UNK     1      19.204   4.516  33.309  1.00  0.00     0.103 C 
HETATM   12  C2  UNK     1      18.928   3.351  34.241  1.00  0.00     0.066 A 
HETATM   13  C5  UNK     1      18.166   2.321  33.839  1.00  0.00     0.104 A 
HETATM   14  C8  UNK     1      19.544   3.361  35.594  1.00  0.00     0.298 A 
HETATM   15  C6  UNK     1      17.866   1.209  34.736  1.00  0.00     0.033 A 
HETATM   16  O1  UNK     1      17.614   2.242  32.572  1.00  0.00    -0.292 OA
HETATM   17  C13 UNK     1      17.060   0.122  34.379  1.00  0.00     0.017 A 
HETATM   18  C9  UNK     1      18.407   1.233  36.018  1.00  0.00     0.092 A 
HETATM   19  C18 UNK     1      16.811  -0.907  35.295  1.00  0.00     0.001 A 
HETATM   20  C19 UNK     1      17.363  -0.858  36.575  1.00  0.00     0.003 A 
HETATM   21  C16 UNK     1      18.167   0.216  36.943  1.00  0.00     0.038 A 
HETATM   22  O2  UNK     1      19.230   2.296  36.431  1.00  0.00    -0.274 OA
HETATM   23  C7  UNK     1      17.991   3.149  31.579  1.00  0.00     0.154 C 
HETATM   24  C3  UNK     1      18.748   4.223  31.890  1.00  0.00     0.073 C 
HETATM   25  O3  UNK     1      20.291   4.261  35.964  1.00  0.00    -0.259 OA
BRANCH  23  26
HETATM   26  N1  UNK     1      17.524   2.817  30.339  1.00  0.00    -0.379 N 
HETATM   27  H8  UNK     1      17.680   1.880  29.991  1.00  0.00     0.158 HD
HETATM   28  H9  UNK     1      17.028   3.496  29.777  1.00  0.00     0.158 HD
ENDBRANCH  23  26
BRANCH  24  29
HETATM   29  C12 UNK     1      19.198   5.164  30.848  1.00  0.00     0.250 C 
HETATM   30  O4  UNK     1      18.398   5.755  30.135  1.00  0.00    -0.268 OA
HETATM   31  N2  UNK     1      20.563   5.284  30.787  1.00  0.00    -0.366 N 
HETATM   32  H12 UNK     1      21.001   5.902  30.110  1.00  0.00     0.159 HD
HETATM   33  H13 UNK     1      21.187   4.772  31.403  1.00  0.00     0.159 HD
ENDBRANCH  24  29
ENDBRANCH   8  11
ENDBRANCH   4   5
ENDBRANCH   2   4
TORSDOF 5
ENDMDL
