MODEL 1
REMARK VINA RESULT:      -8.2      0.000      0.000
REMARK  2 active torsions:
REMARK  status: ('A' for Active; 'I' for Inactive)
REMARK    1  A    between atoms: C11_14  and  O3_3 
REMARK    2  A    between atoms: C1_4  and  C3_6 
ROOT
HETATM    1  O1  UNK     1      18.678  -0.304  32.932  1.00  0.00    -0.340 OA
HETATM    2  O2  UNK     1      18.878   2.875  30.346  1.00  0.00    -0.292 OA
HETATM    3  C1  UNK     1      18.692   1.044  33.426  1.00  0.00     0.169 C 
HETATM    4  C2  UNK     1      18.052   2.002  32.423  1.00  0.00     0.121 C 
HETATM    5  C4  UNK     1      19.409   0.620  30.796  1.00  0.00     0.043 A 
HETATM    6  C5  UNK     1      18.809   1.929  31.123  1.00  0.00     0.165 C 
HETATM    7  C6  UNK     1      19.289  -0.431  31.711  1.00  0.00     0.086 A 
HETATM    8  C7  UNK     1      20.050   0.418  29.571  1.00  0.00     0.021 A 
HETATM    9  C8  UNK     1      19.782  -1.695  31.385  1.00  0.00     0.074 A 
HETATM   10  C11 UNK     1      20.422  -1.898  30.162  1.00  0.00     0.068 A 
HETATM   11  C12 UNK     1      20.560  -0.842  29.259  1.00  0.00     0.037 A 
ENDROOT
BRANCH   3  12
HETATM   12  C3  UNK     1      17.960   1.075  34.752  1.00  0.00    -0.029 A 
HETATM   13  C10 UNK     1      16.701   0.488  34.868  1.00  0.00     0.010 A 
HETATM   14  C14 UNK     1      16.028   0.515  36.089  1.00  0.00     0.001 A 
HETATM   15  C15 UNK     1      16.615   1.131  37.195  1.00  0.00     0.000 A 
HETATM   16  C13 UNK     1      17.875   1.719  37.079  1.00  0.00     0.001 A 
HETATM   17  C9  UNK     1      18.547   1.691  35.857  1.00  0.00     0.010 A 
ENDBRANCH   3  12
BRANCH  10  18
HETATM   18  O3  UNK     1      20.913  -3.128  29.848  1.00  0.00    -0.361 OA
HETATM   19  H12 UNK     1      21.882  -3.109  29.921  1.00  0.00     0.217 HD
ENDBRANCH  10  18
TORSDOF 2
ENDMDL
MODEL 2
REMARK VINA RESULT:      -8.2      1.735      3.118
REMARK  2 active torsions:
REMARK  status: ('A' for Active; 'I' for Inactive)
REMARK    1  A    between atoms: C11_14  and  O3_3 
REMARK    2  A    between atoms: C1_4  and  C3_6 
ROOT
HETATM    1  O1  UNK     1      19.059  -0.084  33.076  1.00  0.00    -0.340 OA
HETATM    2  O2  UNK     1      21.197  -3.535  32.481  1.00  0.00    -0.292 OA
HETATM    3  C1  UNK     1      18.897  -1.208  33.955  1.00  0.00     0.169 C 
HETATM    4  C2  UNK     1      20.187  -2.022  34.046  1.00  0.00     0.121 C 
HETATM    5  C4  UNK     1      20.185  -1.618  31.548  1.00  0.00     0.043 A 
HETATM    6  C5  UNK     1      20.563  -2.503  32.669  1.00  0.00     0.165 C 
HETATM    7  C6  UNK     1      19.472  -0.444  31.819  1.00  0.00     0.086 A 
HETATM    8  C7  UNK     1      20.570  -1.923  30.241  1.00  0.00     0.021 A 
HETATM    9  C8  UNK     1      19.175   0.441  30.783  1.00  0.00     0.074 A 
HETATM   10  C11 UNK     1      19.559   0.138  29.477  1.00  0.00     0.068 A 
HETATM   11  C12 UNK     1      20.251  -1.044  29.206  1.00  0.00     0.037 A 
ENDROOT
BRANCH   3  12
HETATM   12  C3  UNK     1      18.480  -0.694  35.317  1.00  0.00    -0.029 A 
HETATM   13  C10 UNK     1      18.245  -1.590  36.358  1.00  0.00     0.010 A 
HETATM   14  C14 UNK     1      17.861  -1.117  37.613  1.00  0.00     0.001 A 
HETATM   15  C15 UNK     1      17.712   0.253  37.825  1.00  0.00     0.000 A 
HETATM   16  C13 UNK     1      17.947   1.150  36.782  1.00  0.00     0.001 A 
HETATM   17  C9  UNK     1      18.331   0.676  35.528  1.00  0.00     0.010 A 
ENDBRANCH   3  12
BRANCH  10  18
HETATM   18  O3  UNK     1      19.260   0.997  28.463  1.00  0.00    -0.361 OA
HETATM   19  H12 UNK     1      19.882   1.744  28.489  1.00  0.00     0.217 HD
ENDBRANCH  10  18
TORSDOF 2
ENDMDL
MODEL 3
REMARK VINA RESULT:      -8.1     23.835     25.965
REMARK  2 active torsions:
REMARK  status: ('A' for Active; 'I' for Inactive)
REMARK    1  A    between atoms: C11_14  and  O3_3 
REMARK    2  A    between atoms: C1_4  and  C3_6 
ROOT
HETATM    1  O1  UNK     1      13.332   7.503   8.652  1.00  0.00    -0.340 OA
HETATM    2  O2  UNK     1      15.495   4.181   9.708  1.00  0.00    -0.292 OA
HETATM    3  C1  UNK     1      13.115   6.246   7.992  1.00  0.00     0.169 C 
HETATM    4  C2  UNK     1      13.409   5.077   8.930  1.00  0.00     0.121 C 
HETATM    5  C4  UNK     1      15.392   6.531   9.524  1.00  0.00     0.043 A 
HETATM    6  C5  UNK     1      14.839   5.168   9.395  1.00  0.00     0.165 C 
HETATM    7  C6  UNK     1      14.597   7.625   9.165  1.00  0.00     0.086 A 
HETATM    8  C7  UNK     1      16.675   6.731  10.038  1.00  0.00     0.021 A 
HETATM    9  C8  UNK     1      15.075   8.922   9.354  1.00  0.00     0.074 A 
HETATM   10  C11 UNK     1      16.356   9.123   9.867  1.00  0.00     0.068 A 
HETATM   11  C12 UNK     1      17.157   8.031  10.204  1.00  0.00     0.037 A 
ENDROOT
BRANCH   3  12
HETATM   12  C3  UNK     1      11.683   6.204   7.501  1.00  0.00    -0.029 A 
HETATM   13  C10 UNK     1      10.633   6.149   8.416  1.00  0.00     0.010 A 
HETATM   14  C14 UNK     1       9.314   6.111   7.964  1.00  0.00     0.001 A 
HETATM   15  C15 UNK     1       9.046   6.128   6.596  1.00  0.00     0.000 A 
HETATM   16  C13 UNK     1      10.097   6.182   5.679  1.00  0.00     0.001 A 
HETATM   17  C9  UNK     1      11.415   6.221   6.132  1.00  0.00     0.010 A 
ENDBRANCH   3  12
BRANCH  10  18
HETATM   18  O3  UNK     1      16.828  10.389  10.041  1.00  0.00    -0.361 OA
HETATM   19  H12 UNK     1      16.349  10.988   9.444  1.00  0.00     0.217 HD
ENDBRANCH  10  18
TORSDOF 2
ENDMDL
MODEL 4
REMARK VINA RESULT:      -8.1      2.686      6.082
REMARK  2 active torsions:
REMARK  status: ('A' for Active; 'I' for Inactive)
REMARK    1  A    between atoms: C11_14  and  O3_3 
REMARK    2  A    between atoms: C1_4  and  C3_6 
ROOT
HETATM    1  O1  UNK     1      19.795  -1.553  33.731  1.00  0.00    -0.340 OA
HETATM    2  O2  UNK     1      17.142   1.203  35.214  1.00  0.00    -0.292 OA
HETATM    3  C1  UNK     1      18.858  -0.897  32.864  1.00  0.00     0.169 C 
HETATM    4  C2  UNK     1      18.521   0.501  33.379  1.00  0.00     0.121 C 
HETATM    5  C4  UNK     1      18.440  -0.732  35.587  1.00  0.00     0.043 A 
HETATM    6  C5  UNK     1      17.939   0.387  34.764  1.00  0.00     0.165 C 
HETATM    7  C6  UNK     1      19.359  -1.628  35.029  1.00  0.00     0.086 A 
HETATM    8  C7  UNK     1      18.038  -0.872  36.916  1.00  0.00     0.021 A 
HETATM    9  C8  UNK     1      19.901  -2.645  35.816  1.00  0.00     0.074 A 
HETATM   10  C11 UNK     1      19.501  -2.785  37.144  1.00  0.00     0.068 A 
HETATM   11  C12 UNK     1      18.567  -1.904  37.692  1.00  0.00     0.037 A 
ENDROOT
BRANCH   3  12
HETATM   12  C3  UNK     1      19.455  -0.836  31.473  1.00  0.00    -0.029 A 
HETATM   13  C10 UNK     1      20.028  -1.974  30.910  1.00  0.00     0.010 A 
HETATM   14  C14 UNK     1      20.577  -1.918  29.628  1.00  0.00     0.001 A 
HETATM   15  C15 UNK     1      20.552  -0.722  28.912  1.00  0.00     0.000 A 
HETATM   16  C13 UNK     1      19.978   0.418  29.475  1.00  0.00     0.001 A 
HETATM   17  C9  UNK     1      19.429   0.360  30.756  1.00  0.00     0.010 A 
ENDBRANCH   3  12
BRANCH  10  18
HETATM   18  O3  UNK     1      20.021  -3.784  37.909  1.00  0.00    -0.361 OA
HETATM   19  H12 UNK     1      20.893  -3.506  38.240  1.00  0.00     0.217 HD
ENDBRANCH  10  18
TORSDOF 2
ENDMDL
MODEL 5
REMARK VINA RESULT:      -7.9     12.787     16.636
REMARK  2 active torsions:
REMARK  status: ('A' for Active; 'I' for Inactive)
REMARK    1  A    between atoms: C11_14  and  O3_3 
REMARK    2  A    between atoms: C1_4  and  C3_6 
ROOT
HETATM    1  O1  UNK     1      19.370  -1.089  17.652  1.00  0.00    -0.340 OA
HETATM    2  O2  UNK     1      19.102   2.360  15.447  1.00  0.00    -0.292 OA
HETATM    3  C1  UNK     1      18.798  -1.103  16.335  1.00  0.00     0.169 C 
HETATM    4  C2  UNK     1      19.419  -0.018  15.456  1.00  0.00     0.121 C 
HETATM    5  C4  UNK     1      19.144   1.338  17.574  1.00  0.00     0.043 A 
HETATM    6  C5  UNK     1      19.188   1.325  16.098  1.00  0.00     0.165 C 
HETATM    7  C6  UNK     1      19.260   0.130  18.269  1.00  0.00     0.086 A 
HETATM    8  C7  UNK     1      19.030   2.544  18.270  1.00  0.00     0.021 A 
HETATM    9  C8  UNK     1      19.297   0.133  19.664  1.00  0.00     0.074 A 
HETATM   10  C11 UNK     1      19.185   1.336  20.360  1.00  0.00     0.068 A 
HETATM   11  C12 UNK     1      19.047   2.538  19.665  1.00  0.00     0.037 A 
ENDROOT
BRANCH   3  12
HETATM   12  C3  UNK     1      19.009  -2.477  15.735  1.00  0.00    -0.029 A 
HETATM   13  C10 UNK     1      17.955  -3.130  15.098  1.00  0.00     0.010 A 
HETATM   14  C14 UNK     1      18.151  -4.396  14.545  1.00  0.00     0.001 A 
HETATM   15  C15 UNK     1      19.401  -5.008  14.630  1.00  0.00     0.000 A 
HETATM   16  C13 UNK     1      20.456  -4.355  15.268  1.00  0.00     0.001 A 
HETATM   17  C9  UNK     1      20.260  -3.089  15.820  1.00  0.00     0.010 A 
ENDBRANCH   3  12
BRANCH  10  18
HETATM   18  O3  UNK     1      19.211   1.338  21.722  1.00  0.00    -0.361 OA
HETATM   19  H12 UNK     1      18.955   0.457  22.043  1.00  0.00     0.217 HD
ENDBRANCH  10  18
TORSDOF 2
ENDMDL
MODEL 6
REMARK VINA RESULT:      -7.9     23.548     26.207
REMARK  2 active torsions:
REMARK  status: ('A' for Active; 'I' for Inactive)
REMARK    1  A    between atoms: C11_14  and  O3_3 
REMARK    2  A    between atoms: C1_4  and  C3_6 
ROOT
HETATM    1  O1  UNK     1      11.361   7.709   9.408  1.00  0.00    -0.340 OA
HETATM    2  O2  UNK     1      12.004   6.205   5.645  1.00  0.00    -0.292 OA
HETATM    3  C1  UNK     1      12.565   6.987   9.102  1.00  0.00     0.169 C 
HETATM    4  C2  UNK     1      12.949   7.160   7.633  1.00  0.00     0.121 C 
HETATM    5  C4  UNK     1      10.461   6.817   7.323  1.00  0.00     0.043 A 
HETATM    6  C5  UNK     1      11.821   6.660   6.768  1.00  0.00     0.165 C 
HETATM    7  C6  UNK     1      10.308   7.355   8.606  1.00  0.00     0.086 A 
HETATM    8  C7  UNK     1       9.341   6.474   6.564  1.00  0.00     0.021 A 
HETATM    9  C8  UNK     1       9.028   7.581   9.114  1.00  0.00     0.074 A 
HETATM   10  C11 UNK     1       7.908   7.240   8.356  1.00  0.00     0.068 A 
HETATM   11  C12 UNK     1       8.064   6.683   7.086  1.00  0.00     0.037 A 
ENDROOT
BRANCH   3  12
HETATM   12  C3  UNK     1      13.666   7.483  10.015  1.00  0.00    -0.029 A 
HETATM   13  C10 UNK     1      13.442   8.580  10.846  1.00  0.00     0.010 A 
HETATM   14  C14 UNK     1      14.456   9.036  11.688  1.00  0.00     0.001 A 
HETATM   15  C15 UNK     1      15.694   8.395  11.698  1.00  0.00     0.000 A 
HETATM   16  C13 UNK     1      15.919   7.297  10.866  1.00  0.00     0.001 A 
HETATM   17  C9  UNK     1      14.904   6.842  10.025  1.00  0.00     0.010 A 
ENDBRANCH   3  12
BRANCH  10  18
HETATM   18  O3  UNK     1       6.659   7.451   8.856  1.00  0.00    -0.361 OA
HETATM   19  H12 UNK     1       6.393   6.674   9.376  1.00  0.00     0.217 HD
ENDBRANCH  10  18
TORSDOF 2
ENDMDL
MODEL 7
REMARK VINA RESULT:      -7.7      7.034      9.825
REMARK  2 active torsions:
REMARK  status: ('A' for Active; 'I' for Inactive)
REMARK    1  A    between atoms: C11_14  and  O3_3 
REMARK    2  A    between atoms: C1_4  and  C3_6 
ROOT
HETATM    1  O1  UNK     1      17.633   8.502  32.942  1.00  0.00    -0.340 OA
HETATM    2  O2  UNK     1      13.976   6.926  31.953  1.00  0.00    -0.292 OA
HETATM    3  C1  UNK     1      17.503   7.117  32.587  1.00  0.00     0.169 C 
HETATM    4  C2  UNK     1      16.351   6.908  31.606  1.00  0.00     0.121 C 
HETATM    5  C4  UNK     1      15.205   8.526  33.178  1.00  0.00     0.043 A 
HETATM    6  C5  UNK     1      15.073   7.394  32.238  1.00  0.00     0.165 C 
HETATM    7  C6  UNK     1      16.479   9.031  33.459  1.00  0.00     0.086 A 
HETATM    8  C7  UNK     1      14.072   9.114  33.745  1.00  0.00     0.021 A 
HETATM    9  C8  UNK     1      16.615  10.149  34.283  1.00  0.00     0.074 A 
HETATM   10  C11 UNK     1      15.485  10.737  34.850  1.00  0.00     0.068 A 
HETATM   11  C12 UNK     1      14.217  10.218  34.586  1.00  0.00     0.037 A 
ENDROOT
BRANCH   3  12
HETATM   12  C3  UNK     1      18.816   6.649  31.994  1.00  0.00    -0.029 A 
HETATM   13  C10 UNK     1      18.871   6.230  30.666  1.00  0.00     0.010 A 
HETATM   14  C14 UNK     1      20.080   5.800  30.119  1.00  0.00     0.001 A 
HETATM   15  C15 UNK     1      21.234   5.791  30.902  1.00  0.00     0.000 A 
HETATM   16  C13 UNK     1      21.179   6.210  32.232  1.00  0.00     0.001 A 
HETATM   17  C9  UNK     1      19.970   6.640  32.777  1.00  0.00     0.010 A 
ENDBRANCH   3  12
BRANCH  10  18
HETATM   18  O3  UNK     1      15.618  11.821  35.663  1.00  0.00    -0.361 OA
HETATM   19  H12 UNK     1      15.065  12.543  35.319  1.00  0.00     0.217 HD
ENDBRANCH  10  18
TORSDOF 2
ENDMDL
MODEL 8
REMARK VINA RESULT:      -7.7      7.038      9.881
REMARK  2 active torsions:
REMARK  status: ('A' for Active; 'I' for Inactive)
REMARK    1  A    between atoms: C11_14  and  O3_3 
REMARK    2  A    between atoms: C1_4  and  C3_6 
ROOT
HETATM    1  O1  UNK     1      17.631   8.507  32.944  1.00  0.00    -0.340 OA
HETATM    2  O2  UNK     1      13.974   6.929  31.956  1.00  0.00    -0.292 OA
HETATM    3  C1  UNK     1      17.501   7.122  32.588  1.00  0.00     0.169 C 
HETATM    4  C2  UNK     1      16.349   6.913  31.607  1.00  0.00     0.121 C 
HETATM    5  C4  UNK     1      15.203   8.529  33.181  1.00  0.00     0.043 A 
HETATM    6  C5  UNK     1      15.071   7.398  32.241  1.00  0.00     0.165 C 
HETATM    7  C6  UNK     1      16.477   9.035  33.462  1.00  0.00     0.086 A 
HETATM    8  C7  UNK     1      14.070   9.116  33.750  1.00  0.00     0.021 A 
HETATM    9  C8  UNK     1      16.613  10.152  34.287  1.00  0.00     0.074 A 
HETATM   10  C11 UNK     1      15.483  10.740  34.855  1.00  0.00     0.068 A 
HETATM   11  C12 UNK     1      14.215  10.220  34.591  1.00  0.00     0.037 A 
ENDROOT
BRANCH   3  12
HETATM   12  C3  UNK     1      18.814   6.655  31.993  1.00  0.00    -0.029 A 
HETATM   13  C10 UNK     1      19.968   6.644  32.774  1.00  0.00     0.010 A 
HETATM   14  C14 UNK     1      21.177   6.214  32.227  1.00  0.00     0.001 A 
HETATM   15  C15 UNK     1      21.229   5.795  30.898  1.00  0.00     0.000 A 
HETATM   16  C13 UNK     1      20.074   5.806  30.116  1.00  0.00     0.001 A 
HETATM   17  C9  UNK     1      18.866   6.236  30.664  1.00  0.00     0.010 A 
ENDBRANCH   3  12
BRANCH  10  18
HETATM   18  O3  UNK     1      15.616  11.823  35.669  1.00  0.00    -0.361 OA
HETATM   19  H12 UNK     1      15.582  12.630  35.127  1.00  0.00     0.217 HD
ENDBRANCH  10  18
TORSDOF 2
ENDMDL
MODEL 9
REMARK VINA RESULT:      -7.7      2.867      3.449
REMARK  2 active torsions:
REMARK  status: ('A' for Active; 'I' for Inactive)
REMARK    1  A    between atoms: C11_14  and  O3_3 
REMARK    2  A    between atoms: C1_4  and  C3_6 
ROOT
HETATM    1  O1  UNK     1      17.705   2.116  32.749  1.00  0.00    -0.340 OA
HETATM    2  O2  UNK     1      19.158   5.931  33.154  1.00  0.00    -0.292 OA
HETATM    3  C1  UNK     1      18.386   2.518  33.948  1.00  0.00     0.169 C 
HETATM    4  C2  UNK     1      18.189   4.010  34.215  1.00  0.00     0.121 C 
HETATM    5  C4  UNK     1      18.609   4.136  31.723  1.00  0.00     0.043 A 
HETATM    6  C5  UNK     1      18.718   4.793  33.042  1.00  0.00     0.165 C 
HETATM    7  C6  UNK     1      18.086   2.840  31.650  1.00  0.00     0.086 A 
HETATM    8  C7  UNK     1      18.981   4.813  30.560  1.00  0.00     0.021 A 
HETATM    9  C8  UNK     1      17.904   2.235  30.406  1.00  0.00     0.074 A 
HETATM   10  C11 UNK     1      18.275   2.910  29.243  1.00  0.00     0.068 A 
HETATM   11  C12 UNK     1      18.817   4.194  29.320  1.00  0.00     0.037 A 
ENDROOT
BRANCH   3  12
HETATM   12  C3  UNK     1      17.862   1.685  35.099  1.00  0.00    -0.029 A 
HETATM   13  C10 UNK     1      16.964   0.647  34.857  1.00  0.00     0.010 A 
HETATM   14  C14 UNK     1      16.483  -0.121  35.917  1.00  0.00     0.001 A 
HETATM   15  C15 UNK     1      16.901   0.150  37.219  1.00  0.00     0.000 A 
HETATM   16  C13 UNK     1      17.799   1.189  37.462  1.00  0.00     0.001 A 
HETATM   17  C9  UNK     1      18.280   1.956  36.402  1.00  0.00     0.010 A 
ENDBRANCH   3  12
BRANCH  10  18
HETATM   18  O3  UNK     1      18.108   2.316  28.030  1.00  0.00    -0.361 OA
HETATM   19  H12 UNK     1      18.792   1.635  27.915  1.00  0.00     0.217 HD
ENDBRANCH  10  18
TORSDOF 2
ENDMDL
MODEL 10
REMARK VINA RESULT:      -7.5     23.633     25.853
REMARK  2 active torsions:
REMARK  status: ('A' for Active; 'I' for Inactive)
REMARK    1  A    between atoms: C11_14  and  O3_3 
REMARK    2  A    between atoms: C1_4  and  C3_6 
ROOT
HETATM    1  O1  UNK     1      12.756   6.599   8.409  1.00  0.00    -0.340 OA
HETATM    2  O2  UNK     1      13.253   9.797  10.931  1.00  0.00    -0.292 OA
HETATM    3  C1  UNK     1      11.627   7.204   9.058  1.00  0.00     0.169 C 
HETATM    4  C2  UNK     1      11.872   8.690   9.310  1.00  0.00     0.121 C 
HETATM    5  C4  UNK     1      14.147   7.823   9.995  1.00  0.00     0.043 A 
HETATM    6  C5  UNK     1      13.098   8.847  10.171  1.00  0.00     0.165 C 
HETATM    7  C6  UNK     1      13.925   6.767   9.105  1.00  0.00     0.086 A 
HETATM    8  C7  UNK     1      15.363   7.929  10.674  1.00  0.00     0.021 A 
HETATM    9  C8  UNK     1      14.936   5.834   8.869  1.00  0.00     0.074 A 
HETATM   10  C11 UNK     1      16.151   5.939   9.546  1.00  0.00     0.068 A 
HETATM   11  C12 UNK     1      16.362   6.981  10.450  1.00  0.00     0.037 A 
ENDROOT
BRANCH   3  12
HETATM   12  C3  UNK     1      10.405   6.993   8.188  1.00  0.00    -0.029 A 
HETATM   13  C10 UNK     1      10.551   6.542   6.878  1.00  0.00     0.010 A 
HETATM   14  C14 UNK     1       9.426   6.346   6.077  1.00  0.00     0.001 A 
HETATM   15  C15 UNK     1       8.154   6.602   6.589  1.00  0.00     0.000 A 
HETATM   16  C13 UNK     1       8.007   7.054   7.901  1.00  0.00     0.001 A 
HETATM   17  C9  UNK     1       9.133   7.249   8.700  1.00  0.00     0.010 A 
ENDBRANCH   3  12
BRANCH  10  18
HETATM   18  O3  UNK     1      17.133   5.023   9.324  1.00  0.00    -0.361 OA
HETATM   19  H12 UNK     1      17.997   5.465   9.387  1.00  0.00     0.217 HD
ENDBRANCH  10  18
TORSDOF 2
ENDMDL
