MODEL 1
REMARK VINA RESULT:     -10.4      0.000      0.000
REMARK  8 active torsions:
REMARK  status: ('A' for Active; 'I' for Inactive)
REMARK    1  A    between atoms: C16_24  and  O1_2 
REMARK    2  A    between atoms: C23_31  and  O5_6 
REMARK    3  A    between atoms: C14_22  and  N1_8 
REMARK       I    between atoms: C17_25  and  N1_8 
REMARK    4  A    between atoms: C1_9  and  C2_10 
REMARK    5  A    between atoms: C2_10  and  C3_11 
REMARK    6  A    between atoms: C4_12  and  C5_13 
REMARK    7  A    between atoms: C10_18  and  C16_24 
REMARK    8  A    between atoms: C17_25  and  C18_26 
ROOT
HETATM    1  S1  UNK     1      17.963  -1.169  37.597  1.00  0.00    -0.075 SA
HETATM    2  C5  UNK     1      18.304   0.238  35.476  1.00  0.00     0.006 A 
HETATM    3  C10 UNK     1      18.784  -1.067  35.166  1.00  0.00     0.085 A 
HETATM    4  C13 UNK     1      17.830   0.322  36.766  1.00  0.00    -0.007 A 
HETATM    5  C14 UNK     1      18.651  -1.903  36.228  1.00  0.00     0.094 A 
HETATM    6  C15 UNK     1      17.250   1.483  37.483  1.00  0.00     0.057 C 
ENDROOT
BRANCH   5   7
HETATM    7  N1  UNK     1      18.985  -3.254  36.367  1.00  0.00    -0.316 N 
HETATM    8  C17 UNK     1      20.064  -3.761  37.076  1.00  0.00     0.262 C 
HETATM    9  O4  UNK     1      20.922  -3.148  37.709  1.00  0.00    -0.267 OA
HETATM   10  H17 UNK     1      18.364  -3.907  35.896  1.00  0.00     0.169 HD
BRANCH   8  11
HETATM   11  C18 UNK     1      20.118  -5.227  37.015  1.00  0.00     0.108 A 
HETATM   12  C20 UNK     1      20.046  -5.870  38.185  1.00  0.00     0.037 A 
HETATM   13  C19 UNK     1      20.092  -7.324  38.228  1.00  0.00     0.002 A 
HETATM   14  C21 UNK     1      20.213  -8.027  37.034  1.00  0.00     0.123 A 
HETATM   15  C24 UNK     1      20.017  -8.038  39.427  1.00  0.00     0.014 A 
HETATM   16  O2  UNK     1      20.291  -7.344  35.804  1.00  0.00    -0.271 OA
HETATM   17  C23 UNK     1      20.264  -9.420  37.004  1.00  0.00     0.102 A 
HETATM   18  C22 UNK     1      20.248  -5.954  35.733  1.00  0.00     0.304 A 
HETATM   19  O6  UNK     1      20.316  -5.368  34.659  1.00  0.00    -0.259 OA
HETATM   20  C25 UNK     1      20.189 -10.124  38.204  1.00  0.00     0.040 A 
HETATM   21  C26 UNK     1      20.066  -9.434  39.412  1.00  0.00     0.004 A 
BRANCH  17  22
HETATM   22  O5  UNK     1      20.384 -10.095  35.830  1.00  0.00    -0.353 OA
HETATM   23  C28 UNK     1      21.664 -10.649  35.527  1.00  0.00     0.210 C 
ENDBRANCH  17  22
ENDBRANCH   8  11
ENDBRANCH   5   7
BRANCH   3  24
HETATM   24  C16 UNK     1      19.343  -1.479  33.900  1.00  0.00     0.296 C 
HETATM   25  O3  UNK     1      18.716  -1.465  32.832  1.00  0.00    -0.259 OA
BRANCH  24  26
HETATM   26  O1  UNK     1      20.653  -1.896  33.979  1.00  0.00    -0.322 OA
HETATM   27  C27 UNK     1      21.205  -2.518  32.813  1.00  0.00     0.213 C 
ENDBRANCH  24  26
ENDBRANCH   3  24
BRANCH   2  28
HETATM   28  C4  UNK     1      18.284   1.387  34.604  1.00  0.00    -0.024 A 
HETATM   29  C11 UNK     1      18.532   2.654  35.123  1.00  0.00     0.013 A 
HETATM   30  C8  UNK     1      18.513   3.764  34.279  1.00  0.00     0.008 A 
HETATM   31  C3  UNK     1      18.246   3.603  32.920  1.00  0.00    -0.058 A 
HETATM   32  C9  UNK     1      17.998   2.330  32.404  1.00  0.00     0.008 A 
HETATM   33  C12 UNK     1      18.018   1.220  33.248  1.00  0.00     0.013 A 
BRANCH  31  34
HETATM   34  C2  UNK     1      18.224   4.789  32.017  1.00  0.00     0.042 C 
BRANCH  34  35
HETATM   35  C1  UNK     1      19.618   5.394  31.720  1.00  0.00    -0.019 C 
HETATM   36  C6  UNK     1      19.775   5.764  30.243  1.00  0.00     0.010 C 
HETATM   37  C7  UNK     1      19.860   6.630  32.591  1.00  0.00     0.010 C 
ENDBRANCH  34  35
ENDBRANCH  31  34
ENDBRANCH   2  28
TORSDOF 8
ENDMDL
MODEL 2
REMARK VINA RESULT:     -10.1      8.818     15.450
REMARK  8 active torsions:
REMARK  status: ('A' for Active; 'I' for Inactive)
REMARK    1  A    between atoms: C16_24  and  O1_2 
REMARK    2  A    between atoms: C23_31  and  O5_6 
REMARK    3  A    between atoms: C14_22  and  N1_8 
REMARK       I    between atoms: C17_25  and  N1_8 
REMARK    4  A    between atoms: C1_9  and  C2_10 
REMARK    5  A    between atoms: C2_10  and  C3_11 
REMARK    6  A    between atoms: C4_12  and  C5_13 
REMARK    7  A    between atoms: C10_18  and  C16_24 
REMARK    8  A    between atoms: C17_25  and  C18_26 
ROOT
HETATM    1  S1  UNK     1      19.575   8.469  34.024  1.00  0.00    -0.075 SA
HETATM    2  C5  UNK     1      18.641   6.683  32.432  1.00  0.00     0.006 A 
HETATM    3  C10 UNK     1      17.656   7.711  32.493  1.00  0.00     0.085 A 
HETATM    4  C13 UNK     1      19.735   6.968  33.218  1.00  0.00    -0.007 A 
HETATM    5  C14 UNK     1      18.050   8.718  33.315  1.00  0.00     0.094 A 
HETATM    6  C15 UNK     1      20.968   6.174  33.438  1.00  0.00     0.057 C 
ENDROOT
BRANCH   5   7
HETATM    7  N1  UNK     1      17.407   9.910  33.664  1.00  0.00    -0.316 N 
HETATM    8  C17 UNK     1      16.393  10.049  34.600  1.00  0.00     0.262 C 
HETATM    9  O4  UNK     1      15.866   9.181  35.295  1.00  0.00    -0.267 OA
HETATM   10  H17 UNK     1      17.729  10.739  33.171  1.00  0.00     0.169 HD
BRANCH   8  11
HETATM   11  C18 UNK     1      15.943  11.442  34.717  1.00  0.00     0.108 A 
HETATM   12  C20 UNK     1      14.620  11.634  34.755  1.00  0.00     0.037 A 
HETATM   13  C19 UNK     1      14.078  12.979  34.870  1.00  0.00     0.002 A 
HETATM   14  C21 UNK     1      14.957  14.055  34.939  1.00  0.00     0.123 A 
HETATM   15  C24 UNK     1      12.703  13.228  34.914  1.00  0.00     0.014 A 
HETATM   16  O2  UNK     1      16.349  13.846  34.897  1.00  0.00    -0.271 OA
HETATM   17  C23 UNK     1      14.503  15.368  35.049  1.00  0.00     0.102 A 
HETATM   18  C22 UNK     1      16.897  12.570  34.788  1.00  0.00     0.304 A 
HETATM   19  O6  UNK     1      18.110  12.397  34.754  1.00  0.00    -0.259 OA
HETATM   20  C25 UNK     1      13.131  15.608  35.092  1.00  0.00     0.040 A 
HETATM   21  C26 UNK     1      12.234  14.539  35.025  1.00  0.00     0.004 A 
BRANCH  17  22
HETATM   22  O5  UNK     1      15.374  16.411  35.114  1.00  0.00    -0.353 OA
HETATM   23  C28 UNK     1      15.621  16.971  36.404  1.00  0.00     0.210 C 
ENDBRANCH  17  22
ENDBRANCH   8  11
ENDBRANCH   5   7
BRANCH   3  24
HETATM   24  C16 UNK     1      16.398   7.714  31.786  1.00  0.00     0.296 C 
HETATM   25  O3  UNK     1      16.156   8.438  30.810  1.00  0.00    -0.259 OA
BRANCH  24  26
HETATM   26  O1  UNK     1      15.471   6.830  32.294  1.00  0.00    -0.322 OA
HETATM   27  C27 UNK     1      14.143   7.327  32.486  1.00  0.00     0.213 C 
ENDBRANCH  24  26
ENDBRANCH   3  24
BRANCH   2  28
HETATM   28  C4  UNK     1      18.575   5.461  31.667  1.00  0.00    -0.024 A 
HETATM   29  C11 UNK     1      18.040   4.313  32.244  1.00  0.00     0.013 A 
HETATM   30  C8  UNK     1      17.977   3.133  31.504  1.00  0.00     0.008 A 
HETATM   31  C3  UNK     1      18.449   3.105  30.192  1.00  0.00    -0.058 A 
HETATM   32  C9  UNK     1      18.984   4.259  29.619  1.00  0.00     0.008 A 
HETATM   33  C12 UNK     1      19.047   5.440  30.359  1.00  0.00     0.013 A 
BRANCH  31  34
HETATM   34  C2  UNK     1      18.382   1.843  29.400  1.00  0.00     0.042 C 
BRANCH  34  35
HETATM   35  C1  UNK     1      19.569   0.877  29.634  1.00  0.00    -0.019 C 
HETATM   36  C6  UNK     1      19.492   0.203  31.006  1.00  0.00     0.010 C 
HETATM   37  C7  UNK     1      19.613  -0.190  28.537  1.00  0.00     0.010 C 
ENDBRANCH  34  35
ENDBRANCH  31  34
ENDBRANCH   2  28
TORSDOF 8
ENDMDL
MODEL 3
REMARK VINA RESULT:      -9.8      8.905     15.516
REMARK  8 active torsions:
REMARK  status: ('A' for Active; 'I' for Inactive)
REMARK    1  A    between atoms: C16_24  and  O1_2 
REMARK    2  A    between atoms: C23_31  and  O5_6 
REMARK    3  A    between atoms: C14_22  and  N1_8 
REMARK       I    between atoms: C17_25  and  N1_8 
REMARK    4  A    between atoms: C1_9  and  C2_10 
REMARK    5  A    between atoms: C2_10  and  C3_11 
REMARK    6  A    between atoms: C4_12  and  C5_13 
REMARK    7  A    between atoms: C10_18  and  C16_24 
REMARK    8  A    between atoms: C17_25  and  C18_26 
ROOT
HETATM    1  S1  UNK     1      19.526   8.483  34.082  1.00  0.00    -0.075 SA
HETATM    2  C5  UNK     1      18.615   6.727  32.443  1.00  0.00     0.006 A 
HETATM    3  C10 UNK     1      17.616   7.739  32.532  1.00  0.00     0.085 A 
HETATM    4  C13 UNK     1      19.706   7.006  33.236  1.00  0.00    -0.007 A 
HETATM    5  C14 UNK     1      17.997   8.729  33.381  1.00  0.00     0.094 A 
HETATM    6  C15 UNK     1      20.950   6.224  33.434  1.00  0.00     0.057 C 
ENDROOT
BRANCH   5   7
HETATM    7  N1  UNK     1      17.338   9.902  33.762  1.00  0.00    -0.316 N 
HETATM    8  C17 UNK     1      16.189   9.981  34.535  1.00  0.00     0.262 C 
HETATM    9  O4  UNK     1      15.534   9.065  35.031  1.00  0.00    -0.267 OA
HETATM   10  H17 UNK     1      17.757  10.766  33.428  1.00  0.00     0.169 HD
BRANCH   8  11
HETATM   11  C18 UNK     1      15.763  11.370  34.744  1.00  0.00     0.108 A 
HETATM   12  C20 UNK     1      16.240  12.271  33.877  1.00  0.00     0.037 A 
HETATM   13  C19 UNK     1      15.876  13.673  34.001  1.00  0.00     0.002 A 
HETATM   14  C21 UNK     1      15.028  14.059  35.034  1.00  0.00     0.123 A 
HETATM   15  C24 UNK     1      16.348  14.648  33.118  1.00  0.00     0.014 A 
HETATM   16  O2  UNK     1      14.530  13.106  35.945  1.00  0.00    -0.271 OA
HETATM   17  C23 UNK     1      14.640  15.386  35.210  1.00  0.00     0.102 A 
HETATM   18  C22 UNK     1      14.861  11.757  35.850  1.00  0.00     0.304 A 
HETATM   19  O6  UNK     1      14.422  10.935  36.646  1.00  0.00    -0.259 OA
HETATM   20  C25 UNK     1      15.116  16.351  34.325  1.00  0.00     0.040 A 
HETATM   21  C26 UNK     1      15.968  15.982  33.281  1.00  0.00     0.004 A 
BRANCH  17  22
HETATM   22  O5  UNK     1      13.811  15.749  36.225  1.00  0.00    -0.353 OA
HETATM   23  C28 UNK     1      12.424  15.878  35.915  1.00  0.00     0.210 C 
ENDBRANCH  17  22
ENDBRANCH   8  11
ENDBRANCH   5   7
BRANCH   3  24
HETATM   24  C16 UNK     1      16.357   7.743  31.827  1.00  0.00     0.296 C 
HETATM   25  O3  UNK     1      16.098   8.500  30.881  1.00  0.00    -0.259 OA
BRANCH  24  26
HETATM   26  O1  UNK     1      15.450   6.820  32.300  1.00  0.00    -0.322 OA
HETATM   27  C27 UNK     1      14.073   7.213  32.307  1.00  0.00     0.213 C 
ENDBRANCH  24  26
ENDBRANCH   3  24
BRANCH   2  28
HETATM   28  C4  UNK     1      18.566   5.525  31.647  1.00  0.00    -0.024 A 
HETATM   29  C11 UNK     1      19.036   5.545  30.337  1.00  0.00     0.013 A 
HETATM   30  C8  UNK     1      18.988   4.383  29.567  1.00  0.00     0.008 A 
HETATM   31  C3  UNK     1      18.470   3.207  30.109  1.00  0.00    -0.058 A 
HETATM   32  C9  UNK     1      18.000   3.194  31.423  1.00  0.00     0.008 A 
HETATM   33  C12 UNK     1      18.049   4.355  32.193  1.00  0.00     0.013 A 
BRANCH  31  34
HETATM   34  C2  UNK     1      18.418   1.965  29.286  1.00  0.00     0.042 C 
BRANCH  34  35
HETATM   35  C1  UNK     1      19.598   0.990  29.522  1.00  0.00    -0.019 C 
HETATM   36  C6  UNK     1      19.592   0.425  30.944  1.00  0.00     0.010 C 
HETATM   37  C7  UNK     1      19.552  -0.157  28.509  1.00  0.00     0.010 C 
ENDBRANCH  34  35
ENDBRANCH  31  34
ENDBRANCH   2  28
TORSDOF 8
ENDMDL
MODEL 4
REMARK VINA RESULT:      -9.6     19.562     23.305
REMARK  8 active torsions:
REMARK  status: ('A' for Active; 'I' for Inactive)
REMARK    1  A    between atoms: C16_24  and  O1_2 
REMARK    2  A    between atoms: C23_31  and  O5_6 
REMARK    3  A    between atoms: C14_22  and  N1_8 
REMARK       I    between atoms: C17_25  and  N1_8 
REMARK    4  A    between atoms: C1_9  and  C2_10 
REMARK    5  A    between atoms: C2_10  and  C3_11 
REMARK    6  A    between atoms: C4_12  and  C5_13 
REMARK    7  A    between atoms: C10_18  and  C16_24 
REMARK    8  A    between atoms: C17_25  and  C18_26 
ROOT
HETATM    1  S1  UNK     1      20.390  -4.591  14.744  1.00  0.00    -0.075 SA
HETATM    2  C5  UNK     1      19.966  -4.358  12.222  1.00  0.00     0.006 A 
HETATM    3  C10 UNK     1      19.737  -3.068  12.781  1.00  0.00     0.085 A 
HETATM    4  C13 UNK     1      20.326  -5.280  13.179  1.00  0.00    -0.007 A 
HETATM    5  C14 UNK     1      19.935  -3.074  14.125  1.00  0.00     0.094 A 
HETATM    6  C15 UNK     1      20.649  -6.719  13.025  1.00  0.00     0.057 C 
ENDROOT
BRANCH   5   7
HETATM    7  N1  UNK     1      19.826  -2.044  15.064  1.00  0.00    -0.316 N 
HETATM    8  C17 UNK     1      18.732  -1.792  15.879  1.00  0.00     0.262 C 
HETATM    9  O4  UNK     1      17.666  -2.403  15.943  1.00  0.00    -0.267 OA
HETATM   10  H17 UNK     1      20.636  -1.434  15.138  1.00  0.00     0.169 HD
BRANCH   8  11
HETATM   11  C18 UNK     1      18.953  -0.630  16.748  1.00  0.00     0.108 A 
HETATM   12  C20 UNK     1      18.957  -0.869  18.064  1.00  0.00     0.037 A 
HETATM   13  C19 UNK     1      19.169   0.219  19.006  1.00  0.00     0.002 A 
HETATM   14  C21 UNK     1      19.364   1.506  18.515  1.00  0.00     0.123 A 
HETATM   15  C24 UNK     1      19.183   0.016  20.389  1.00  0.00     0.014 A 
HETATM   16  O2  UNK     1      19.356   1.752  17.128  1.00  0.00    -0.271 OA
HETATM   17  C23 UNK     1      19.570   2.593  19.363  1.00  0.00     0.102 A 
HETATM   18  C22 UNK     1      19.157   0.730  16.203  1.00  0.00     0.304 A 
HETATM   19  O6  UNK     1      19.153   0.953  14.997  1.00  0.00    -0.259 OA
HETATM   20  C25 UNK     1      19.583   2.382  20.740  1.00  0.00     0.040 A 
HETATM   21  C26 UNK     1      19.390   1.096  21.251  1.00  0.00     0.004 A 
BRANCH  17  22
HETATM   22  O5  UNK     1      19.759   3.846  18.869  1.00  0.00    -0.353 OA
HETATM   23  C28 UNK     1      21.099   4.228  18.561  1.00  0.00     0.210 C 
ENDBRANCH  17  22
ENDBRANCH   8  11
ENDBRANCH   5   7
BRANCH   3  24
HETATM   24  C16 UNK     1      19.347  -1.889  12.045  1.00  0.00     0.296 C 
HETATM   25  O3  UNK     1      18.439  -1.124  12.399  1.00  0.00    -0.259 OA
BRANCH  24  26
HETATM   26  O1  UNK     1      20.080  -1.680  10.898  1.00  0.00    -0.322 OA
HETATM   27  C27 UNK     1      21.398  -1.146  11.061  1.00  0.00     0.213 C 
ENDBRANCH  24  26
ENDBRANCH   3  24
BRANCH   2  28
HETATM   28  C4  UNK     1      19.853  -4.736  10.834  1.00  0.00    -0.024 A 
HETATM   29  C11 UNK     1      20.991  -4.779  10.034  1.00  0.00     0.013 A 
HETATM   30  C8  UNK     1      20.881  -5.145   8.693  1.00  0.00     0.008 A 
HETATM   31  C3  UNK     1      19.634  -5.465   8.157  1.00  0.00    -0.058 A 
HETATM   32  C9  UNK     1      18.497  -5.419   8.963  1.00  0.00     0.008 A 
HETATM   33  C12 UNK     1      18.606  -5.055  10.305  1.00  0.00     0.013 A 
BRANCH  31  34
HETATM   34  C2  UNK     1      19.516  -5.855   6.722  1.00  0.00     0.042 C 
BRANCH  34  35
HETATM   35  C1  UNK     1      19.494  -4.663   5.734  1.00  0.00    -0.019 C 
HETATM   36  C6  UNK     1      20.386  -4.917   4.517  1.00  0.00     0.010 C 
HETATM   37  C7  UNK     1      18.062  -4.377   5.274  1.00  0.00     0.010 C 
ENDBRANCH  34  35
ENDBRANCH  31  34
ENDBRANCH   2  28
TORSDOF 8
ENDMDL
MODEL 5
REMARK VINA RESULT:      -9.1      9.071     12.389
REMARK  8 active torsions:
REMARK  status: ('A' for Active; 'I' for Inactive)
REMARK    1  A    between atoms: C16_24  and  O1_2 
REMARK    2  A    between atoms: C23_31  and  O5_6 
REMARK    3  A    between atoms: C14_22  and  N1_8 
REMARK       I    between atoms: C17_25  and  N1_8 
REMARK    4  A    between atoms: C1_9  and  C2_10 
REMARK    5  A    between atoms: C2_10  and  C3_11 
REMARK    6  A    between atoms: C4_12  and  C5_13 
REMARK    7  A    between atoms: C10_18  and  C16_24 
REMARK    8  A    between atoms: C17_25  and  C18_26 
ROOT
HETATM    1  S1  UNK     1      28.892  -5.925  38.710  1.00  0.00    -0.075 SA
HETATM    2  C5  UNK     1      30.479  -6.390  36.745  1.00  0.00     0.006 A 
HETATM    3  C10 UNK     1      29.235  -6.994  36.399  1.00  0.00     0.085 A 
HETATM    4  C13 UNK     1      30.431  -5.776  37.976  1.00  0.00    -0.007 A 
HETATM    5  C14 UNK     1      28.312  -6.808  37.379  1.00  0.00     0.094 A 
HETATM    6  C15 UNK     1      31.493  -5.040  38.702  1.00  0.00     0.057 C 
ENDROOT
BRANCH   5   7
HETATM    7  N1  UNK     1      26.978  -7.221  37.460  1.00  0.00    -0.316 N 
HETATM    8  C17 UNK     1      26.425  -8.009  38.458  1.00  0.00     0.262 C 
HETATM    9  O4  UNK     1      26.975  -8.491  39.448  1.00  0.00    -0.267 OA
HETATM   10  H17 UNK     1      26.376  -6.903  36.704  1.00  0.00     0.169 HD
BRANCH   8  11
HETATM   11  C18 UNK     1      24.996  -8.255  38.233  1.00  0.00     0.108 A 
HETATM   12  C20 UNK     1      24.149  -7.558  39.000  1.00  0.00     0.037 A 
HETATM   13  C19 UNK     1      22.712  -7.732  38.851  1.00  0.00     0.002 A 
HETATM   14  C21 UNK     1      22.239  -8.633  37.902  1.00  0.00     0.123 A 
HETATM   15  C24 UNK     1      21.791  -7.025  39.628  1.00  0.00     0.014 A 
HETATM   16  O2  UNK     1      23.135  -9.364  37.099  1.00  0.00    -0.271 OA
HETATM   17  C23 UNK     1      20.875  -8.847  37.710  1.00  0.00     0.102 A 
HETATM   18  C22 UNK     1      24.515  -9.218  37.219  1.00  0.00     0.304 A 
HETATM   19  O6  UNK     1      25.288  -9.858  36.515  1.00  0.00    -0.259 OA
HETATM   20  C25 UNK     1      19.963  -8.138  38.489  1.00  0.00     0.040 A 
HETATM   21  C26 UNK     1      20.421  -7.229  39.446  1.00  0.00     0.004 A 
BRANCH  17  22
HETATM   22  O5  UNK     1      20.426  -9.731  36.779  1.00  0.00    -0.353 OA
HETATM   23  C28 UNK     1      19.560 -10.770  37.235  1.00  0.00     0.210 C 
ENDBRANCH  17  22
ENDBRANCH   8  11
ENDBRANCH   5   7
BRANCH   3  24
HETATM   24  C16 UNK     1      28.959  -7.714  35.179  1.00  0.00     0.296 C 
HETATM   25  O3  UNK     1      29.440  -8.823  34.909  1.00  0.00    -0.259 OA
BRANCH  24  26
HETATM   26  O1  UNK     1      28.102  -7.056  34.325  1.00  0.00    -0.322 OA
HETATM   27  C27 UNK     1      28.699  -6.211  33.335  1.00  0.00     0.213 C 
ENDBRANCH  24  26
ENDBRANCH   3  24
BRANCH   2  28
HETATM   28  C4  UNK     1      31.688  -6.381  35.958  1.00  0.00    -0.024 A 
HETATM   29  C11 UNK     1      31.943  -5.319  35.096  1.00  0.00     0.013 A 
HETATM   30  C8  UNK     1      33.113  -5.311  34.336  1.00  0.00     0.008 A 
HETATM   31  C3  UNK     1      34.021  -6.364  34.440  1.00  0.00    -0.058 A 
HETATM   32  C9  UNK     1      33.759  -7.426  35.307  1.00  0.00     0.008 A 
HETATM   33  C12 UNK     1      32.590  -7.434  36.068  1.00  0.00     0.013 A 
BRANCH  31  34
HETATM   34  C2  UNK     1      35.271  -6.356  33.627  1.00  0.00     0.042 C 
BRANCH  34  35
HETATM   35  C1  UNK     1      36.119  -7.647  33.743  1.00  0.00    -0.019 C 
HETATM   36  C6  UNK     1      36.381  -8.279  32.374  1.00  0.00     0.010 C 
HETATM   37  C7  UNK     1      37.450  -7.350  34.439  1.00  0.00     0.010 C 
ENDBRANCH  34  35
ENDBRANCH  31  34
ENDBRANCH   2  28
TORSDOF 8
ENDMDL
MODEL 6
REMARK VINA RESULT:      -9.0     27.382     30.002
REMARK  8 active torsions:
REMARK  status: ('A' for Active; 'I' for Inactive)
REMARK    1  A    between atoms: C16_24  and  O1_2 
REMARK    2  A    between atoms: C23_31  and  O5_6 
REMARK    3  A    between atoms: C14_22  and  N1_8 
REMARK       I    between atoms: C17_25  and  N1_8 
REMARK    4  A    between atoms: C1_9  and  C2_10 
REMARK    5  A    between atoms: C2_10  and  C3_11 
REMARK    6  A    between atoms: C4_12  and  C5_13 
REMARK    7  A    between atoms: C10_18  and  C16_24 
REMARK    8  A    between atoms: C17_25  and  C18_26 
ROOT
HETATM    1  S1  UNK     1      15.270  12.454   7.786  1.00  0.00    -0.075 SA
HETATM    2  C5  UNK     1      17.533  11.822   8.823  1.00  0.00     0.006 A 
HETATM    3  C10 UNK     1      16.638  10.763   9.153  1.00  0.00     0.085 A 
HETATM    4  C13 UNK     1      16.918  12.807   8.083  1.00  0.00    -0.007 A 
HETATM    5  C14 UNK     1      15.398  10.996   8.649  1.00  0.00     0.094 A 
HETATM    6  C15 UNK     1      17.481  14.067   7.541  1.00  0.00     0.057 C 
ENDROOT
BRANCH   5   7
HETATM    7  N1  UNK     1      14.229  10.232   8.728  1.00  0.00    -0.316 N 
HETATM    8  C17 UNK     1      14.091   8.906   8.346  1.00  0.00     0.262 C 
HETATM    9  O4  UNK     1      14.940   8.151   7.875  1.00  0.00    -0.267 OA
HETATM   10  H17 UNK     1      13.417  10.716   9.103  1.00  0.00     0.169 HD
BRANCH   8  11
HETATM   11  C18 UNK     1      12.725   8.414   8.564  1.00  0.00     0.108 A 
HETATM   12  C20 UNK     1      12.159   7.768   7.538  1.00  0.00     0.037 A 
HETATM   13  C19 UNK     1      10.808   7.243   7.657  1.00  0.00     0.002 A 
HETATM   14  C21 UNK     1      10.119   7.425   8.852  1.00  0.00     0.123 A 
HETATM   15  C24 UNK     1      10.178   6.560   6.613  1.00  0.00     0.014 A 
HETATM   16  O2  UNK     1      10.719   8.107   9.928  1.00  0.00    -0.271 OA
HETATM   17  C23 UNK     1       8.821   6.948   9.031  1.00  0.00     0.102 A 
HETATM   18  C22 UNK     1      12.011   8.620   9.843  1.00  0.00     0.304 A 
HETATM   19  O6  UNK     1      12.526   9.211  10.785  1.00  0.00    -0.259 OA
HETATM   20  C25 UNK     1       8.201   6.269   7.985  1.00  0.00     0.040 A 
HETATM   21  C26 UNK     1       8.878   6.076   6.778  1.00  0.00     0.004 A 
BRANCH  17  22
HETATM   22  O5  UNK     1       8.159   7.134  10.204  1.00  0.00    -0.353 OA
HETATM   23  C28 UNK     1       7.145   8.139  10.226  1.00  0.00     0.210 C 
ENDBRANCH  17  22
ENDBRANCH   8  11
ENDBRANCH   5   7
BRANCH   3  24
HETATM   24  C16 UNK     1      16.973   9.587   9.918  1.00  0.00     0.296 C 
HETATM   25  O3  UNK     1      17.863   8.785   9.598  1.00  0.00    -0.259 OA
BRANCH  24  26
HETATM   26  O1  UNK     1      16.211   9.424  11.054  1.00  0.00    -0.322 OA
HETATM   27  C27 UNK     1      15.908   8.079  11.441  1.00  0.00     0.213 C 
ENDBRANCH  24  26
ENDBRANCH   3  24
BRANCH   2  28
HETATM   28  C4  UNK     1      18.926  11.927   9.184  1.00  0.00    -0.024 A 
HETATM   29  C11 UNK     1      19.281  12.173  10.507  1.00  0.00     0.013 A 
HETATM   30  C8  UNK     1      20.627  12.274  10.856  1.00  0.00     0.008 A 
HETATM   31  C3  UNK     1      21.613  12.129   9.880  1.00  0.00    -0.058 A 
HETATM   32  C9  UNK     1      21.251  11.882   8.555  1.00  0.00     0.008 A 
HETATM   33  C12 UNK     1      19.905  11.780   8.207  1.00  0.00     0.013 A 
BRANCH  31  34
HETATM   34  C2  UNK     1      23.053  12.237  10.252  1.00  0.00     0.042 C 
BRANCH  34  35
HETATM   35  C1  UNK     1      23.311  12.426  11.767  1.00  0.00    -0.019 C 
HETATM   36  C6  UNK     1      24.628  11.780  12.204  1.00  0.00     0.010 C 
HETATM   37  C7  UNK     1      23.322  13.914  12.125  1.00  0.00     0.010 C 
ENDBRANCH  34  35
ENDBRANCH  31  34
ENDBRANCH   2  28
TORSDOF 8
ENDMDL
MODEL 7
REMARK VINA RESULT:      -9.0     28.032     29.466
REMARK  8 active torsions:
REMARK  status: ('A' for Active; 'I' for Inactive)
REMARK    1  A    between atoms: C16_24  and  O1_2 
REMARK    2  A    between atoms: C23_31  and  O5_6 
REMARK    3  A    between atoms: C14_22  and  N1_8 
REMARK       I    between atoms: C17_25  and  N1_8 
REMARK    4  A    between atoms: C1_9  and  C2_10 
REMARK    5  A    between atoms: C2_10  and  C3_11 
REMARK    6  A    between atoms: C4_12  and  C5_13 
REMARK    7  A    between atoms: C10_18  and  C16_24 
REMARK    8  A    between atoms: C17_25  and  C18_26 
ROOT
HETATM    1  S1  UNK     1      15.778  12.636  11.685  1.00  0.00    -0.075 SA
HETATM    2  C5  UNK     1      18.212  12.392  10.904  1.00  0.00     0.006 A 
HETATM    3  C10 UNK     1      17.480  11.366  10.240  1.00  0.00     0.085 A 
HETATM    4  C13 UNK     1      17.408  13.155  11.721  1.00  0.00    -0.007 A 
HETATM    5  C14 UNK     1      16.166  11.402  10.582  1.00  0.00     0.094 A 
HETATM    6  C15 UNK     1      17.765  14.309  12.581  1.00  0.00     0.057 C 
ENDROOT
BRANCH   5   7
HETATM    7  N1  UNK     1      15.100  10.595  10.175  1.00  0.00    -0.316 N 
HETATM    8  C17 UNK     1      14.729   9.382  10.738  1.00  0.00     0.262 C 
HETATM    9  O4  UNK     1      15.245   8.785  11.682  1.00  0.00    -0.267 OA
HETATM   10  H17 UNK     1      14.559  10.950   9.390  1.00  0.00     0.169 HD
BRANCH   8  11
HETATM   11  C18 UNK     1      13.563   8.799  10.064  1.00  0.00     0.108 A 
HETATM   12  C20 UNK     1      13.806   8.137   8.927  1.00  0.00     0.037 A 
HETATM   13  C19 UNK     1      12.715   7.525   8.187  1.00  0.00     0.002 A 
HETATM   14  C21 UNK     1      11.419   7.640   8.680  1.00  0.00     0.123 A 
HETATM   15  C24 UNK     1      12.922   6.822   6.997  1.00  0.00     0.014 A 
HETATM   16  O2  UNK     1      11.168   8.340   9.877  1.00  0.00    -0.271 OA
HETATM   17  C23 UNK     1      10.328   7.078   8.019  1.00  0.00     0.102 A 
HETATM   18  C22 UNK     1      12.194   8.936  10.607  1.00  0.00     0.304 A 
HETATM   19  O6  UNK     1      11.966   9.542  11.648  1.00  0.00    -0.259 OA
HETATM   20  C25 UNK     1      10.544   6.380   6.833  1.00  0.00     0.040 A 
HETATM   21  C26 UNK     1      11.838   6.253   6.323  1.00  0.00     0.004 A 
BRANCH  17  22
HETATM   22  O5  UNK     1       9.067   7.200   8.513  1.00  0.00    -0.353 OA
HETATM   23  C28 UNK     1       8.078   6.311   7.993  1.00  0.00     0.210 C 
ENDBRANCH  17  22
ENDBRANCH   8  11
ENDBRANCH   5   7
BRANCH   3  24
HETATM   24  C16 UNK     1      18.031  10.401   9.318  1.00  0.00     0.296 C 
HETATM   25  O3  UNK     1      17.885   9.176   9.433  1.00  0.00    -0.259 OA
BRANCH  24  26
HETATM   26  O1  UNK     1      18.745  10.963   8.283  1.00  0.00    -0.322 OA
HETATM   27  C27 UNK     1      18.022  11.814   7.387  1.00  0.00     0.213 C 
ENDBRANCH  24  26
ENDBRANCH   3  24
BRANCH   2  28
HETATM   28  C4  UNK     1      19.625  12.664  10.791  1.00  0.00    -0.024 A 
HETATM   29  C11 UNK     1      20.538  11.872  11.481  1.00  0.00     0.013 A 
HETATM   30  C8  UNK     1      21.904  12.135  11.371  1.00  0.00     0.008 A 
HETATM   31  C3  UNK     1      22.349  13.188  10.573  1.00  0.00    -0.058 A 
HETATM   32  C9  UNK     1      21.429  13.979   9.884  1.00  0.00     0.008 A 
HETATM   33  C12 UNK     1      20.063  13.715   9.993  1.00  0.00     0.013 A 
BRANCH  31  34
HETATM   34  C2  UNK     1      23.809  13.471  10.456  1.00  0.00     0.042 C 
BRANCH  34  35
HETATM   35  C1  UNK     1      24.693  12.701  11.468  1.00  0.00    -0.019 C 
HETATM   36  C6  UNK     1      25.961  12.151  10.810  1.00  0.00     0.010 C 
HETATM   37  C7  UNK     1      25.071  13.607  12.642  1.00  0.00     0.010 C 
ENDBRANCH  34  35
ENDBRANCH  31  34
ENDBRANCH   2  28
TORSDOF 8
ENDMDL
MODEL 8
REMARK VINA RESULT:      -8.9      1.278      2.167
REMARK  8 active torsions:
REMARK  status: ('A' for Active; 'I' for Inactive)
REMARK    1  A    between atoms: C16_24  and  O1_2 
REMARK    2  A    between atoms: C23_31  and  O5_6 
REMARK    3  A    between atoms: C14_22  and  N1_8 
REMARK       I    between atoms: C17_25  and  N1_8 
REMARK    4  A    between atoms: C1_9  and  C2_10 
REMARK    5  A    between atoms: C2_10  and  C3_11 
REMARK    6  A    between atoms: C4_12  and  C5_13 
REMARK    7  A    between atoms: C10_18  and  C16_24 
REMARK    8  A    between atoms: C17_25  and  C18_26 
ROOT
HETATM    1  S1  UNK     1      17.673  -1.756  37.786  1.00  0.00    -0.075 SA
HETATM    2  C5  UNK     1      18.303  -0.198  35.844  1.00  0.00     0.006 A 
HETATM    3  C10 UNK     1      18.960  -1.436  35.585  1.00  0.00     0.085 A 
HETATM    4  C13 UNK     1      17.570  -0.235  37.009  1.00  0.00    -0.007 A 
HETATM    5  C14 UNK     1      18.693  -2.344  36.560  1.00  0.00     0.094 A 
HETATM    6  C15 UNK     1      16.747   0.827  37.637  1.00  0.00     0.057 C 
ENDROOT
BRANCH   5   7
HETATM    7  N1  UNK     1      19.120  -3.667  36.709  1.00  0.00    -0.316 N 
HETATM    8  C17 UNK     1      20.219  -4.096  37.440  1.00  0.00     0.262 C 
HETATM    9  O4  UNK     1      21.018  -3.422  38.088  1.00  0.00    -0.267 OA
HETATM   10  H17 UNK     1      18.557  -4.364  36.227  1.00  0.00     0.169 HD
BRANCH   8  11
HETATM   11  C18 UNK     1      20.379  -5.554  37.383  1.00  0.00     0.108 A 
HETATM   12  C20 UNK     1      20.695  -6.067  36.188  1.00  0.00     0.037 A 
HETATM   13  C19 UNK     1      20.875  -7.502  36.030  1.00  0.00     0.002 A 
HETATM   14  C21 UNK     1      20.713  -8.325  37.140  1.00  0.00     0.123 A 
HETATM   15  C24 UNK     1      21.207  -8.081  34.803  1.00  0.00     0.014 A 
HETATM   16  O2  UNK     1      20.380  -7.779  38.395  1.00  0.00    -0.271 OA
HETATM   17  C23 UNK     1      20.871  -9.708  37.057  1.00  0.00     0.102 A 
HETATM   18  C22 UNK     1      20.202  -6.410  38.575  1.00  0.00     0.304 A 
HETATM   19  O6  UNK     1      19.912  -5.943  39.671  1.00  0.00    -0.259 OA
HETATM   20  C25 UNK     1      21.201 -10.278  35.830  1.00  0.00     0.040 A 
HETATM   21  C26 UNK     1      21.369  -9.466  34.705  1.00  0.00     0.004 A 
BRANCH  17  22
HETATM   22  O5  UNK     1      20.709 -10.501  38.150  1.00  0.00    -0.353 OA
HETATM   23  C28 UNK     1      19.397 -11.008  38.396  1.00  0.00     0.210 C 
ENDBRANCH  17  22
ENDBRANCH   8  11
ENDBRANCH   5   7
BRANCH   3  24
HETATM   24  C16 UNK     1      19.802  -1.720  34.449  1.00  0.00     0.296 C 
HETATM   25  O3  UNK     1      20.959  -2.155  34.538  1.00  0.00    -0.259 OA
BRANCH  24  26
HETATM   26  O1  UNK     1      19.204  -1.465  33.234  1.00  0.00    -0.322 OA
HETATM   27  C27 UNK     1      19.957  -1.796  32.062  1.00  0.00     0.213 C 
ENDBRANCH  24  26
ENDBRANCH   3  24
BRANCH   2  28
HETATM   28  C4  UNK     1      18.351   0.996  35.036  1.00  0.00    -0.024 A 
HETATM   29  C11 UNK     1      18.854   2.176  35.575  1.00  0.00     0.013 A 
HETATM   30  C8  UNK     1      18.901   3.330  34.794  1.00  0.00     0.008 A 
HETATM   31  C3  UNK     1      18.444   3.299  33.476  1.00  0.00    -0.058 A 
HETATM   32  C9  UNK     1      17.940   2.113  32.941  1.00  0.00     0.008 A 
HETATM   33  C12 UNK     1      17.895   0.959  33.722  1.00  0.00     0.013 A 
BRANCH  31  34
HETATM   34  C2  UNK     1      18.492   4.533  32.640  1.00  0.00     0.042 C 
BRANCH  34  35
HETATM   35  C1  UNK     1      18.273   5.849  33.426  1.00  0.00    -0.019 C 
HETATM   36  C6  UNK     1      19.487   6.777  33.331  1.00  0.00     0.010 C 
HETATM   37  C7  UNK     1      17.026   6.575  32.915  1.00  0.00     0.010 C 
ENDBRANCH  34  35
ENDBRANCH  31  34
ENDBRANCH   2  28
TORSDOF 8
ENDMDL
MODEL 9
REMARK VINA RESULT:      -8.8      9.205     12.678
REMARK  8 active torsions:
REMARK  status: ('A' for Active; 'I' for Inactive)
REMARK    1  A    between atoms: C16_24  and  O1_2 
REMARK    2  A    between atoms: C23_31  and  O5_6 
REMARK    3  A    between atoms: C14_22  and  N1_8 
REMARK       I    between atoms: C17_25  and  N1_8 
REMARK    4  A    between atoms: C1_9  and  C2_10 
REMARK    5  A    between atoms: C2_10  and  C3_11 
REMARK    6  A    between atoms: C4_12  and  C5_13 
REMARK    7  A    between atoms: C10_18  and  C16_24 
REMARK    8  A    between atoms: C17_25  and  C18_26 
ROOT
HETATM    1  S1  UNK     1      29.261  -6.118  38.448  1.00  0.00    -0.075 SA
HETATM    2  C5  UNK     1      30.933  -6.565  36.551  1.00  0.00     0.006 A 
HETATM    3  C10 UNK     1      29.710  -7.178  36.152  1.00  0.00     0.085 A 
HETATM    4  C13 UNK     1      30.828  -5.953  37.780  1.00  0.00    -0.007 A 
HETATM    5  C14 UNK     1      28.745  -7.002  37.091  1.00  0.00     0.094 A 
HETATM    6  C15 UNK     1      31.852  -5.210  38.552  1.00  0.00     0.057 C 
ENDROOT
BRANCH   5   7
HETATM    7  N1  UNK     1      27.413  -7.428  37.115  1.00  0.00    -0.316 N 
HETATM    8  C17 UNK     1      26.955  -8.656  37.568  1.00  0.00     0.262 C 
HETATM    9  O4  UNK     1      27.603  -9.595  38.027  1.00  0.00    -0.267 OA
HETATM   10  H17 UNK     1      26.735  -6.757  36.762  1.00  0.00     0.169 HD
BRANCH   8  11
HETATM   11  C18 UNK     1      25.496  -8.773  37.449  1.00  0.00     0.108 A 
HETATM   12  C20 UNK     1      25.044  -9.769  36.679  1.00  0.00     0.037 A 
HETATM   13  C19 UNK     1      23.614  -9.967  36.500  1.00  0.00     0.002 A 
HETATM   14  C21 UNK     1      22.730  -9.104  37.141  1.00  0.00     0.123 A 
HETATM   15  C24 UNK     1      23.096 -10.994  35.707  1.00  0.00     0.014 A 
HETATM   16  O2  UNK     1      23.213  -8.056  37.949  1.00  0.00    -0.271 OA
HETATM   17  C23 UNK     1      21.349  -9.237  37.010  1.00  0.00     0.102 A 
HETATM   18  C22 UNK     1      24.576  -7.843  38.140  1.00  0.00     0.304 A 
HETATM   19  O6  UNK     1      24.987  -6.929  38.846  1.00  0.00    -0.259 OA
HETATM   20  C25 UNK     1      20.841 -10.264  36.218  1.00  0.00     0.040 A 
HETATM   21  C26 UNK     1      21.713 -11.141  35.568  1.00  0.00     0.004 A 
BRANCH  17  22
HETATM   22  O5  UNK     1      20.497  -8.385  37.642  1.00  0.00    -0.353 OA
HETATM   23  C28 UNK     1      19.286  -8.055  36.962  1.00  0.00     0.210 C 
ENDBRANCH  17  22
ENDBRANCH   8  11
ENDBRANCH   5   7
BRANCH   3  24
HETATM   24  C16 UNK     1      29.493  -7.897  34.920  1.00  0.00     0.296 C 
HETATM   25  O3  UNK     1      29.286  -9.118  34.860  1.00  0.00    -0.259 OA
BRANCH  24  26
HETATM   26  O1  UNK     1      29.534  -7.103  33.795  1.00  0.00    -0.322 OA
HETATM   27  C27 UNK     1      28.325  -6.424  33.440  1.00  0.00     0.213 C 
ENDBRANCH  24  26
ENDBRANCH   3  24
BRANCH   2  28
HETATM   28  C4  UNK     1      32.174  -6.543  35.816  1.00  0.00    -0.024 A 
HETATM   29  C11 UNK     1      33.064  -7.607  35.931  1.00  0.00     0.013 A 
HETATM   30  C8  UNK     1      34.264  -7.586  35.220  1.00  0.00     0.008 A 
HETATM   31  C3  UNK     1      34.569  -6.501  34.398  1.00  0.00    -0.058 A 
HETATM   32  C9  UNK     1      33.673  -5.437  34.287  1.00  0.00     0.008 A 
HETATM   33  C12 UNK     1      32.473  -5.459  34.997  1.00  0.00     0.013 A 
BRANCH  31  34
HETATM   34  C2  UNK     1      35.852  -6.478  33.639  1.00  0.00     0.042 C 
BRANCH  34  35
HETATM   35  C1  UNK     1      35.834  -7.299  32.326  1.00  0.00    -0.019 C 
HETATM   36  C6  UNK     1      36.473  -8.677  32.509  1.00  0.00     0.010 C 
HETATM   37  C7  UNK     1      34.400  -7.458  31.815  1.00  0.00     0.010 C 
ENDBRANCH  34  35
ENDBRANCH  31  34
ENDBRANCH   2  28
TORSDOF 8
ENDMDL
MODEL 10
REMARK VINA RESULT:      -8.8      2.095      3.593
REMARK  8 active torsions:
REMARK  status: ('A' for Active; 'I' for Inactive)
REMARK    1  A    between atoms: C16_24  and  O1_2 
REMARK    2  A    between atoms: C23_31  and  O5_6 
REMARK    3  A    between atoms: C14_22  and  N1_8 
REMARK       I    between atoms: C17_25  and  N1_8 
REMARK    4  A    between atoms: C1_9  and  C2_10 
REMARK    5  A    between atoms: C2_10  and  C3_11 
REMARK    6  A    between atoms: C4_12  and  C5_13 
REMARK    7  A    between atoms: C10_18  and  C16_24 
REMARK    8  A    between atoms: C17_25  and  C18_26 
ROOT
HETATM    1  S1  UNK     1      19.269  -1.348  32.126  1.00  0.00    -0.075 SA
HETATM    2  C5  UNK     1      18.700   1.023  32.932  1.00  0.00     0.006 A 
HETATM    3  C10 UNK     1      18.745   0.209  34.101  1.00  0.00     0.085 A 
HETATM    4  C13 UNK     1      18.966   0.302  31.789  1.00  0.00    -0.007 A 
HETATM    5  C14 UNK     1      19.042  -1.080  33.789  1.00  0.00     0.094 A 
HETATM    6  C15 UNK     1      19.018   0.758  30.380  1.00  0.00     0.057 C 
ENDROOT
BRANCH   5   7
HETATM    7  N1  UNK     1      19.187  -2.202  34.610  1.00  0.00    -0.316 N 
HETATM    8  C17 UNK     1      20.364  -2.633  35.206  1.00  0.00     0.262 C 
HETATM    9  O4  UNK     1      21.485  -2.133  35.138  1.00  0.00    -0.267 OA
HETATM   10  H17 UNK     1      18.338  -2.738  34.771  1.00  0.00     0.169 HD
BRANCH   8  11
HETATM   11  C18 UNK     1      20.160  -3.848  36.004  1.00  0.00     0.108 A 
HETATM   12  C20 UNK     1      19.632  -4.896  35.360  1.00  0.00     0.037 A 
HETATM   13  C19 UNK     1      19.392  -6.145  36.065  1.00  0.00     0.002 A 
HETATM   14  C21 UNK     1      19.719  -6.229  37.415  1.00  0.00     0.123 A 
HETATM   15  C24 UNK     1      18.846  -7.265  35.433  1.00  0.00     0.014 A 
HETATM   16  O2  UNK     1      20.273  -5.122  38.088  1.00  0.00    -0.271 OA
HETATM   17  C23 UNK     1      19.514  -7.396  38.149  1.00  0.00     0.102 A 
HETATM   18  C22 UNK     1      20.514  -3.914  37.438  1.00  0.00     0.304 A 
HETATM   19  O6  UNK     1      20.997  -2.956  38.031  1.00  0.00    -0.259 OA
HETATM   20  C25 UNK     1      18.968  -8.508  37.512  1.00  0.00     0.040 A 
HETATM   21  C26 UNK     1      18.635  -8.442  36.157  1.00  0.00     0.004 A 
BRANCH  17  22
HETATM   22  O5  UNK     1      19.837  -7.463  39.469  1.00  0.00    -0.353 OA
HETATM   23  C28 UNK     1      21.072  -8.097  39.803  1.00  0.00     0.210 C 
ENDBRANCH  17  22
ENDBRANCH   8  11
ENDBRANCH   5   7
BRANCH   3  24
HETATM   24  C16 UNK     1      18.513   0.662  35.452  1.00  0.00     0.296 C 
HETATM   25  O3  UNK     1      19.408   1.067  36.207  1.00  0.00    -0.259 OA
BRANCH  24  26
HETATM   26  O1  UNK     1      17.193   0.605  35.839  1.00  0.00    -0.322 OA
HETATM   27  C27 UNK     1      16.877   1.129  37.134  1.00  0.00     0.213 C 
ENDBRANCH  24  26
ENDBRANCH   3  24
BRANCH   2  28
HETATM   28  C4  UNK     1      18.416   2.436  32.869  1.00  0.00    -0.024 A 
HETATM   29  C11 UNK     1      18.218   3.046  31.634  1.00  0.00     0.013 A 
HETATM   30  C8  UNK     1      17.943   4.412  31.572  1.00  0.00     0.008 A 
HETATM   31  C3  UNK     1      17.868   5.162  32.746  1.00  0.00    -0.058 A 
HETATM   32  C9  UNK     1      18.068   4.545  33.981  1.00  0.00     0.008 A 
HETATM   33  C12 UNK     1      18.342   3.179  34.043  1.00  0.00     0.013 A 
BRANCH  31  34
HETATM   34  C2  UNK     1      17.576   6.622  32.681  1.00  0.00     0.042 C 
BRANCH  34  35
HETATM   35  C1  UNK     1      18.751   7.531  33.117  1.00  0.00    -0.019 C 
HETATM   36  C6  UNK     1      18.627   7.958  34.582  1.00  0.00     0.010 C 
HETATM   37  C7  UNK     1      20.087   6.817  32.898  1.00  0.00     0.010 C 
ENDBRANCH  34  35
ENDBRANCH  31  34
ENDBRANCH   2  28
TORSDOF 8
ENDMDL
