MODEL 1
REMARK VINA RESULT:      -8.2      0.000      0.000
REMARK  4 active torsions:
REMARK  status: ('A' for Active; 'I' for Inactive)
REMARK    1  A    between atoms: C7_12  and  O2_2 
REMARK    2  A    between atoms: C11_16  and  O4_4 
REMARK    3  A    between atoms: C12_17  and  O5_5 
REMARK    4  A    between atoms: C1_6  and  C3_8 
ROOT
HETATM    1  O1  UNK     1      19.104   6.384  31.848  1.00  0.00    -0.340 OA
HETATM    2  O3  UNK     1      18.071   3.326  34.381  1.00  0.00    -0.292 OA
HETATM    3  C1  UNK     1      18.440   6.654  33.093  1.00  0.00     0.172 C 
HETATM    4  C2  UNK     1      18.793   5.602  34.142  1.00  0.00     0.121 C 
HETATM    5  C4  UNK     1      18.385   4.243  33.632  1.00  0.00     0.165 C 
HETATM    6  C5  UNK     1      18.455   4.055  32.167  1.00  0.00     0.046 A 
HETATM    7  C6  UNK     1      18.832   5.131  31.360  1.00  0.00     0.083 A 
HETATM    8  C9  UNK     1      18.189   2.806  31.602  1.00  0.00     0.054 A 
HETATM    9  C10 UNK     1      18.978   4.948  29.984  1.00  0.00     0.040 A 
HETATM   10  C12 UNK     1      18.316   2.635  30.222  1.00  0.00     0.069 A 
HETATM   11  C14 UNK     1      18.714   3.702  29.416  1.00  0.00     0.039 A 
ENDROOT
BRANCH   3  12
HETATM   12  C3  UNK     1      18.838   8.040  33.556  1.00  0.00     0.008 A 
HETATM   13  C7  UNK     1      17.956   9.115  33.433  1.00  0.00     0.110 A 
HETATM   14  C11 UNK     1      18.339  10.385  33.863  1.00  0.00     0.102 A 
HETATM   15  C15 UNK     1      19.604  10.582  34.417  1.00  0.00     0.039 A 
HETATM   16  C13 UNK     1      20.487   9.508  34.540  1.00  0.00     0.003 A 
HETATM   17  C8  UNK     1      20.103   8.238  34.109  1.00  0.00     0.013 A 
BRANCH  13  18
HETATM   18  O2  UNK     1      16.718   8.926  32.892  1.00  0.00    -0.352 OA
HETATM   19  C16 UNK     1      15.654   8.642  33.797  1.00  0.00     0.210 C 
ENDBRANCH  13  18
BRANCH  14  20
HETATM   20  O4  UNK     1      17.486  11.441  33.750  1.00  0.00    -0.353 OA
HETATM   21  C17 UNK     1      17.725  12.560  34.602  1.00  0.00     0.210 C 
ENDBRANCH  14  20
ENDBRANCH   3  12
BRANCH  10  22
HETATM   22  O5  UNK     1      18.061   1.420  29.663  1.00  0.00    -0.356 OA
HETATM   23  C18 UNK     1      19.119   0.809  28.927  1.00  0.00     0.210 C 
ENDBRANCH  10  22
TORSDOF 4
ENDMDL
MODEL 2
REMARK VINA RESULT:      -7.6      1.485      7.337
REMARK  4 active torsions:
REMARK  status: ('A' for Active; 'I' for Inactive)
REMARK    1  A    between atoms: C7_12  and  O2_2 
REMARK    2  A    between atoms: C11_16  and  O4_4 
REMARK    3  A    between atoms: C12_17  and  O5_5 
REMARK    4  A    between atoms: C1_6  and  C3_8 
ROOT
HETATM    1  O1  UNK     1      16.963   6.709  33.049  1.00  0.00    -0.340 OA
HETATM    2  O3  UNK     1      20.155   8.917  34.378  1.00  0.00    -0.292 OA
HETATM    3  C1  UNK     1      18.302   6.381  32.645  1.00  0.00     0.172 C 
HETATM    4  C2  UNK     1      19.311   6.768  33.724  1.00  0.00     0.121 C 
HETATM    5  C4  UNK     1      19.207   8.249  33.985  1.00  0.00     0.165 C 
HETATM    6  C5  UNK     1      17.864   8.843  33.810  1.00  0.00     0.046 A 
HETATM    7  C6  UNK     1      16.813   8.032  33.373  1.00  0.00     0.083 A 
HETATM    8  C9  UNK     1      17.640  10.187  34.118  1.00  0.00     0.054 A 
HETATM    9  C10 UNK     1      15.525   8.560  33.277  1.00  0.00     0.040 A 
HETATM   10  C12 UNK     1      16.353  10.714  34.000  1.00  0.00     0.069 A 
HETATM   11  C14 UNK     1      15.297   9.901  33.585  1.00  0.00     0.039 A 
ENDROOT
BRANCH   3  12
HETATM   12  C3  UNK     1      18.362   4.896  32.350  1.00  0.00     0.008 A 
HETATM   13  C7  UNK     1      18.614   4.435  31.057  1.00  0.00     0.110 A 
HETATM   14  C11 UNK     1      18.665   3.064  30.803  1.00  0.00     0.102 A 
HETATM   15  C15 UNK     1      18.466   2.154  31.841  1.00  0.00     0.039 A 
HETATM   16  C13 UNK     1      18.214   2.615  33.134  1.00  0.00     0.003 A 
HETATM   17  C8  UNK     1      18.163   3.986  33.388  1.00  0.00     0.013 A 
BRANCH  13  18
HETATM   18  O2  UNK     1      18.809   5.322  30.039  1.00  0.00    -0.352 OA
HETATM   19  C16 UNK     1      20.095   5.929  29.950  1.00  0.00     0.210 C 
ENDBRANCH  13  18
BRANCH  14  20
HETATM   20  O4  UNK     1      18.910   2.602  29.545  1.00  0.00    -0.353 OA
HETATM   21  C17 UNK     1      17.815   2.011  28.847  1.00  0.00     0.210 C 
ENDBRANCH  14  20
ENDBRANCH   3  12
BRANCH  10  22
HETATM   22  O5  UNK     1      16.125  12.022  34.300  1.00  0.00    -0.356 OA
HETATM   23  C18 UNK     1      17.226  12.771  34.812  1.00  0.00     0.210 C 
ENDBRANCH  10  22
TORSDOF 4
ENDMDL
MODEL 3
REMARK VINA RESULT:      -7.5     22.926     25.207
REMARK  4 active torsions:
REMARK  status: ('A' for Active; 'I' for Inactive)
REMARK    1  A    between atoms: C7_12  and  O2_2 
REMARK    2  A    between atoms: C11_16  and  O4_4 
REMARK    3  A    between atoms: C12_17  and  O5_5 
REMARK    4  A    between atoms: C1_6  and  C3_8 
ROOT
HETATM    1  O1  UNK     1      13.127   8.521   8.191  1.00  0.00    -0.340 OA
HETATM    2  O3  UNK     1      15.116   6.006  10.751  1.00  0.00    -0.292 OA
HETATM    3  C1  UNK     1      12.891   7.104   8.161  1.00  0.00     0.172 C 
HETATM    4  C2  UNK     1      13.101   6.483   9.540  1.00  0.00     0.121 C 
HETATM    5  C4  UNK     1      14.513   6.753   9.991  1.00  0.00     0.165 C 
HETATM    6  C5  UNK     1      15.112   8.020   9.517  1.00  0.00     0.046 A 
HETATM    7  C6  UNK     1      14.374   8.843   8.661  1.00  0.00     0.083 A 
HETATM    8  C9  UNK     1      16.380   8.409   9.954  1.00  0.00     0.054 A 
HETATM    9  C10 UNK     1      14.894  10.077   8.268  1.00  0.00     0.040 A 
HETATM   10  C12 UNK     1      16.903   9.636   9.541  1.00  0.00     0.069 A 
HETATM   11  C14 UNK     1      16.160  10.469   8.704  1.00  0.00     0.039 A 
ENDROOT
BRANCH   3  12
HETATM   12  C3  UNK     1      11.479   6.866   7.665  1.00  0.00     0.008 A 
HETATM   13  C7  UNK     1      10.378   7.242   8.436  1.00  0.00     0.110 A 
HETATM   14  C11 UNK     1       9.086   7.014   7.965  1.00  0.00     0.102 A 
HETATM   15  C15 UNK     1       8.892   6.412   6.722  1.00  0.00     0.039 A 
HETATM   16  C13 UNK     1       9.992   6.036   5.950  1.00  0.00     0.003 A 
HETATM   17  C8  UNK     1      11.285   6.264   6.422  1.00  0.00     0.013 A 
BRANCH  13  18
HETATM   18  O2  UNK     1      10.564   7.831   9.653  1.00  0.00    -0.352 OA
HETATM   19  C16 UNK     1      10.310   9.230   9.738  1.00  0.00     0.210 C 
ENDBRANCH  13  18
BRANCH  14  20
HETATM   20  O4  UNK     1       8.004   7.377   8.709  1.00  0.00    -0.353 OA
HETATM   21  C17 UNK     1       7.405   6.366   9.517  1.00  0.00     0.210 C 
ENDBRANCH  14  20
ENDBRANCH   3  12
BRANCH  10  22
HETATM   22  O5  UNK     1      18.137  10.024   9.964  1.00  0.00    -0.356 OA
HETATM   23  C18 UNK     1      18.489  11.392   9.769  1.00  0.00     0.210 C 
ENDBRANCH  10  22
TORSDOF 4
ENDMDL
MODEL 4
REMARK VINA RESULT:      -7.4     13.709     19.552
REMARK  4 active torsions:
REMARK  status: ('A' for Active; 'I' for Inactive)
REMARK    1  A    between atoms: C7_12  and  O2_2 
REMARK    2  A    between atoms: C11_16  and  O4_4 
REMARK    3  A    between atoms: C12_17  and  O5_5 
REMARK    4  A    between atoms: C1_6  and  C3_8 
ROOT
HETATM    1  O1  UNK     1      19.464  -1.131  16.533  1.00  0.00    -0.340 OA
HETATM    2  O3  UNK     1      19.220   2.880  15.704  1.00  0.00    -0.292 OA
HETATM    3  C1  UNK     1      18.987  -0.672  15.257  1.00  0.00     0.172 C 
HETATM    4  C2  UNK     1      19.626   0.663  14.881  1.00  0.00     0.121 C 
HETATM    5  C4  UNK     1      19.299   1.682  15.943  1.00  0.00     0.165 C 
HETATM    6  C5  UNK     1      19.149   1.157  17.317  1.00  0.00     0.046 A 
HETATM    7  C6  UNK     1      19.263  -0.219  17.537  1.00  0.00     0.083 A 
HETATM    8  C9  UNK     1      18.940   2.029  18.388  1.00  0.00     0.054 A 
HETATM    9  C10 UNK     1      19.200  -0.720  18.837  1.00  0.00     0.040 A 
HETATM   10  C12 UNK     1      18.858   1.518  19.684  1.00  0.00     0.069 A 
HETATM   11  C14 UNK     1      18.993   0.148  19.909  1.00  0.00     0.039 A 
ENDROOT
BRANCH   3  12
HETATM   12  C3  UNK     1      19.293  -1.734  14.222  1.00  0.00     0.008 A 
HETATM   13  C7  UNK     1      18.523  -2.896  14.141  1.00  0.00     0.110 A 
HETATM   14  C11 UNK     1      18.820  -3.864  13.183  1.00  0.00     0.102 A 
HETATM   15  C15 UNK     1      19.885  -3.673  12.304  1.00  0.00     0.039 A 
HETATM   16  C13 UNK     1      20.656  -2.512  12.384  1.00  0.00     0.003 A 
HETATM   17  C8  UNK     1      20.360  -1.543  13.343  1.00  0.00     0.013 A 
BRANCH  13  18
HETATM   18  O2  UNK     1      17.480  -3.087  14.999  1.00  0.00    -0.352 OA
HETATM   19  C16 UNK     1      17.645  -4.081  16.006  1.00  0.00     0.210 C 
ENDBRANCH  13  18
BRANCH  14  20
HETATM   20  O4  UNK     1      18.075  -5.001  13.094  1.00  0.00    -0.353 OA
HETATM   21  C17 UNK     1      18.778  -6.241  13.143  1.00  0.00     0.210 C 
ENDBRANCH  14  20
ENDBRANCH   3  12
BRANCH  10  22
HETATM   22  O5  UNK     1      18.656   2.362  20.734  1.00  0.00    -0.356 OA
HETATM   23  C18 UNK     1      19.581   2.283  21.816  1.00  0.00     0.210 C 
ENDBRANCH  10  22
TORSDOF 4
ENDMDL
MODEL 5
REMARK VINA RESULT:      -7.4      9.044     13.153
REMARK  4 active torsions:
REMARK  status: ('A' for Active; 'I' for Inactive)
REMARK    1  A    between atoms: C7_12  and  O2_2 
REMARK    2  A    between atoms: C11_16  and  O4_4 
REMARK    3  A    between atoms: C12_17  and  O5_5 
REMARK    4  A    between atoms: C1_6  and  C3_8 
ROOT
HETATM    1  O1  UNK     1      19.290  -3.140  37.679  1.00  0.00    -0.340 OA
HETATM    2  O3  UNK     1      20.303  -2.148  33.829  1.00  0.00    -0.292 OA
HETATM    3  C1  UNK     1      19.528  -4.160  36.695  1.00  0.00     0.172 C 
HETATM    4  C2  UNK     1      20.539  -3.690  35.651  1.00  0.00     0.121 C 
HETATM    5  C4  UNK     1      20.010  -2.449  34.979  1.00  0.00     0.165 C 
HETATM    6  C5  UNK     1      19.166  -1.570  35.816  1.00  0.00     0.046 A 
HETATM    7  C6  UNK     1      18.873  -1.956  37.128  1.00  0.00     0.083 A 
HETATM    8  C9  UNK     1      18.705  -0.350  35.319  1.00  0.00     0.054 A 
HETATM    9  C10 UNK     1      18.144  -1.101  37.955  1.00  0.00     0.040 A 
HETATM   10  C12 UNK     1      17.958   0.492  36.145  1.00  0.00     0.069 A 
HETATM   11  C14 UNK     1      17.682   0.119  37.461  1.00  0.00     0.039 A 
ENDROOT
BRANCH   3  12
HETATM   12  C3  UNK     1      20.018  -5.405  37.407  1.00  0.00     0.008 A 
HETATM   13  C7  UNK     1      19.197  -6.527  37.528  1.00  0.00     0.110 A 
HETATM   14  C11 UNK     1      19.663  -7.664  38.188  1.00  0.00     0.102 A 
HETATM   15  C15 UNK     1      20.951  -7.681  38.725  1.00  0.00     0.039 A 
HETATM   16  C13 UNK     1      21.771  -6.559  38.604  1.00  0.00     0.003 A 
HETATM   17  C8  UNK     1      21.305  -5.421  37.945  1.00  0.00     0.013 A 
BRANCH  13  18
HETATM   18  O2  UNK     1      17.938  -6.515  37.004  1.00  0.00    -0.352 OA
HETATM   19  C16 UNK     1      17.766  -7.114  35.722  1.00  0.00     0.210 C 
ENDBRANCH  13  18
BRANCH  14  20
HETATM   20  O4  UNK     1      18.872  -8.766  38.311  1.00  0.00    -0.353 OA
HETATM   21  C17 UNK     1      19.296  -9.947  37.632  1.00  0.00     0.210 C 
ENDBRANCH  14  20
ENDBRANCH   3  12
BRANCH  10  22
HETATM   22  O5  UNK     1      17.506   1.684  35.668  1.00  0.00    -0.356 OA
HETATM   23  C18 UNK     1      18.322   2.349  34.705  1.00  0.00     0.210 C 
ENDBRANCH  10  22
TORSDOF 4
ENDMDL
MODEL 6
REMARK VINA RESULT:      -7.4      1.957      7.948
REMARK  4 active torsions:
REMARK  status: ('A' for Active; 'I' for Inactive)
REMARK    1  A    between atoms: C7_12  and  O2_2 
REMARK    2  A    between atoms: C11_16  and  O4_4 
REMARK    3  A    between atoms: C12_17  and  O5_5 
REMARK    4  A    between atoms: C1_6  and  C3_8 
ROOT
HETATM    1  O1  UNK     1      17.990   4.185  33.033  1.00  0.00    -0.340 OA
HETATM    2  O3  UNK     1      19.142   6.437  29.803  1.00  0.00    -0.292 OA
HETATM    3  C1  UNK     1      18.136   3.587  31.735  1.00  0.00     0.172 C 
HETATM    4  C2  UNK     1      19.200   4.311  30.914  1.00  0.00     0.121 C 
HETATM    5  C4  UNK     1      18.806   5.759  30.765  1.00  0.00     0.165 C 
HETATM    6  C5  UNK     1      18.046   6.340  31.892  1.00  0.00     0.046 A 
HETATM    7  C6  UNK     1      17.700   5.524  32.973  1.00  0.00     0.083 A 
HETATM    8  C9  UNK     1      17.714   7.696  31.897  1.00  0.00     0.054 A 
HETATM    9  C10 UNK     1      17.050   6.075  34.078  1.00  0.00     0.040 A 
HETATM   10  C12 UNK     1      17.046   8.238  32.996  1.00  0.00     0.069 A 
HETATM   11  C14 UNK     1      16.719   7.430  34.086  1.00  0.00     0.039 A 
ENDROOT
BRANCH   3  12
HETATM   12  C3  UNK     1      18.490   2.126  31.919  1.00  0.00     0.008 A 
HETATM   13  C7  UNK     1      18.962   1.365  30.848  1.00  0.00     0.110 A 
HETATM   14  C11 UNK     1      19.282   0.020  31.035  1.00  0.00     0.102 A 
HETATM   15  C15 UNK     1      19.133  -0.564  32.292  1.00  0.00     0.039 A 
HETATM   16  C13 UNK     1      18.662   0.195  33.363  1.00  0.00     0.003 A 
HETATM   17  C8  UNK     1      18.341   1.540  33.176  1.00  0.00     0.013 A 
BRANCH  13  18
HETATM   18  O2  UNK     1      19.109   1.933  29.616  1.00  0.00    -0.352 OA
HETATM   19  C16 UNK     1      18.056   1.725  28.679  1.00  0.00     0.210 C 
ENDBRANCH  13  18
BRANCH  14  20
HETATM   20  O4  UNK     1      19.744  -0.732  29.997  1.00  0.00    -0.353 OA
HETATM   21  C17 UNK     1      20.225  -2.039  30.309  1.00  0.00     0.210 C 
ENDBRANCH  14  20
ENDBRANCH   3  12
BRANCH  10  22
HETATM   22  O5  UNK     1      16.721   9.560  33.009  1.00  0.00    -0.356 OA
HETATM   23  C18 UNK     1      16.338  10.121  34.263  1.00  0.00     0.210 C 
ENDBRANCH  10  22
TORSDOF 4
ENDMDL
MODEL 7
REMARK VINA RESULT:      -7.3      2.157      3.899
REMARK  4 active torsions:
REMARK  status: ('A' for Active; 'I' for Inactive)
REMARK    1  A    between atoms: C7_12  and  O2_2 
REMARK    2  A    between atoms: C11_16  and  O4_4 
REMARK    3  A    between atoms: C12_17  and  O5_5 
REMARK    4  A    between atoms: C1_6  and  C3_8 
ROOT
HETATM    1  O1  UNK     1      17.908   3.458  33.134  1.00  0.00    -0.340 OA
HETATM    2  O3  UNK     1      18.980   2.443  29.306  1.00  0.00    -0.292 OA
HETATM    3  C1  UNK     1      18.485   4.432  32.250  1.00  0.00     0.172 C 
HETATM    4  C2  UNK     1      18.138   4.125  30.795  1.00  0.00     0.121 C 
HETATM    5  C4  UNK     1      18.654   2.753  30.445  1.00  0.00     0.165 C 
HETATM    6  C5  UNK     1      18.676   1.770  31.550  1.00  0.00     0.046 A 
HETATM    7  C6  UNK     1      18.280   2.174  32.828  1.00  0.00     0.083 A 
HETATM    8  C9  UNK     1      19.047   0.446  31.310  1.00  0.00     0.054 A 
HETATM    9  C10 UNK     1      18.222   1.239  33.863  1.00  0.00     0.040 A 
HETATM   10  C12 UNK     1      19.006  -0.480  32.354  1.00  0.00     0.069 A 
HETATM   11  C14 UNK     1      18.590  -0.085  33.626  1.00  0.00     0.039 A 
ENDROOT
BRANCH   3  12
HETATM   12  C3  UNK     1      17.980   5.802  32.654  1.00  0.00     0.008 A 
HETATM   13  C7  UNK     1      18.800   6.688  33.354  1.00  0.00     0.110 A 
HETATM   14  C11 UNK     1      18.319   7.945  33.719  1.00  0.00     0.102 A 
HETATM   15  C15 UNK     1      17.017   8.318  33.385  1.00  0.00     0.039 A 
HETATM   16  C13 UNK     1      16.196   7.433  32.686  1.00  0.00     0.003 A 
HETATM   17  C8  UNK     1      16.677   6.175  32.321  1.00  0.00     0.013 A 
BRANCH  13  18
HETATM   18  O2  UNK     1      20.075   6.327  33.683  1.00  0.00    -0.352 OA
HETATM   19  C16 UNK     1      21.081   6.543  32.698  1.00  0.00     0.210 C 
ENDBRANCH  13  18
BRANCH  14  20
HETATM   20  O4  UNK     1      19.111   8.818  34.401  1.00  0.00    -0.353 OA
HETATM   21  C17 UNK     1      18.868  10.209  34.195  1.00  0.00     0.210 C 
ENDBRANCH  14  20
ENDBRANCH   3  12
BRANCH  10  22
HETATM   22  O5  UNK     1      19.364  -1.774  32.128  1.00  0.00    -0.356 OA
HETATM   23  C18 UNK     1      20.166  -2.034  30.977  1.00  0.00     0.210 C 
ENDBRANCH  10  22
TORSDOF 4
ENDMDL
MODEL 8
REMARK VINA RESULT:      -7.0      1.627      2.486
REMARK  4 active torsions:
REMARK  status: ('A' for Active; 'I' for Inactive)
REMARK    1  A    between atoms: C7_12  and  O2_2 
REMARK    2  A    between atoms: C11_16  and  O4_4 
REMARK    3  A    between atoms: C12_17  and  O5_5 
REMARK    4  A    between atoms: C1_6  and  C3_8 
ROOT
HETATM    1  O1  UNK     1      18.399   5.244  33.787  1.00  0.00    -0.340 OA
HETATM    2  O3  UNK     1      18.818   4.164  29.851  1.00  0.00    -0.292 OA
HETATM    3  C1  UNK     1      19.130   6.075  32.871  1.00  0.00     0.172 C 
HETATM    4  C2  UNK     1      18.585   5.937  31.451  1.00  0.00     0.121 C 
HETATM    5  C4  UNK     1      18.689   4.495  31.023  1.00  0.00     0.165 C 
HETATM    6  C5  UNK     1      18.550   3.491  32.098  1.00  0.00     0.046 A 
HETATM    7  C6  UNK     1      18.390   3.924  33.418  1.00  0.00     0.083 A 
HETATM    8  C9  UNK     1      18.537   2.127  31.795  1.00  0.00     0.054 A 
HETATM    9  C10 UNK     1      18.182   2.989  34.433  1.00  0.00     0.040 A 
HETATM   10  C12 UNK     1      18.348   1.197  32.818  1.00  0.00     0.069 A 
HETATM   11  C14 UNK     1      18.166   1.628  34.134  1.00  0.00     0.039 A 
ENDROOT
BRANCH   3  12
HETATM   12  C3  UNK     1      19.041   7.509  33.351  1.00  0.00     0.008 A 
HETATM   13  C7  UNK     1      17.865   8.244  33.194  1.00  0.00     0.110 A 
HETATM   14  C11 UNK     1      17.800   9.563  33.641  1.00  0.00     0.102 A 
HETATM   15  C15 UNK     1      18.912  10.149  34.247  1.00  0.00     0.039 A 
HETATM   16  C13 UNK     1      20.088   9.416  34.405  1.00  0.00     0.003 A 
HETATM   17  C8  UNK     1      20.152   8.096  33.957  1.00  0.00     0.013 A 
BRANCH  13  18
HETATM   18  O2  UNK     1      16.775   7.674  32.602  1.00  0.00    -0.352 OA
HETATM   19  C16 UNK     1      15.718   7.257  33.461  1.00  0.00     0.210 C 
ENDBRANCH  13  18
BRANCH  14  20
HETATM   20  O4  UNK     1      16.658  10.289  33.494  1.00  0.00    -0.353 OA
HETATM   21  C17 UNK     1      16.377  11.265  34.496  1.00  0.00     0.210 C 
ENDBRANCH  14  20
ENDBRANCH   3  12
BRANCH  10  22
HETATM   22  O5  UNK     1      18.331  -0.133  32.531  1.00  0.00    -0.356 OA
HETATM   23  C18 UNK     1      19.361  -0.625  31.676  1.00  0.00     0.210 C 
ENDBRANCH  10  22
TORSDOF 4
ENDMDL
MODEL 9
REMARK VINA RESULT:      -7.0      2.629      4.945
REMARK  4 active torsions:
REMARK  status: ('A' for Active; 'I' for Inactive)
REMARK    1  A    between atoms: C7_12  and  O2_2 
REMARK    2  A    between atoms: C11_16  and  O4_4 
REMARK    3  A    between atoms: C12_17  and  O5_5 
REMARK    4  A    between atoms: C1_6  and  C3_8 
ROOT
HETATM    1  O1  UNK     1      17.285   9.296  34.518  1.00  0.00    -0.340 OA
HETATM    2  O3  UNK     1      15.509   7.803  31.134  1.00  0.00    -0.292 OA
HETATM    3  C1  UNK     1      16.303  10.064  33.804  1.00  0.00     0.172 C 
HETATM    4  C2  UNK     1      15.295   9.153  33.107  1.00  0.00     0.121 C 
HETATM    5  C4  UNK     1      16.029   8.250  32.149  1.00  0.00     0.165 C 
HETATM    6  C5  UNK     1      17.403   7.871  32.543  1.00  0.00     0.046 A 
HETATM    7  C6  UNK     1      17.944   8.399  33.719  1.00  0.00     0.083 A 
HETATM    8  C9  UNK     1      18.134   6.963  31.773  1.00  0.00     0.054 A 
HETATM    9  C10 UNK     1      19.209   7.990  34.143  1.00  0.00     0.040 A 
HETATM   10  C12 UNK     1      19.407   6.574  32.193  1.00  0.00     0.069 A 
HETATM   11  C14 UNK     1      19.941   7.083  33.378  1.00  0.00     0.039 A 
ENDROOT
BRANCH   3  12
HETATM   12  C3  UNK     1      15.614  10.989  34.786  1.00  0.00     0.008 A 
HETATM   13  C7  UNK     1      16.035  12.311  34.938  1.00  0.00     0.110 A 
HETATM   14  C11 UNK     1      15.390  13.149  35.847  1.00  0.00     0.102 A 
HETATM   15  C15 UNK     1      14.322  12.667  36.604  1.00  0.00     0.039 A 
HETATM   16  C13 UNK     1      13.900  11.346  36.453  1.00  0.00     0.003 A 
HETATM   17  C8  UNK     1      14.546  10.508  35.544  1.00  0.00     0.013 A 
BRANCH  13  18
HETATM   18  O2  UNK     1      17.079  12.787  34.199  1.00  0.00    -0.352 OA
HETATM   19  C16 UNK     1      18.357  12.810  34.828  1.00  0.00     0.210 C 
ENDBRANCH  13  18
BRANCH  14  20
HETATM   20  O4  UNK     1      15.792  14.441  36.003  1.00  0.00    -0.353 OA
HETATM   21  C17 UNK     1      15.401  15.100  37.207  1.00  0.00     0.210 C 
ENDBRANCH  14  20
ENDBRANCH   3  12
BRANCH  10  22
HETATM   22  O5  UNK     1      20.125   5.688  31.450  1.00  0.00    -0.356 OA
HETATM   23  C18 UNK     1      20.078   5.843  30.033  1.00  0.00     0.210 C 
ENDBRANCH  10  22
TORSDOF 4
ENDMDL
MODEL 10
REMARK VINA RESULT:      -7.0     16.007     17.745
REMARK  4 active torsions:
REMARK  status: ('A' for Active; 'I' for Inactive)
REMARK    1  A    between atoms: C7_12  and  O2_2 
REMARK    2  A    between atoms: C11_16  and  O4_4 
REMARK    3  A    between atoms: C12_17  and  O5_5 
REMARK    4  A    between atoms: C1_6  and  C3_8 
ROOT
HETATM    1  O1  UNK     1      25.493  -6.703  38.727  1.00  0.00    -0.340 OA
HETATM    2  O3  UNK     1      27.653 -10.128  39.385  1.00  0.00    -0.292 OA
HETATM    3  C1  UNK     1      24.938  -7.992  38.418  1.00  0.00     0.172 C 
HETATM    4  C2  UNK     1      25.502  -9.067  39.345  1.00  0.00     0.121 C 
HETATM    5  C4  UNK     1      27.001  -9.109  39.195  1.00  0.00     0.165 C 
HETATM    6  C5  UNK     1      27.654  -7.823  38.874  1.00  0.00     0.046 A 
HETATM    7  C6  UNK     1      26.863  -6.687  38.680  1.00  0.00     0.083 A 
HETATM    8  C9  UNK     1      29.046  -7.734  38.807  1.00  0.00     0.054 A 
HETATM    9  C10 UNK     1      27.469  -5.450  38.453  1.00  0.00     0.040 A 
HETATM   10  C12 UNK     1      29.646  -6.498  38.559  1.00  0.00     0.069 A 
HETATM   11  C14 UNK     1      28.859  -5.358  38.387  1.00  0.00     0.039 A 
ENDROOT
BRANCH   3  12
HETATM   12  C3  UNK     1      23.431  -7.904  38.537  1.00  0.00     0.008 A 
HETATM   13  C7  UNK     1      22.607  -8.316  37.488  1.00  0.00     0.110 A 
HETATM   14  C11 UNK     1      21.221  -8.228  37.614  1.00  0.00     0.102 A 
HETATM   15  C15 UNK     1      20.657  -7.729  38.788  1.00  0.00     0.039 A 
HETATM   16  C13 UNK     1      21.479  -7.317  39.837  1.00  0.00     0.003 A 
HETATM   17  C8  UNK     1      22.866  -7.405  39.711  1.00  0.00     0.013 A 
BRANCH  13  18
HETATM   18  O2  UNK     1      23.155  -8.805  36.338  1.00  0.00    -0.352 OA
HETATM   19  C16 UNK     1      23.136 -10.219  36.164  1.00  0.00     0.210 C 
ENDBRANCH  13  18
BRANCH  14  20
HETATM   20  O4  UNK     1      20.406  -8.628  36.597  1.00  0.00    -0.353 OA
HETATM   21  C17 UNK     1      19.060  -8.954  36.937  1.00  0.00     0.210 C 
ENDBRANCH  14  20
ENDBRANCH   3  12
BRANCH  10  22
HETATM   22  O5  UNK     1      31.002  -6.403  38.495  1.00  0.00    -0.356 OA
HETATM   23  C18 UNK     1      31.554  -5.096  38.342  1.00  0.00     0.210 C 
ENDBRANCH  10  22
TORSDOF 4
ENDMDL
