MODEL 1
REMARK VINA RESULT:      -9.5      0.000      0.000
REMARK  2 active torsions:
REMARK  status: ('A' for Active; 'I' for Inactive)
REMARK    1  A    between atoms: C5_10  and  N1_5 
REMARK       I    between atoms: C6_11  and  N1_5 
REMARK    2  A    between atoms: C2_7  and  C6_11 
ROOT
HETATM    1  O2  UNK     1      17.604   3.335  32.926  1.00  0.00    -0.267 OA
HETATM    2  N1  UNK     1      18.602   4.857  31.431  1.00  0.00    -0.323 N 
HETATM    3  C6  UNK     1      18.229   3.605  31.901  1.00  0.00     0.262 C 
HETATM    4  H3  UNK     1      19.140   4.909  30.570  1.00  0.00     0.169 HD
ENDROOT
BRANCH   3   5
HETATM    5  C2  UNK     1      18.670   2.525  31.012  1.00  0.00     0.108 A 
HETATM    6  C10 UNK     1      18.662   2.669  29.538  1.00  0.00     0.304 A 
HETATM    7  O1  UNK     1      19.102   1.573  28.801  1.00  0.00    -0.274 OA
HETATM    8  O3  UNK     1      18.286   3.699  28.990  1.00  0.00    -0.259 OA
HETATM    9  C3  UNK     1      19.536   0.386  29.420  1.00  0.00     0.089 A 
HETATM   10  C1  UNK     1      19.536   0.271  30.807  1.00  0.00    -0.001 A 
HETATM   11  C12 UNK     1      19.961  -0.657  28.599  1.00  0.00     0.038 A 
HETATM   12  C4  UNK     1      19.080   1.399  31.606  1.00  0.00     0.037 A 
HETATM   13  C9  UNK     1      19.973  -0.923  31.386  1.00  0.00     0.014 A 
HETATM   14  C15 UNK     1      20.402  -1.977  30.574  1.00  0.00     0.001 A 
HETATM   15  C16 UNK     1      20.396  -1.844  29.184  1.00  0.00     0.003 A 
ENDBRANCH   3   5
BRANCH   2  16
HETATM   16  C5  UNK     1      18.346   6.116  32.028  1.00  0.00     0.035 A 
HETATM   17  C11 UNK     1      17.164   6.775  31.733  1.00  0.00     0.031 A 
HETATM   18  C14 UNK     1      16.911   8.014  32.321  1.00  0.00     0.022 A 
HETATM   19  C13 UNK     1      17.843   8.576  33.194  1.00  0.00     0.017 A 
HETATM   20 Br1  UNK     1      17.454  10.263  33.968  1.00  0.00    -0.051 Br
HETATM   21  C7  UNK     1      19.028   7.898  33.479  1.00  0.00    -0.043 A 
HETATM   22  C17 UNK     1      20.056   8.460  34.408  1.00  0.00     0.049 C 
HETATM   23  C8  UNK     1      19.282   6.658  32.891  1.00  0.00     0.037 A 
ENDBRANCH   2  16
TORSDOF 2
ENDMDL
MODEL 2
REMARK VINA RESULT:      -9.4      8.434     12.057
REMARK  2 active torsions:
REMARK  status: ('A' for Active; 'I' for Inactive)
REMARK    1  A    between atoms: C5_10  and  N1_5 
REMARK       I    between atoms: C6_11  and  N1_5 
REMARK    2  A    between atoms: C2_7  and  C6_11 
ROOT
HETATM    1  O2  UNK     1      21.269  -4.184  37.215  1.00  0.00    -0.267 OA
HETATM    2  N1  UNK     1      19.322  -5.131  36.289  1.00  0.00    -0.323 N 
HETATM    3  C6  UNK     1      20.191  -4.102  36.628  1.00  0.00     0.262 C 
HETATM    4  H3  UNK     1      18.452  -4.892  35.820  1.00  0.00     0.169 HD
ENDROOT
BRANCH   3   5
HETATM    5  C2  UNK     1      19.693  -2.791  36.200  1.00  0.00     0.108 A 
HETATM    6  C10 UNK     1      19.947  -2.259  34.841  1.00  0.00     0.304 A 
HETATM    7  O1  UNK     1      19.424  -1.002  34.553  1.00  0.00    -0.274 OA
HETATM    8  O3  UNK     1      20.589  -2.891  34.009  1.00  0.00    -0.259 OA
HETATM    9  C3  UNK     1      18.687  -0.269  35.502  1.00  0.00     0.089 A 
HETATM   10  C1  UNK     1      18.458  -0.786  36.773  1.00  0.00    -0.001 A 
HETATM   11  C12 UNK     1      18.200   0.981  35.122  1.00  0.00     0.038 A 
HETATM   12  C4  UNK     1      18.993  -2.098  37.106  1.00  0.00     0.037 A 
HETATM   13  C9  UNK     1      17.722  -0.029  37.689  1.00  0.00     0.014 A 
HETATM   14  C15 UNK     1      17.228   1.226  37.320  1.00  0.00     0.001 A 
HETATM   15  C16 UNK     1      17.467   1.729  36.039  1.00  0.00     0.003 A 
ENDBRANCH   3   5
BRANCH   2  16
HETATM   16  C5  UNK     1      19.480  -6.515  36.543  1.00  0.00     0.035 A 
HETATM   17  C11 UNK     1      18.761  -7.099  37.572  1.00  0.00     0.031 A 
HETATM   18  C14 UNK     1      18.915  -8.462  37.822  1.00  0.00     0.022 A 
HETATM   19  C13 UNK     1      19.785  -9.221  37.039  1.00  0.00     0.017 A 
HETATM   20 Br1  UNK     1      19.962 -11.071  37.417  1.00  0.00    -0.051 Br
HETATM   21  C7  UNK     1      20.502  -8.616  36.006  1.00  0.00    -0.043 A 
HETATM   22  C17 UNK     1      21.445  -9.389  35.141  1.00  0.00     0.049 C 
HETATM   23  C8  UNK     1      20.347  -7.252  35.756  1.00  0.00     0.037 A 
ENDBRANCH   2  16
TORSDOF 2
ENDMDL
MODEL 3
REMARK VINA RESULT:      -9.2      1.186      2.076
REMARK  2 active torsions:
REMARK  status: ('A' for Active; 'I' for Inactive)
REMARK    1  A    between atoms: C5_10  and  N1_5 
REMARK       I    between atoms: C6_11  and  N1_5 
REMARK    2  A    between atoms: C2_7  and  C6_11 
ROOT
HETATM    1  O2  UNK     1      18.221   4.546  30.408  1.00  0.00    -0.267 OA
HETATM    2  N1  UNK     1      18.284   4.576  32.762  1.00  0.00    -0.323 N 
HETATM    3  C6  UNK     1      18.366   4.001  31.501  1.00  0.00     0.262 C 
HETATM    4  H3  UNK     1      18.409   3.977  33.574  1.00  0.00     0.169 HD
ENDROOT
BRANCH   3   5
HETATM    5  C2  UNK     1      18.665   2.566  31.564  1.00  0.00     0.108 A 
HETATM    6  C10 UNK     1      18.339   1.747  32.754  1.00  0.00     0.304 A 
HETATM    7  O1  UNK     1      18.672   0.398  32.695  1.00  0.00    -0.274 OA
HETATM    8  O3  UNK     1      17.802   2.231  33.745  1.00  0.00    -0.259 OA
HETATM    9  C3  UNK     1      19.288  -0.167  31.562  1.00  0.00     0.089 A 
HETATM   10  C1  UNK     1      19.586   0.619  30.454  1.00  0.00    -0.001 A 
HETATM   11  C12 UNK     1      19.583  -1.529  31.595  1.00  0.00     0.038 A 
HETATM   12  C4  UNK     1      19.251   2.034  30.485  1.00  0.00     0.037 A 
HETATM   13  C9  UNK     1      20.198   0.024  29.348  1.00  0.00     0.014 A 
HETATM   14  C15 UNK     1      20.500  -1.342  29.367  1.00  0.00     0.001 A 
HETATM   15  C16 UNK     1      20.193  -2.116  30.489  1.00  0.00     0.003 A 
ENDBRANCH   3   5
BRANCH   2  16
HETATM   16  C5  UNK     1      18.014   5.929  33.078  1.00  0.00     0.035 A 
HETATM   17  C11 UNK     1      16.738   6.429  32.878  1.00  0.00     0.031 A 
HETATM   18  C14 UNK     1      16.471   7.761  33.190  1.00  0.00     0.022 A 
HETATM   19  C13 UNK     1      17.484   8.575  33.699  1.00  0.00     0.017 A 
HETATM   20 Br1  UNK     1      17.072  10.381  34.108  1.00  0.00    -0.051 Br
HETATM   21  C7  UNK     1      18.763   8.056  33.894  1.00  0.00    -0.043 A 
HETATM   22  C17 UNK     1      19.880   8.889  34.436  1.00  0.00     0.049 C 
HETATM   23  C8  UNK     1      19.031   6.723  33.581  1.00  0.00     0.037 A 
ENDBRANCH   2  16
TORSDOF 2
ENDMDL
MODEL 4
REMARK VINA RESULT:      -8.9      1.316      2.642
REMARK  2 active torsions:
REMARK  status: ('A' for Active; 'I' for Inactive)
REMARK    1  A    between atoms: C5_10  and  N1_5 
REMARK       I    between atoms: C6_11  and  N1_5 
REMARK    2  A    between atoms: C2_7  and  C6_11 
ROOT
HETATM    1  O2  UNK     1      18.291   4.586  30.422  1.00  0.00    -0.267 OA
HETATM    2  N1  UNK     1      18.012   4.537  32.760  1.00  0.00    -0.323 N 
HETATM    3  C6  UNK     1      18.291   4.007  31.507  1.00  0.00     0.262 C 
HETATM    4  H3  UNK     1      18.034   3.913  33.563  1.00  0.00     0.169 HD
ENDROOT
BRANCH   3   5
HETATM    5  C2  UNK     1      18.615   2.578  31.569  1.00  0.00     0.108 A 
HETATM    6  C10 UNK     1      18.339   1.761  32.773  1.00  0.00     0.304 A 
HETATM    7  O1  UNK     1      18.693   0.416  32.712  1.00  0.00    -0.274 OA
HETATM    8  O3  UNK     1      17.826   2.242  33.778  1.00  0.00    -0.259 OA
HETATM    9  C3  UNK     1      19.282  -0.145  31.563  1.00  0.00     0.089 A 
HETATM   10  C1  UNK     1      19.533   0.639  30.442  1.00  0.00    -0.001 A 
HETATM   11  C12 UNK     1      19.600  -1.502  31.594  1.00  0.00     0.038 A 
HETATM   12  C4  UNK     1      19.175   2.049  30.475  1.00  0.00     0.037 A 
HETATM   13  C9  UNK     1      20.120   0.047  29.321  1.00  0.00     0.014 A 
HETATM   14  C15 UNK     1      20.444  -1.313  29.338  1.00  0.00     0.001 A 
HETATM   15  C16 UNK     1      20.184  -2.086  30.473  1.00  0.00     0.003 A 
ENDBRANCH   3   5
BRANCH   2  16
HETATM   16  C5  UNK     1      17.664   5.872  33.075  1.00  0.00     0.035 A 
HETATM   17  C11 UNK     1      18.582   6.672  33.736  1.00  0.00     0.031 A 
HETATM   18  C14 UNK     1      18.240   7.987  34.046  1.00  0.00     0.022 A 
HETATM   19  C13 UNK     1      16.986   8.485  33.692  1.00  0.00     0.017 A 
HETATM   20 Br1  UNK     1      16.567  10.281  34.136  1.00  0.00    -0.051 Br
HETATM   21  C7  UNK     1      16.074   7.666  33.027  1.00  0.00    -0.043 A 
HETATM   22  C17 UNK     1      14.719   8.155  32.627  1.00  0.00     0.049 C 
HETATM   23  C8  UNK     1      16.415   6.349  32.716  1.00  0.00     0.037 A 
ENDBRANCH   2  16
TORSDOF 2
ENDMDL
MODEL 5
REMARK VINA RESULT:      -8.8     14.688     16.248
REMARK  2 active torsions:
REMARK  status: ('A' for Active; 'I' for Inactive)
REMARK    1  A    between atoms: C5_10  and  N1_5 
REMARK       I    between atoms: C6_11  and  N1_5 
REMARK    2  A    between atoms: C2_7  and  C6_11 
ROOT
HETATM    1  O2  UNK     1      26.180  -9.118  39.403  1.00  0.00    -0.267 OA
HETATM    2  N1  UNK     1      24.777  -7.483  38.452  1.00  0.00    -0.323 N 
HETATM    3  C6  UNK     1      25.974  -8.004  38.923  1.00  0.00     0.262 C 
HETATM    4  H3  UNK     1      24.771  -6.528  38.103  1.00  0.00     0.169 HD
ENDROOT
BRANCH   3   5
HETATM    5  C2  UNK     1      27.082  -7.049  38.800  1.00  0.00     0.108 A 
HETATM    6  C10 UNK     1      26.861  -5.585  38.810  1.00  0.00     0.304 A 
HETATM    7  O1  UNK     1      27.990  -4.781  38.685  1.00  0.00    -0.274 OA
HETATM    8  O3  UNK     1      25.740  -5.099  38.922  1.00  0.00    -0.259 OA
HETATM    9  C3  UNK     1      29.281  -5.328  38.556  1.00  0.00     0.089 A 
HETATM   10  C1  UNK     1      29.467  -6.707  38.549  1.00  0.00    -0.001 A 
HETATM   11  C12 UNK     1      30.352  -4.443  38.438  1.00  0.00     0.038 A 
HETATM   12  C4  UNK     1      28.306  -7.574  38.678  1.00  0.00     0.037 A 
HETATM   13  C9  UNK     1      30.763  -7.213  38.418  1.00  0.00     0.014 A 
HETATM   14  C15 UNK     1      31.847  -6.337  38.299  1.00  0.00     0.001 A 
HETATM   15  C16 UNK     1      31.641  -4.955  38.309  1.00  0.00     0.003 A 
ENDBRANCH   3   5
BRANCH   2  16
HETATM   16  C5  UNK     1      23.513  -8.119  38.414  1.00  0.00     0.035 A 
HETATM   17  C11 UNK     1      22.712  -8.097  39.544  1.00  0.00     0.031 A 
HETATM   18  C14 UNK     1      21.466  -8.723  39.508  1.00  0.00     0.022 A 
HETATM   19  C13 UNK     1      21.040  -9.361  38.343  1.00  0.00     0.017 A 
HETATM   20 Br1  UNK     1      19.338 -10.198  38.342  1.00  0.00    -0.051 Br
HETATM   21  C7  UNK     1      21.859  -9.374  37.215  1.00  0.00    -0.043 A 
HETATM   22  C17 UNK     1      21.445 -10.044  35.944  1.00  0.00     0.049 C 
HETATM   23  C8  UNK     1      23.106  -8.748  37.250  1.00  0.00     0.037 A 
ENDBRANCH   2  16
TORSDOF 2
ENDMDL
MODEL 6
REMARK VINA RESULT:      -8.6      8.473     10.443
REMARK  2 active torsions:
REMARK  status: ('A' for Active; 'I' for Inactive)
REMARK    1  A    between atoms: C5_10  and  N1_5 
REMARK       I    between atoms: C6_11  and  N1_5 
REMARK    2  A    between atoms: C2_7  and  C6_11 
ROOT
HETATM    1  O2  UNK     1      21.343  -3.945  37.206  1.00  0.00    -0.267 OA
HETATM    2  N1  UNK     1      19.188  -3.841  36.263  1.00  0.00    -0.323 N 
HETATM    3  C6  UNK     1      20.313  -4.467  36.783  1.00  0.00     0.262 C 
HETATM    4  H3  UNK     1      18.421  -4.422  35.934  1.00  0.00     0.169 HD
ENDROOT
BRANCH   3   5
HETATM    5  C2  UNK     1      20.179  -5.927  36.796  1.00  0.00     0.108 A 
HETATM    6  C10 UNK     1      20.194  -6.729  35.551  1.00  0.00     0.304 A 
HETATM    7  O1  UNK     1      20.057  -8.106  35.692  1.00  0.00    -0.274 OA
HETATM    8  O3  UNK     1      20.320  -6.209  34.447  1.00  0.00    -0.259 OA
HETATM    9  C3  UNK     1      19.912  -8.714  36.954  1.00  0.00     0.089 A 
HETATM   10  C1  UNK     1      19.900  -7.943  38.112  1.00  0.00    -0.001 A 
HETATM   11  C12 UNK     1      19.783 -10.101  36.996  1.00  0.00     0.038 A 
HETATM   12  C4  UNK     1      20.041  -6.499  37.998  1.00  0.00     0.037 A 
HETATM   13  C9  UNK     1      19.753  -8.580  39.347  1.00  0.00     0.014 A 
HETATM   14  C15 UNK     1      19.623  -9.972  39.403  1.00  0.00     0.001 A 
HETATM   15  C16 UNK     1      19.638 -10.730  38.230  1.00  0.00     0.003 A 
ENDBRANCH   3   5
BRANCH   2  16
HETATM   16  C5  UNK     1      18.969  -2.451  36.101  1.00  0.00     0.035 A 
HETATM   17  C11 UNK     1      19.298  -1.851  34.897  1.00  0.00     0.031 A 
HETATM   18  C14 UNK     1      19.082  -0.483  34.736  1.00  0.00     0.022 A 
HETATM   19  C13 UNK     1      18.540   0.265  35.782  1.00  0.00     0.017 A 
HETATM   20 Br1  UNK     1      18.265   2.123  35.516  1.00  0.00    -0.051 Br
HETATM   21  C7  UNK     1      18.216  -0.355  36.988  1.00  0.00    -0.043 A 
HETATM   22  C17 UNK     1      17.633   0.406  38.136  1.00  0.00     0.049 C 
HETATM   23  C8  UNK     1      18.432  -1.724  37.149  1.00  0.00     0.037 A 
ENDBRANCH   2  16
TORSDOF 2
ENDMDL
MODEL 7
REMARK VINA RESULT:      -8.5      6.640      9.896
REMARK  2 active torsions:
REMARK  status: ('A' for Active; 'I' for Inactive)
REMARK    1  A    between atoms: C5_10  and  N1_5 
REMARK       I    between atoms: C6_11  and  N1_5 
REMARK    2  A    between atoms: C2_7  and  C6_11 
ROOT
HETATM    1  O2  UNK     1      18.821  -1.800  36.371  1.00  0.00    -0.267 OA
HETATM    2  N1  UNK     1      19.843  -3.548  35.168  1.00  0.00    -0.323 N 
HETATM    3  C6  UNK     1      19.280  -2.290  35.340  1.00  0.00     0.262 C 
HETATM    4  H3  UNK     1      20.159  -3.811  34.238  1.00  0.00     0.169 HD
ENDROOT
BRANCH   3   5
HETATM    5  C2  UNK     1      19.270  -1.512  34.097  1.00  0.00     0.108 A 
HETATM    6  C10 UNK     1      18.645  -0.172  34.014  1.00  0.00     0.304 A 
HETATM    7  O1  UNK     1      18.697   0.468  32.779  1.00  0.00    -0.274 OA
HETATM    8  O3  UNK     1      18.105   0.352  34.983  1.00  0.00    -0.259 OA
HETATM    9  C3  UNK     1      19.314  -0.125  31.661  1.00  0.00     0.089 A 
HETATM   10  C1  UNK     1      19.896  -1.385  31.759  1.00  0.00    -0.001 A 
HETATM   11  C12 UNK     1      19.320   0.593  30.467  1.00  0.00     0.038 A 
HETATM   12  C4  UNK     1      19.857  -2.080  33.037  1.00  0.00     0.037 A 
HETATM   13  C9  UNK     1      20.498  -1.941  30.628  1.00  0.00     0.014 A 
HETATM   14  C15 UNK     1      20.511  -1.231  29.423  1.00  0.00     0.001 A 
HETATM   15  C16 UNK     1      19.923   0.033  29.343  1.00  0.00     0.003 A 
ENDBRANCH   3   5
BRANCH   2  16
HETATM   16  C5  UNK     1      20.017  -4.558  36.144  1.00  0.00     0.035 A 
HETATM   17  C11 UNK     1      20.877  -4.331  37.205  1.00  0.00     0.031 A 
HETATM   18  C14 UNK     1      21.049  -5.325  38.168  1.00  0.00     0.022 A 
HETATM   19  C13 UNK     1      20.358  -6.532  38.056  1.00  0.00     0.017 A 
HETATM   20 Br1  UNK     1      20.624  -7.853  39.390  1.00  0.00    -0.051 Br
HETATM   21  C7  UNK     1      19.495  -6.744  36.980  1.00  0.00    -0.043 A 
HETATM   22  C17 UNK     1      18.733  -8.020  36.818  1.00  0.00     0.049 C 
HETATM   23  C8  UNK     1      19.323  -5.749  36.017  1.00  0.00     0.037 A 
ENDBRANCH   2  16
TORSDOF 2
ENDMDL
MODEL 8
REMARK VINA RESULT:      -8.4     14.904     18.735
REMARK  2 active torsions:
REMARK  status: ('A' for Active; 'I' for Inactive)
REMARK    1  A    between atoms: C5_10  and  N1_5 
REMARK       I    between atoms: C6_11  and  N1_5 
REMARK    2  A    between atoms: C2_7  and  C6_11 
ROOT
HETATM    1  O2  UNK     1      17.853  -3.284  15.809  1.00  0.00    -0.267 OA
HETATM    2  N1  UNK     1      20.032  -3.073  14.941  1.00  0.00    -0.323 N 
HETATM    3  C6  UNK     1      18.879  -2.644  15.584  1.00  0.00     0.262 C 
HETATM    4  H3  UNK     1      20.790  -2.408  14.815  1.00  0.00     0.169 HD
ENDROOT
BRANCH   3   5
HETATM    5  C2  UNK     1      18.974  -1.246  16.019  1.00  0.00     0.108 A 
HETATM    6  C10 UNK     1      19.254  -0.145  15.069  1.00  0.00     0.304 A 
HETATM    7  O1  UNK     1      19.322   1.139  15.602  1.00  0.00    -0.274 OA
HETATM    8  O3  UNK     1      19.420  -0.350  13.871  1.00  0.00    -0.259 OA
HETATM    9  C3  UNK     1      19.134   1.385  16.975  1.00  0.00     0.089 A 
HETATM   10  C1  UNK     1      18.871   0.337  17.851  1.00  0.00    -0.001 A 
HETATM   11  C12 UNK     1      19.218   2.704  17.416  1.00  0.00     0.038 A 
HETATM   12  C4  UNK     1      18.795  -1.018  17.325  1.00  0.00     0.037 A 
HETATM   13  C9  UNK     1      18.690   0.619  19.208  1.00  0.00     0.014 A 
HETATM   14  C15 UNK     1      18.772   1.939  19.664  1.00  0.00     0.001 A 
HETATM   15  C16 UNK     1      19.036   2.979  18.769  1.00  0.00     0.003 A 
ENDBRANCH   3   5
BRANCH   2  16
HETATM   16  C5  UNK     1      20.291  -4.354  14.395  1.00  0.00     0.035 A 
HETATM   17  C11 UNK     1      20.768  -5.357  15.222  1.00  0.00     0.031 A 
HETATM   18  C14 UNK     1      21.022  -6.618  14.685  1.00  0.00     0.022 A 
HETATM   19  C13 UNK     1      20.796  -6.858  13.329  1.00  0.00     0.017 A 
HETATM   20 Br1  UNK     1      21.157  -8.590  12.645  1.00  0.00    -0.051 Br
HETATM   21  C7  UNK     1      20.316  -5.836  12.511  1.00  0.00    -0.043 A 
HETATM   22  C17 UNK     1      20.058  -6.046  11.053  1.00  0.00     0.049 C 
HETATM   23  C8  UNK     1      20.061  -4.574  13.048  1.00  0.00     0.037 A 
ENDBRANCH   2  16
TORSDOF 2
ENDMDL
MODEL 9
REMARK VINA RESULT:      -8.3      3.358      8.193
REMARK  2 active torsions:
REMARK  status: ('A' for Active; 'I' for Inactive)
REMARK    1  A    between atoms: C5_10  and  N1_5 
REMARK       I    between atoms: C6_11  and  N1_5 
REMARK    2  A    between atoms: C2_7  and  C6_11 
ROOT
HETATM    1  O2  UNK     1      19.761   5.498  31.131  1.00  0.00    -0.267 OA
HETATM    2  N1  UNK     1      17.997   3.992  31.539  1.00  0.00    -0.323 N 
HETATM    3  C6  UNK     1      18.695   5.185  31.660  1.00  0.00     0.262 C 
HETATM    4  H3  UNK     1      17.133   3.882  32.064  1.00  0.00     0.169 HD
ENDROOT
BRANCH   3   5
HETATM    5  C2  UNK     1      18.015   6.139  32.543  1.00  0.00     0.108 A 
HETATM    6  C10 UNK     1      18.575   6.532  33.856  1.00  0.00     0.304 A 
HETATM    7  O1  UNK     1      17.837   7.443  34.605  1.00  0.00    -0.274 OA
HETATM    8  O3  UNK     1      19.637   6.078  34.269  1.00  0.00    -0.259 OA
HETATM    9  C3  UNK     1      16.616   7.970  34.140  1.00  0.00     0.089 A 
HETATM   10  C1  UNK     1      16.106   7.588  32.903  1.00  0.00    -0.001 A 
HETATM   11  C12 UNK     1      15.948   8.879  34.959  1.00  0.00     0.038 A 
HETATM   12  C4  UNK     1      16.855   6.636  32.097  1.00  0.00     0.037 A 
HETATM   13  C9  UNK     1      14.892   8.132  32.476  1.00  0.00     0.014 A 
HETATM   14  C15 UNK     1      14.212   9.045  33.287  1.00  0.00     0.001 A 
HETATM   15  C16 UNK     1      14.739   9.417  34.526  1.00  0.00     0.003 A 
ENDBRANCH   3   5
BRANCH   2  16
HETATM   16  C5  UNK     1      18.354   2.856  30.773  1.00  0.00     0.035 A 
HETATM   17  C11 UNK     1      18.001   2.804  29.435  1.00  0.00     0.031 A 
HETATM   18  C14 UNK     1      18.353   1.686  28.680  1.00  0.00     0.022 A 
HETATM   19  C13 UNK     1      19.054   0.636  29.273  1.00  0.00     0.017 A 
HETATM   20 Br1  UNK     1      19.510  -0.864  28.206  1.00  0.00    -0.051 Br
HETATM   21  C7  UNK     1      19.401   0.704  30.623  1.00  0.00    -0.043 A 
HETATM   22  C17 UNK     1      20.153  -0.396  31.301  1.00  0.00     0.049 C 
HETATM   23  C8  UNK     1      19.049   1.823  31.378  1.00  0.00     0.037 A 
ENDBRANCH   2  16
TORSDOF 2
ENDMDL
MODEL 10
REMARK VINA RESULT:      -8.3      3.008      4.041
REMARK  2 active torsions:
REMARK  status: ('A' for Active; 'I' for Inactive)
REMARK    1  A    between atoms: C5_10  and  N1_5 
REMARK       I    between atoms: C6_11  and  N1_5 
REMARK    2  A    between atoms: C2_7  and  C6_11 
ROOT
HETATM    1  O2  UNK     1      18.979   4.957  32.117  1.00  0.00    -0.267 OA
HETATM    2  N1  UNK     1      18.110   5.621  34.203  1.00  0.00    -0.323 N 
HETATM    3  C6  UNK     1      18.500   4.716  33.224  1.00  0.00     0.262 C 
HETATM    4  H3  UNK     1      17.708   5.258  35.063  1.00  0.00     0.169 HD
ENDROOT
BRANCH   3   5
HETATM    5  C2  UNK     1      18.282   3.325  33.637  1.00  0.00     0.108 A 
HETATM    6  C10 UNK     1      18.041   2.244  32.654  1.00  0.00     0.304 A 
HETATM    7  O1  UNK     1      17.846   0.965  33.167  1.00  0.00    -0.274 OA
HETATM    8  O3  UNK     1      18.011   2.459  31.448  1.00  0.00    -0.259 OA
HETATM    9  C3  UNK     1      17.878   0.706  34.551  1.00  0.00     0.089 A 
HETATM   10  C1  UNK     1      18.106   1.737  35.458  1.00  0.00    -0.001 A 
HETATM   11  C12 UNK     1      17.674  -0.607  34.971  1.00  0.00     0.038 A 
HETATM   12  C4  UNK     1      18.312   3.085  34.953  1.00  0.00     0.037 A 
HETATM   13  C9  UNK     1      18.129   1.442  36.823  1.00  0.00     0.014 A 
HETATM   14  C15 UNK     1      17.927   0.128  37.258  1.00  0.00     0.001 A 
HETATM   15  C16 UNK     1      17.700  -0.893  36.334  1.00  0.00     0.003 A 
ENDBRANCH   3   5
BRANCH   2  16
HETATM   16  C5  UNK     1      18.177   7.034  34.149  1.00  0.00     0.035 A 
HETATM   17  C11 UNK     1      17.023   7.756  33.896  1.00  0.00     0.031 A 
HETATM   18  C14 UNK     1      17.088   9.148  33.844  1.00  0.00     0.022 A 
HETATM   19  C13 UNK     1      18.306   9.798  34.046  1.00  0.00     0.017 A 
HETATM   20 Br1  UNK     1      18.344  11.692  33.965  1.00  0.00    -0.051 Br
HETATM   21  C7  UNK     1      19.459   9.055  34.299  1.00  0.00    -0.043 A 
HETATM   22  C17 UNK     1      20.786   9.707  34.523  1.00  0.00     0.049 C 
HETATM   23  C8  UNK     1      19.394   7.662  34.352  1.00  0.00     0.037 A 
ENDBRANCH   2  16
TORSDOF 2
ENDMDL
