MODEL 1
REMARK VINA RESULT:     -10.0      0.000      0.000
REMARK  3 active torsions:
REMARK  status: ('A' for Active; 'I' for Inactive)
REMARK    1  A    between atoms: C16_21  and  O3_3 
REMARK    2  A    between atoms: C6_11  and  O3_3 
REMARK    3  A    between atoms: C16_21  and  C9_14 
ROOT
HETATM    1  O2  UNK     1      16.387   8.433  33.189  1.00  0.00    -0.275 OA
HETATM    2  O5  UNK     1      15.650  10.458  33.957  1.00  0.00    -0.260 OA
HETATM    3  C1  UNK     1      18.749   7.854  33.423  1.00  0.00     0.004 A 
HETATM    4  C2  UNK     1      17.455   7.533  33.005  1.00  0.00     0.092 A 
HETATM    5  C3  UNK     1      18.978   9.156  34.064  1.00  0.00    -0.043 A 
HETATM    6  C5  UNK     1      19.756   6.905  33.204  1.00  0.00     0.017 A 
HETATM    7  C6  UNK     1      18.165   5.391  32.179  1.00  0.00     0.082 A 
HETATM    8  C7  UNK     1      17.151   6.319  32.387  1.00  0.00     0.075 A 
HETATM    9  C10 UNK     1      19.466   5.683  32.587  1.00  0.00     0.038 A 
HETATM   10  C12 UNK     1      17.942   9.991  34.227  1.00  0.00     0.090 A 
HETATM   11  C13 UNK     1      20.356   9.530  34.526  1.00  0.00     0.049 C 
HETATM   12  C17 UNK     1      16.573   9.668  33.791  1.00  0.00     0.288 A 
ENDROOT
BRANCH   7  13
HETATM   13  O3  UNK     1      17.890   4.201  31.579  1.00  0.00    -0.273 OA
BRANCH  13  14
HETATM   14  C16 UNK     1      18.135   3.060  32.372  1.00  0.00     0.322 C 
HETATM   15  O4  UNK     1      17.904   3.016  33.576  1.00  0.00    -0.257 OA
BRANCH  14  16
HETATM   16  C9  UNK     1      18.689   1.956  31.585  1.00  0.00     0.152 A 
HETATM   17  C11 UNK     1      19.029   1.902  30.281  1.00  0.00     0.058 A 
HETATM   18  C4  UNK     1      19.508   0.582  30.078  1.00  0.00     0.001 A 
HETATM   19  C14 UNK     1      20.015  -0.148  28.989  1.00  0.00     0.014 A 
HETATM   20  C8  UNK     1      19.408  -0.050  31.313  1.00  0.00     0.086 A 
HETATM   21  C18 UNK     1      20.399  -1.481  29.193  1.00  0.00     0.001 A 
HETATM   22  C19 UNK     1      20.281  -2.080  30.449  1.00  0.00     0.003 A 
HETATM   23  C15 UNK     1      19.780  -1.373  31.546  1.00  0.00     0.038 A 
HETATM   24  O1  UNK     1      18.899   0.807  32.242  1.00  0.00    -0.304 OA
ENDBRANCH  14  16
ENDBRANCH  13  14
ENDBRANCH   7  13
TORSDOF 3
ENDMDL
MODEL 2
REMARK VINA RESULT:      -9.5      2.718      8.473
REMARK  3 active torsions:
REMARK  status: ('A' for Active; 'I' for Inactive)
REMARK    1  A    between atoms: C16_21  and  O3_3 
REMARK    2  A    between atoms: C6_11  and  O3_3 
REMARK    3  A    between atoms: C16_21  and  C9_14 
ROOT
HETATM    1  O2  UNK     1      19.527  -0.889  33.197  1.00  0.00    -0.275 OA
HETATM    2  O5  UNK     1      19.552  -1.966  35.215  1.00  0.00    -0.260 OA
HETATM    3  C1  UNK     1      20.539  -1.970  31.254  1.00  0.00     0.004 A 
HETATM    4  C2  UNK     1      19.867  -0.890  31.830  1.00  0.00     0.092 A 
HETATM    5  C3  UNK     1      20.889  -3.115  32.105  1.00  0.00    -0.043 A 
HETATM    6  C5  UNK     1      20.841  -1.893  29.888  1.00  0.00     0.017 A 
HETATM    7  C6  UNK     1      19.807   0.294  29.739  1.00  0.00     0.082 A 
HETATM    8  C7  UNK     1      19.499   0.238  31.094  1.00  0.00     0.075 A 
HETATM    9  C10 UNK     1      20.477  -0.770  29.137  1.00  0.00     0.038 A 
HETATM   10  C12 UNK     1      20.552  -3.087  33.402  1.00  0.00     0.090 A 
HETATM   11  C13 UNK     1      21.611  -4.292  31.516  1.00  0.00     0.049 C 
HETATM   12  C17 UNK     1      19.844  -1.956  34.024  1.00  0.00     0.288 A 
ENDROOT
BRANCH   7  13
HETATM   13  O3  UNK     1      19.457   1.383  29.003  1.00  0.00    -0.273 OA
BRANCH  13  14
HETATM   14  C16 UNK     1      18.250   2.005  29.389  1.00  0.00     0.322 C 
HETATM   15  O4  UNK     1      17.145   1.587  29.059  1.00  0.00    -0.257 OA
BRANCH  14  16
HETATM   16  C9  UNK     1      18.486   3.189  30.217  1.00  0.00     0.152 A 
HETATM   17  C11 UNK     1      19.141   4.333  29.933  1.00  0.00     0.058 A 
HETATM   18  C4  UNK     1      19.048   5.116  31.113  1.00  0.00     0.001 A 
HETATM   19  C14 UNK     1      19.493   6.387  31.515  1.00  0.00     0.014 A 
HETATM   20  C8  UNK     1      18.324   4.347  32.020  1.00  0.00     0.086 A 
HETATM   21  C18 UNK     1      19.189   6.827  32.812  1.00  0.00     0.001 A 
HETATM   22  C19 UNK     1      18.461   6.023  33.693  1.00  0.00     0.003 A 
HETATM   23  C15 UNK     1      18.009   4.756  33.314  1.00  0.00     0.038 A 
HETATM   24  O1  UNK     1      17.980   3.154  31.458  1.00  0.00    -0.304 OA
ENDBRANCH  14  16
ENDBRANCH  13  14
ENDBRANCH   7  13
TORSDOF 3
ENDMDL
MODEL 3
REMARK VINA RESULT:      -9.3      5.224      8.943
REMARK  3 active torsions:
REMARK  status: ('A' for Active; 'I' for Inactive)
REMARK    1  A    between atoms: C16_21  and  O3_3 
REMARK    2  A    between atoms: C6_11  and  O3_3 
REMARK    3  A    between atoms: C16_21  and  C9_14 
ROOT
HETATM    1  O2  UNK     1      18.434   1.106  31.747  1.00  0.00    -0.275 OA
HETATM    2  O5  UNK     1      17.985   2.689  30.158  1.00  0.00    -0.260 OA
HETATM    3  C1  UNK     1      19.897  -0.768  31.187  1.00  0.00     0.004 A 
HETATM    4  C2  UNK     1      19.094  -0.086  32.104  1.00  0.00     0.092 A 
HETATM    5  C3  UNK     1      20.044  -0.215  29.834  1.00  0.00    -0.043 A 
HETATM    6  C5  UNK     1      20.519  -1.946  31.619  1.00  0.00     0.017 A 
HETATM    7  C6  UNK     1      19.526  -1.714  33.818  1.00  0.00     0.082 A 
HETATM    8  C7  UNK     1      18.900  -0.542  33.409  1.00  0.00     0.075 A 
HETATM    9  C10 UNK     1      20.335  -2.416  32.925  1.00  0.00     0.038 A 
HETATM   10  C12 UNK     1      19.405   0.921  29.523  1.00  0.00     0.090 A 
HETATM   11  C13 UNK     1      20.901  -0.924  28.826  1.00  0.00     0.049 C 
HETATM   12  C17 UNK     1      18.554   1.651  30.479  1.00  0.00     0.288 A 
ENDROOT
BRANCH   7  13
HETATM   13  O3  UNK     1      19.352  -2.176  35.086  1.00  0.00    -0.273 OA
BRANCH  13  14
HETATM   14  C16 UNK     1      20.530  -2.598  35.738  1.00  0.00     0.322 C 
HETATM   15  O4  UNK     1      21.581  -1.967  35.698  1.00  0.00    -0.257 OA
BRANCH  14  16
HETATM   16  C9  UNK     1      20.337  -3.860  36.454  1.00  0.00     0.152 A 
HETATM   17  C11 UNK     1      19.291  -4.713  36.448  1.00  0.00     0.058 A 
HETATM   18  C4  UNK     1      19.664  -5.761  37.329  1.00  0.00     0.001 A 
HETATM   19  C14 UNK     1      19.071  -6.952  37.784  1.00  0.00     0.014 A 
HETATM   20  C8  UNK     1      20.933  -5.431  37.794  1.00  0.00     0.086 A 
HETATM   21  C18 UNK     1      19.782  -7.755  38.686  1.00  0.00     0.001 A 
HETATM   22  C19 UNK     1      21.055  -7.388  39.130  1.00  0.00     0.003 A 
HETATM   23  C15 UNK     1      21.664  -6.208  38.690  1.00  0.00     0.038 A 
HETATM   24  O1  UNK     1      21.343  -4.251  37.248  1.00  0.00    -0.304 OA
ENDBRANCH  14  16
ENDBRANCH  13  14
ENDBRANCH   7  13
TORSDOF 3
ENDMDL
MODEL 4
REMARK VINA RESULT:      -9.2      7.845     13.765
REMARK  3 active torsions:
REMARK  status: ('A' for Active; 'I' for Inactive)
REMARK    1  A    between atoms: C16_21  and  O3_3 
REMARK    2  A    between atoms: C6_11  and  O3_3 
REMARK    3  A    between atoms: C16_21  and  C9_14 
ROOT
HETATM    1  O2  UNK     1      21.569  -9.117  35.200  1.00  0.00    -0.275 OA
HETATM    2  O5  UNK     1      22.578 -11.154  34.948  1.00  0.00    -0.260 OA
HETATM    3  C1  UNK     1      19.945  -8.801  36.998  1.00  0.00     0.004 A 
HETATM    4  C2  UNK     1      20.661  -8.304  35.907  1.00  0.00     0.092 A 
HETATM    5  C3  UNK     1      20.157 -10.198  37.399  1.00  0.00    -0.043 A 
HETATM    6  C5  UNK     1      19.062  -7.929  37.647  1.00  0.00     0.017 A 
HETATM    7  C6  UNK     1      19.637  -6.140  36.117  1.00  0.00     0.082 A 
HETATM    8  C7  UNK     1      20.519  -6.989  35.458  1.00  0.00     0.075 A 
HETATM    9  C10 UNK     1      18.909  -6.609  37.210  1.00  0.00     0.038 A 
HETATM   10  C12 UNK     1      21.028 -10.948  36.709  1.00  0.00     0.090 A 
HETATM   11  C13 UNK     1      19.404 -10.763  38.569  1.00  0.00     0.049 C 
HETATM   12  C17 UNK     1      21.789 -10.438  35.556  1.00  0.00     0.288 A 
ENDROOT
BRANCH   7  13
HETATM   13  O3  UNK     1      19.483  -4.855  35.697  1.00  0.00    -0.273 OA
BRANCH  13  14
HETATM   14  C16 UNK     1      20.155  -3.886  36.473  1.00  0.00     0.322 C 
HETATM   15  O4  UNK     1      21.237  -4.092  37.014  1.00  0.00    -0.257 OA
BRANCH  14  16
HETATM   16  C9  UNK     1      19.408  -2.629  36.545  1.00  0.00     0.152 A 
HETATM   17  C11 UNK     1      18.739  -2.073  37.576  1.00  0.00     0.058 A 
HETATM   18  C4  UNK     1      18.215  -0.858  37.064  1.00  0.00     0.001 A 
HETATM   19  C14 UNK     1      17.436   0.196  37.574  1.00  0.00     0.014 A 
HETATM   20  C8  UNK     1      18.630  -0.796  35.737  1.00  0.00     0.086 A 
HETATM   21  C18 UNK     1      17.112   1.264  36.725  1.00  0.00     0.001 A 
HETATM   22  C19 UNK     1      17.548   1.288  35.398  1.00  0.00     0.003 A 
HETATM   23  C15 UNK     1      18.323   0.251  34.870  1.00  0.00     0.038 A 
HETATM   24  O1  UNK     1      19.369  -1.897  35.424  1.00  0.00    -0.304 OA
ENDBRANCH  14  16
ENDBRANCH  13  14
ENDBRANCH   7  13
TORSDOF 3
ENDMDL
MODEL 5
REMARK VINA RESULT:      -9.2      7.947     13.709
REMARK  3 active torsions:
REMARK  status: ('A' for Active; 'I' for Inactive)
REMARK    1  A    between atoms: C16_21  and  O3_3 
REMARK    2  A    between atoms: C6_11  and  O3_3 
REMARK    3  A    between atoms: C16_21  and  C9_14 
ROOT
HETATM    1  O2  UNK     1      19.080  -9.295  38.249  1.00  0.00    -0.275 OA
HETATM    2  O5  UNK     1      19.150 -11.416  39.103  1.00  0.00    -0.260 OA
HETATM    3  C1  UNK     1      20.340  -8.782  36.220  1.00  0.00     0.004 A 
HETATM    4  C2  UNK     1      19.490  -8.386  37.254  1.00  0.00     0.092 A 
HETATM    5  C3  UNK     1      20.804 -10.175  36.187  1.00  0.00    -0.043 A 
HETATM    6  C5  UNK     1      20.702  -7.818  35.270  1.00  0.00     0.017 A 
HETATM    7  C6  UNK     1      19.374  -6.139  36.408  1.00  0.00     0.082 A 
HETATM    8  C7  UNK     1      19.003  -7.081  37.361  1.00  0.00     0.075 A 
HETATM    9  C10 UNK     1      20.222  -6.507  35.364  1.00  0.00     0.038 A 
HETATM   10  C12 UNK     1      20.398 -11.019  37.146  1.00  0.00     0.090 A 
HETATM   11  C13 UNK     1      21.719 -10.633  35.088  1.00  0.00     0.049 C 
HETATM   12  C17 UNK     1      19.501 -10.615  38.243  1.00  0.00     0.288 A 
ENDROOT
BRANCH   7  13
HETATM   13  O3  UNK     1      18.911  -4.862  36.492  1.00  0.00    -0.273 OA
BRANCH  13  14
HETATM   14  C16 UNK     1      19.894  -3.884  36.752  1.00  0.00     0.322 C 
HETATM   15  O4  UNK     1      21.033  -4.157  37.117  1.00  0.00    -0.257 OA
BRANCH  14  16
HETATM   16  C9  UNK     1      19.387  -2.528  36.532  1.00  0.00     0.152 A 
HETATM   17  C11 UNK     1      19.483  -1.729  35.449  1.00  0.00     0.058 A 
HETATM   18  C4  UNK     1      18.807  -0.534  35.811  1.00  0.00     0.001 A 
HETATM   19  C14 UNK     1      18.527   0.692  35.184  1.00  0.00     0.014 A 
HETATM   20  C8  UNK     1      18.357  -0.734  37.112  1.00  0.00     0.086 A 
HETATM   21  C18 UNK     1      17.805   1.662  35.895  1.00  0.00     0.001 A 
HETATM   22  C19 UNK     1      17.371   1.422  37.202  1.00  0.00     0.003 A 
HETATM   23  C15 UNK     1      17.638   0.210  37.844  1.00  0.00     0.038 A 
HETATM   24  O1  UNK     1      18.720  -1.972  37.552  1.00  0.00    -0.304 OA
ENDBRANCH  14  16
ENDBRANCH  13  14
ENDBRANCH   7  13
TORSDOF 3
ENDMDL
MODEL 6
REMARK VINA RESULT:      -9.1     22.791     24.268
REMARK  3 active torsions:
REMARK  status: ('A' for Active; 'I' for Inactive)
REMARK    1  A    between atoms: C16_21  and  O3_3 
REMARK    2  A    between atoms: C6_11  and  O3_3 
REMARK    3  A    between atoms: C16_21  and  C9_14 
ROOT
HETATM    1  O2  UNK     1      17.826   9.558   9.100  1.00  0.00    -0.275 OA
HETATM    2  O5  UNK     1      19.226  11.143   8.228  1.00  0.00    -0.260 OA
HETATM    3  C1  UNK     1      15.583  10.208   9.815  1.00  0.00     0.004 A 
HETATM    4  C2  UNK     1      16.569   9.234   9.647  1.00  0.00     0.092 A 
HETATM    5  C3  UNK     1      15.880  11.588   9.408  1.00  0.00    -0.043 A 
HETATM    6  C5  UNK     1      14.359   9.805  10.366  1.00  0.00     0.017 A 
HETATM    7  C6  UNK     1      15.148   7.521  10.554  1.00  0.00     0.082 A 
HETATM    8  C7  UNK     1      16.370   7.900  10.008  1.00  0.00     0.075 A 
HETATM    9  C10 UNK     1      14.144   8.472  10.733  1.00  0.00     0.038 A 
HETATM   10  C12 UNK     1      17.085  11.867   8.889  1.00  0.00     0.090 A 
HETATM   11  C13 UNK     1      14.841  12.658   9.575  1.00  0.00     0.049 C 
HETATM   12  C17 UNK     1      18.135  10.851   8.706  1.00  0.00     0.288 A 
ENDROOT
BRANCH   7  13
HETATM   13  O3  UNK     1      14.932   6.226  10.912  1.00  0.00    -0.273 OA
BRANCH  13  14
HETATM   14  C16 UNK     1      14.878   5.309   9.841  1.00  0.00     0.322 C 
HETATM   15  O4  UNK     1      15.704   4.417   9.679  1.00  0.00    -0.257 OA
BRANCH  14  16
HETATM   16  C9  UNK     1      13.729   5.556   8.967  1.00  0.00     0.152 A 
HETATM   17  C11 UNK     1      13.684   5.834   7.648  1.00  0.00     0.058 A 
HETATM   18  C4  UNK     1      12.304   5.973   7.347  1.00  0.00     0.001 A 
HETATM   19  C14 UNK     1      11.549   6.256   6.195  1.00  0.00     0.014 A 
HETATM   20  C8  UNK     1      11.632   5.759   8.546  1.00  0.00     0.086 A 
HETATM   21  C18 UNK     1      10.152   6.311   6.303  1.00  0.00     0.001 A 
HETATM   22  C19 UNK     1       9.515   6.091   7.527  1.00  0.00     0.003 A 
HETATM   23  C15 UNK     1      10.246   5.808   8.684  1.00  0.00     0.038 A 
HETATM   24  O1  UNK     1      12.522   5.502   9.545  1.00  0.00    -0.304 OA
ENDBRANCH  14  16
ENDBRANCH  13  14
ENDBRANCH   7  13
TORSDOF 3
ENDMDL
MODEL 7
REMARK VINA RESULT:      -9.0     23.131     24.581
REMARK  3 active torsions:
REMARK  status: ('A' for Active; 'I' for Inactive)
REMARK    1  A    between atoms: C16_21  and  O3_3 
REMARK    2  A    between atoms: C6_11  and  O3_3 
REMARK    3  A    between atoms: C16_21  and  C9_14 
ROOT
HETATM    1  O2  UNK     1      14.950  10.565   8.135  1.00  0.00    -0.275 OA
HETATM    2  O5  UNK     1      15.275  12.501   6.962  1.00  0.00    -0.260 OA
HETATM    3  C1  UNK     1      16.717   9.752   9.613  1.00  0.00     0.004 A 
HETATM    4  C2  UNK     1      15.446   9.616   9.051  1.00  0.00     0.092 A 
HETATM    5  C3  UNK     1      17.534  10.912   9.232  1.00  0.00    -0.043 A 
HETATM    6  C5  UNK     1      17.138   8.765  10.515  1.00  0.00     0.017 A 
HETATM    7  C6  UNK     1      15.042   7.576  10.255  1.00  0.00     0.082 A 
HETATM    8  C7  UNK     1      14.606   8.544   9.357  1.00  0.00     0.075 A 
HETATM    9  C10 UNK     1      16.306   7.686  10.833  1.00  0.00     0.038 A 
HETATM   10  C12 UNK     1      17.036  11.799   8.359  1.00  0.00     0.090 A 
HETATM   11  C13 UNK     1      18.904  11.087   9.819  1.00  0.00     0.049 C 
HETATM   12  C17 UNK     1      15.698  11.669   7.757  1.00  0.00     0.288 A 
ENDROOT
BRANCH   7  13
HETATM   13  O3  UNK     1      14.239   6.523  10.569  1.00  0.00    -0.273 OA
BRANCH  13  14
HETATM   14  C16 UNK     1      14.131   5.532   9.571  1.00  0.00     0.322 C 
HETATM   15  O4  UNK     1      14.974   4.657   9.400  1.00  0.00    -0.257 OA
BRANCH  14  16
HETATM   16  C9  UNK     1      12.906   5.681   8.782  1.00  0.00     0.152 A 
HETATM   17  C11 UNK     1      12.741   5.814   7.450  1.00  0.00     0.058 A 
HETATM   18  C4  UNK     1      11.338   5.918   7.261  1.00  0.00     0.001 A 
HETATM   19  C14 UNK     1      10.480   6.073   6.158  1.00  0.00     0.014 A 
HETATM   20  C8  UNK     1      10.778   5.835   8.532  1.00  0.00     0.086 A 
HETATM   21  C18 UNK     1       9.098   6.137   6.384  1.00  0.00     0.001 A 
HETATM   22  C19 UNK     1       8.575   6.051   7.677  1.00  0.00     0.003 A 
HETATM   23  C15 UNK     1       9.409   5.897   8.788  1.00  0.00     0.038 A 
HETATM   24  O1  UNK     1      11.756   5.689   9.469  1.00  0.00    -0.304 OA
ENDBRANCH  14  16
ENDBRANCH  13  14
ENDBRANCH   7  13
TORSDOF 3
ENDMDL
MODEL 8
REMARK VINA RESULT:      -9.0      1.555      8.764
REMARK  3 active torsions:
REMARK  status: ('A' for Active; 'I' for Inactive)
REMARK    1  A    between atoms: C16_21  and  O3_3 
REMARK    2  A    between atoms: C6_11  and  O3_3 
REMARK    3  A    between atoms: C16_21  and  C9_14 
ROOT
HETATM    1  O2  UNK     1      19.154  -0.021  32.862  1.00  0.00    -0.275 OA
HETATM    2  O5  UNK     1      19.933  -2.094  33.434  1.00  0.00    -0.260 OA
HETATM    3  C1  UNK     1      19.348   0.732  30.546  1.00  0.00     0.004 A 
HETATM    4  C2  UNK     1      18.951   0.954  31.866  1.00  0.00     0.092 A 
HETATM    5  C3  UNK     1      19.986  -0.548  30.211  1.00  0.00    -0.043 A 
HETATM    6  C5  UNK     1      19.112   1.752  29.616  1.00  0.00     0.017 A 
HETATM    7  C6  UNK     1      18.113   3.143  31.331  1.00  0.00     0.082 A 
HETATM    8  C7  UNK     1      18.339   2.142  32.271  1.00  0.00     0.075 A 
HETATM    9  C10 UNK     1      18.499   2.948  30.006  1.00  0.00     0.038 A 
HETATM   10  C12 UNK     1      20.166  -1.459  31.178  1.00  0.00     0.090 A 
HETATM   11  C13 UNK     1      20.424  -0.819  28.801  1.00  0.00     0.049 C 
HETATM   12  C17 UNK     1      19.753  -1.238  32.575  1.00  0.00     0.288 A 
ENDROOT
BRANCH   7  13
HETATM   13  O3  UNK     1      17.517   4.308  31.704  1.00  0.00    -0.273 OA
BRANCH  13  14
HETATM   14  C16 UNK     1      18.402   5.372  31.979  1.00  0.00     0.322 C 
HETATM   15  O4  UNK     1      19.603   5.327  31.735  1.00  0.00    -0.257 OA
BRANCH  14  16
HETATM   16  C9  UNK     1      17.712   6.515  32.581  1.00  0.00     0.152 A 
HETATM   17  C11 UNK     1      18.186   7.726  32.939  1.00  0.00     0.058 A 
HETATM   18  C4  UNK     1      17.065   8.419  33.467  1.00  0.00     0.001 A 
HETATM   19  C14 UNK     1      16.837   9.695  34.013  1.00  0.00     0.014 A 
HETATM   20  C8  UNK     1      15.995   7.535  33.374  1.00  0.00     0.086 A 
HETATM   21  C18 UNK     1      15.541  10.021  34.440  1.00  0.00     0.001 A 
HETATM   22  C19 UNK     1      14.494   9.104  34.330  1.00  0.00     0.003 A 
HETATM   23  C15 UNK     1      14.698   7.831  33.790  1.00  0.00     0.038 A 
HETATM   24  O1  UNK     1      16.404   6.357  32.824  1.00  0.00    -0.304 OA
ENDBRANCH  14  16
ENDBRANCH  13  14
ENDBRANCH   7  13
TORSDOF 3
ENDMDL
MODEL 9
REMARK VINA RESULT:      -9.0     22.569     24.646
REMARK  3 active torsions:
REMARK  status: ('A' for Active; 'I' for Inactive)
REMARK    1  A    between atoms: C16_21  and  O3_3 
REMARK    2  A    between atoms: C6_11  and  O3_3 
REMARK    3  A    between atoms: C16_21  and  C9_14 
ROOT
HETATM    1  O2  UNK     1       9.392   5.568   9.484  1.00  0.00    -0.275 OA
HETATM    2  O5  UNK     1       7.142   5.755   9.115  1.00  0.00    -0.260 OA
HETATM    3  C1  UNK     1      10.941   5.909   7.626  1.00  0.00     0.004 A 
HETATM    4  C2  UNK     1      10.703   5.622   8.972  1.00  0.00     0.092 A 
HETATM    5  C3  UNK     1       9.790   6.157   6.747  1.00  0.00    -0.043 A 
HETATM    6  C5  UNK     1      12.273   5.943   7.195  1.00  0.00     0.017 A 
HETATM    7  C6  UNK     1      13.053   5.412   9.427  1.00  0.00     0.082 A 
HETATM    8  C7  UNK     1      11.738   5.373   9.875  1.00  0.00     0.075 A 
HETATM    9  C10 UNK     1      13.321   5.697   8.088  1.00  0.00     0.038 A 
HETATM   10  C12 UNK     1       8.554   6.100   7.262  1.00  0.00     0.090 A 
HETATM   11  C13 UNK     1      10.012   6.469   5.295  1.00  0.00     0.049 C 
HETATM   12  C17 UNK     1       8.288   5.798   8.678  1.00  0.00     0.288 A 
ENDROOT
BRANCH   7  13
HETATM   13  O3  UNK     1      14.077   5.173  10.291  1.00  0.00    -0.273 OA
BRANCH  13  14
HETATM   14  C16 UNK     1      15.308   5.768   9.940  1.00  0.00     0.322 C 
HETATM   15  O4  UNK     1      16.225   5.149   9.409  1.00  0.00    -0.257 OA
BRANCH  14  16
HETATM   16  C9  UNK     1      15.347   7.190  10.286  1.00  0.00     0.152 A 
HETATM   17  C11 UNK     1      16.156   8.172   9.837  1.00  0.00     0.058 A 
HETATM   18  C4  UNK     1      15.732   9.341  10.521  1.00  0.00     0.001 A 
HETATM   19  C14 UNK     1      16.121  10.692  10.541  1.00  0.00     0.014 A 
HETATM   20  C8  UNK     1      14.680   8.940  11.338  1.00  0.00     0.086 A 
HETATM   21  C18 UNK     1      15.432  11.578  11.382  1.00  0.00     0.001 A 
HETATM   22  C19 UNK     1      14.381  11.135  12.188  1.00  0.00     0.003 A 
HETATM   23  C15 UNK     1      13.977   9.796  12.184  1.00  0.00     0.038 A 
HETATM   24  O1  UNK     1      14.448   7.606  11.187  1.00  0.00    -0.304 OA
ENDBRANCH  14  16
ENDBRANCH  13  14
ENDBRANCH   7  13
TORSDOF 3
ENDMDL
MODEL 10
REMARK VINA RESULT:      -9.0     22.655     24.055
REMARK  3 active torsions:
REMARK  status: ('A' for Active; 'I' for Inactive)
REMARK    1  A    between atoms: C16_21  and  O3_3 
REMARK    2  A    between atoms: C6_11  and  O3_3 
REMARK    3  A    between atoms: C16_21  and  C9_14 
ROOT
HETATM    1  O2  UNK     1      14.145  10.704  10.134  1.00  0.00    -0.275 OA
HETATM    2  O5  UNK     1      13.804  12.936   9.769  1.00  0.00    -0.260 OA
HETATM    3  C1  UNK     1      16.389   9.777   9.864  1.00  0.00     0.004 A 
HETATM    4  C2  UNK     1      15.036   9.613  10.168  1.00  0.00     0.092 A 
HETATM    5  C3  UNK     1      16.871  11.118   9.506  1.00  0.00    -0.043 A 
HETATM    6  C5  UNK     1      17.209   8.643   9.921  1.00  0.00     0.017 A 
HETATM    7  C6  UNK     1      15.326   7.261  10.568  1.00  0.00     0.082 A 
HETATM    8  C7  UNK     1      14.495   8.375  10.517  1.00  0.00     0.075 A 
HETATM    9  C10 UNK     1      16.682   7.395  10.270  1.00  0.00     0.038 A 
HETATM   10  C12 UNK     1      16.001  12.137   9.483  1.00  0.00     0.090 A 
HETATM   11  C13 UNK     1      18.320  11.327   9.175  1.00  0.00     0.049 C 
HETATM   12  C17 UNK     1      14.571  11.979   9.800  1.00  0.00     0.288 A 
ENDROOT
BRANCH   7  13
HETATM   13  O3  UNK     1      14.820   6.044  10.907  1.00  0.00    -0.273 OA
BRANCH  13  14
HETATM   14  C16 UNK     1      14.729   5.117   9.848  1.00  0.00     0.322 C 
HETATM   15  O4  UNK     1      15.503   4.175   9.712  1.00  0.00    -0.257 OA
BRANCH  14  16
HETATM   16  C9  UNK     1      13.612   5.419   8.950  1.00  0.00     0.152 A 
HETATM   17  C11 UNK     1      13.609   5.718   7.635  1.00  0.00     0.058 A 
HETATM   18  C4  UNK     1      12.243   5.914   7.303  1.00  0.00     0.001 A 
HETATM   19  C14 UNK     1      11.528   6.242   6.138  1.00  0.00     0.014 A 
HETATM   20  C8  UNK     1      11.535   5.707   8.483  1.00  0.00     0.086 A 
HETATM   21  C18 UNK     1      10.131   6.346   6.214  1.00  0.00     0.001 A 
HETATM   22  C19 UNK     1       9.457   6.133   7.419  1.00  0.00     0.003 A 
HETATM   23  C15 UNK     1      10.148   5.805   8.589  1.00  0.00     0.038 A 
HETATM   24  O1  UNK     1      12.390   5.402   9.499  1.00  0.00    -0.304 OA
ENDBRANCH  14  16
ENDBRANCH  13  14
ENDBRANCH   7  13
TORSDOF 3
ENDMDL
