MODEL 1
REMARK VINA RESULT:      -8.7      0.000      0.000
REMARK  3 active torsions:
REMARK  status: ('A' for Active; 'I' for Inactive)
REMARK    1  A    between atoms: C2_10  and  N1_6 
REMARK    2  A    between atoms: C1_9  and  C4_12 
REMARK    3  A    between atoms: C2_10  and  C4_12 
ROOT
HETATM    1  O1  UNK     1      19.244   1.051  15.433  1.00  0.00    -0.274 OA
HETATM    2  O3  UNK     1      19.323  -0.394  13.665  1.00  0.00    -0.259 OA
HETATM    3  C1  UNK     1      19.000  -1.353  15.807  1.00  0.00     0.088 A 
HETATM    4  C3  UNK     1      18.917   0.182  17.680  1.00  0.00    -0.001 A 
HETATM    5  C5  UNK     1      18.867  -1.163  17.125  1.00  0.00     0.035 A 
HETATM    6  C6  UNK     1      19.104   1.258  16.819  1.00  0.00     0.089 A 
HETATM    7  C7  UNK     1      19.201  -0.223  14.873  1.00  0.00     0.302 A 
HETATM    8  C8  UNK     1      18.783   0.429  19.049  1.00  0.00     0.014 A 
HETATM    9  C9  UNK     1      19.160   2.570  17.286  1.00  0.00     0.038 A 
HETATM   10  C10 UNK     1      18.837   1.739  19.532  1.00  0.00     0.001 A 
HETATM   11  C11 UNK     1      19.026   2.807  18.652  1.00  0.00     0.003 A 
ENDROOT
BRANCH   3  12
HETATM   12  C4  UNK     1      18.936  -2.745  15.345  1.00  0.00     0.185 C 
HETATM   13  O2  UNK     1      18.015  -3.476  15.712  1.00  0.00    -0.290 OA
BRANCH  12  14
HETATM   14  C2  UNK     1      20.043  -3.201  14.416  1.00  0.00     0.238 C 
BRANCH  14  15
HETATM   15  N1  UNK     1      21.165  -3.810  15.126  1.00  0.00    -0.232 N 
HETATM   16  C12 UNK     1      21.280  -5.075  15.580  1.00  0.00     0.223 A 
HETATM   17 Cl1  UNK     1      20.063  -6.235  15.388  1.00  0.00    -0.041 Cl
HETATM   18  N3  UNK     1      22.448  -5.216  16.165  1.00  0.00    -0.186 NA
HETATM   19  C13 UNK     1      22.997  -3.973  16.025  1.00  0.00     0.244 A 
HETATM   20 Cl2  UNK     1      24.539  -3.560  16.605  1.00  0.00    -0.040 Cl
HETATM   21  N2  UNK     1      22.243  -3.073  15.390  1.00  0.00    -0.136 NA
ENDBRANCH  14  15
ENDBRANCH  12  14
ENDBRANCH   3  12
TORSDOF 3
ENDMDL
MODEL 2
REMARK VINA RESULT:      -8.6     14.685     16.899
REMARK  3 active torsions:
REMARK  status: ('A' for Active; 'I' for Inactive)
REMARK    1  A    between atoms: C2_10  and  N1_6 
REMARK    2  A    between atoms: C1_9  and  C4_12 
REMARK    3  A    between atoms: C2_10  and  C4_12 
ROOT
HETATM    1  O1  UNK     1      18.880   1.289  28.547  1.00  0.00    -0.274 OA
HETATM    2  O3  UNK     1      17.997   3.394  28.477  1.00  0.00    -0.259 OA
HETATM    3  C1  UNK     1      18.679   2.599  30.602  1.00  0.00     0.088 A 
HETATM    4  C3  UNK     1      19.616   0.365  30.672  1.00  0.00    -0.001 A 
HETATM    5  C5  UNK     1      19.211   1.603  31.321  1.00  0.00     0.035 A 
HETATM    6  C6  UNK     1      19.441   0.237  29.298  1.00  0.00     0.089 A 
HETATM    7  C7  UNK     1      18.483   2.484  29.139  1.00  0.00     0.302 A 
HETATM    8  C8  UNK     1      20.175  -0.700  31.383  1.00  0.00     0.014 A 
HETATM    9  C9  UNK     1      19.808  -0.921  28.617  1.00  0.00     0.038 A 
HETATM   10  C10 UNK     1      20.548  -1.869  30.712  1.00  0.00     0.001 A 
HETATM   11  C11 UNK     1      20.364  -1.979  29.332  1.00  0.00     0.003 A 
ENDROOT
BRANCH   3  12
HETATM   12  C4  UNK     1      18.304   3.806  31.347  1.00  0.00     0.185 C 
HETATM   13  O2  UNK     1      17.549   3.725  32.317  1.00  0.00    -0.290 OA
BRANCH  12  14
HETATM   14  C2  UNK     1      18.889   5.114  30.854  1.00  0.00     0.238 C 
BRANCH  14  15
HETATM   15  N1  UNK     1      18.447   6.266  31.637  1.00  0.00    -0.232 N 
HETATM   16  C12 UNK     1      19.112   6.920  32.611  1.00  0.00     0.223 A 
HETATM   17 Cl1  UNK     1      20.667   6.484  33.115  1.00  0.00    -0.041 Cl
HETATM   18  N3  UNK     1      18.359   7.898  33.062  1.00  0.00    -0.186 NA
HETATM   19  C13 UNK     1      17.232   7.774  32.301  1.00  0.00     0.244 A 
HETATM   20 Cl2  UNK     1      15.885   8.797  32.450  1.00  0.00    -0.040 Cl
HETATM   21  N2  UNK     1      17.240   6.782  31.409  1.00  0.00    -0.136 NA
ENDBRANCH  14  15
ENDBRANCH  12  14
ENDBRANCH   3  12
TORSDOF 3
ENDMDL
MODEL 3
REMARK VINA RESULT:      -8.6     16.343     18.220
REMARK  3 active torsions:
REMARK  status: ('A' for Active; 'I' for Inactive)
REMARK    1  A    between atoms: C2_10  and  N1_6 
REMARK    2  A    between atoms: C1_9  and  C4_12 
REMARK    3  A    between atoms: C2_10  and  C4_12 
ROOT
HETATM    1  O1  UNK     1      19.033   1.745  30.779  1.00  0.00    -0.274 OA
HETATM    2  O3  UNK     1      17.967   3.101  32.276  1.00  0.00    -0.259 OA
HETATM    3  C1  UNK     1      18.340   0.861  32.951  1.00  0.00     0.088 A 
HETATM    4  C3  UNK     1      19.472  -0.575  31.361  1.00  0.00    -0.001 A 
HETATM    5  C5  UNK     1      18.835  -0.345  32.649  1.00  0.00     0.035 A 
HETATM    6  C6  UNK     1      19.556   0.477  30.455  1.00  0.00     0.089 A 
HETATM    7  C7  UNK     1      18.418   1.995  32.003  1.00  0.00     0.302 A 
HETATM    8  C8  UNK     1      20.002  -1.817  31.003  1.00  0.00     0.014 A 
HETATM    9  C9  UNK     1      20.153   0.324  29.206  1.00  0.00     0.038 A 
HETATM   10  C10 UNK     1      20.604  -1.986  29.752  1.00  0.00     0.001 A 
HETATM   11  C11 UNK     1      20.679  -0.918  28.856  1.00  0.00     0.003 A 
ENDROOT
BRANCH   3  12
HETATM   12  C4  UNK     1      17.718   0.993  34.274  1.00  0.00     0.185 C 
HETATM   13  O2  UNK     1      16.491   1.023  34.380  1.00  0.00    -0.290 OA
BRANCH  12  14
HETATM   14  C2  UNK     1      18.659   1.087  35.458  1.00  0.00     0.238 C 
BRANCH  14  15
HETATM   15  N1  UNK     1      18.615  -0.095  36.316  1.00  0.00    -0.232 N 
HETATM   16  C12 UNK     1      18.139  -0.198  37.574  1.00  0.00     0.223 A 
HETATM   17 Cl1  UNK     1      17.473   1.111  38.415  1.00  0.00    -0.041 Cl
HETATM   18  N3  UNK     1      18.289  -1.435  37.988  1.00  0.00    -0.186 NA
HETATM   19  C13 UNK     1      18.872  -2.037  36.910  1.00  0.00     0.244 A 
HETATM   20 Cl2  UNK     1      19.304  -3.679  36.874  1.00  0.00    -0.040 Cl
HETATM   21  N2  UNK     1      19.093  -1.250  35.855  1.00  0.00    -0.136 NA
ENDBRANCH  14  15
ENDBRANCH  12  14
ENDBRANCH   3  12
TORSDOF 3
ENDMDL
MODEL 4
REMARK VINA RESULT:      -8.4     16.380     18.285
REMARK  3 active torsions:
REMARK  status: ('A' for Active; 'I' for Inactive)
REMARK    1  A    between atoms: C2_10  and  N1_6 
REMARK    2  A    between atoms: C1_9  and  C4_12 
REMARK    3  A    between atoms: C2_10  and  C4_12 
ROOT
HETATM    1  O1  UNK     1      18.925   2.553  30.746  1.00  0.00    -0.274 OA
HETATM    2  O3  UNK     1      18.728   0.446  31.606  1.00  0.00    -0.259 OA
HETATM    3  C1  UNK     1      18.157   2.238  33.046  1.00  0.00     0.088 A 
HETATM    4  C3  UNK     1      18.367   4.472  32.131  1.00  0.00    -0.001 A 
HETATM    5  C5  UNK     1      18.039   3.560  33.217  1.00  0.00     0.035 A 
HETATM    6  C6  UNK     1      18.802   3.945  30.920  1.00  0.00     0.089 A 
HETATM    7  C7  UNK     1      18.619   1.656  31.766  1.00  0.00     0.302 A 
HETATM    8  C8  UNK     1      18.259   5.858  32.264  1.00  0.00     0.014 A 
HETATM    9  C9  UNK     1      19.132   4.763  29.841  1.00  0.00     0.038 A 
HETATM   10  C10 UNK     1      18.586   6.691  31.191  1.00  0.00     0.001 A 
HETATM   11  C11 UNK     1      19.022   6.145  29.982  1.00  0.00     0.003 A 
ENDROOT
BRANCH   3  12
HETATM   12  C4  UNK     1      17.803   1.402  34.199  1.00  0.00     0.185 C 
HETATM   13  O2  UNK     1      16.716   0.821  34.231  1.00  0.00    -0.290 OA
BRANCH  12  14
HETATM   14  C2  UNK     1      18.830   1.307  35.308  1.00  0.00     0.238 C 
BRANCH  14  15
HETATM   15  N1  UNK     1      18.773   0.038  36.030  1.00  0.00    -0.232 N 
HETATM   16  C12 UNK     1      18.144  -0.236  37.191  1.00  0.00     0.223 A 
HETATM   17 Cl1  UNK     1      17.260   0.922  38.053  1.00  0.00    -0.041 Cl
HETATM   18  N3  UNK     1      18.342  -1.497  37.499  1.00  0.00    -0.186 NA
HETATM   19  C13 UNK     1      19.115  -1.934  36.461  1.00  0.00     0.244 A 
HETATM   20 Cl2  UNK     1      19.687  -3.527  36.325  1.00  0.00    -0.040 Cl
HETATM   21  N2  UNK     1      19.406  -1.023  35.530  1.00  0.00    -0.136 NA
ENDBRANCH  14  15
ENDBRANCH  12  14
ENDBRANCH   3  12
TORSDOF 3
ENDMDL
MODEL 5
REMARK VINA RESULT:      -8.4     15.447     17.676
REMARK  3 active torsions:
REMARK  status: ('A' for Active; 'I' for Inactive)
REMARK    1  A    between atoms: C2_10  and  N1_6 
REMARK    2  A    between atoms: C1_9  and  C4_12 
REMARK    3  A    between atoms: C2_10  and  C4_12 
ROOT
HETATM    1  O1  UNK     1      18.765   0.601  32.684  1.00  0.00    -0.274 OA
HETATM    2  O3  UNK     1      17.917   2.410  33.791  1.00  0.00    -0.259 OA
HETATM    3  C1  UNK     1      18.544   2.747  31.531  1.00  0.00     0.088 A 
HETATM    4  C3  UNK     1      19.442   0.826  30.359  1.00  0.00    -0.001 A 
HETATM    5  C5  UNK     1      19.044   2.226  30.405  1.00  0.00     0.035 A 
HETATM    6  C6  UNK     1      19.292   0.046  31.501  1.00  0.00     0.089 A 
HETATM    7  C7  UNK     1      18.376   1.936  32.758  1.00  0.00     0.302 A 
HETATM    8  C8  UNK     1      19.970   0.239  29.206  1.00  0.00     0.014 A 
HETATM    9  C9  UNK     1      19.653  -1.299  31.523  1.00  0.00     0.038 A 
HETATM   10  C10 UNK     1      20.336  -1.109  29.213  1.00  0.00     0.001 A 
HETATM   11  C11 UNK     1      20.179  -1.877  30.369  1.00  0.00     0.003 A 
ENDROOT
BRANCH   3  12
HETATM   12  C4  UNK     1      18.172   4.166  31.478  1.00  0.00     0.185 C 
HETATM   13  O2  UNK     1      17.004   4.507  31.677  1.00  0.00    -0.290 OA
BRANCH  12  14
HETATM   14  C2  UNK     1      19.285   5.146  31.173  1.00  0.00     0.238 C 
BRANCH  14  15
HETATM   15  N1  UNK     1      19.396   6.210  32.169  1.00  0.00    -0.232 N 
HETATM   16  C12 UNK     1      20.501   6.648  32.805  1.00  0.00     0.223 A 
HETATM   17 Cl1  UNK     1      22.038   5.993  32.536  1.00  0.00    -0.041 Cl
HETATM   18  N3  UNK     1      20.167   7.619  33.625  1.00  0.00    -0.186 NA
HETATM   19  C13 UNK     1      18.819   7.718  33.428  1.00  0.00     0.244 A 
HETATM   20 Cl2  UNK     1      17.834   8.836  34.241  1.00  0.00    -0.040 Cl
HETATM   21  N2  UNK     1      18.299   6.870  32.539  1.00  0.00    -0.136 NA
ENDBRANCH  14  15
ENDBRANCH  12  14
ENDBRANCH   3  12
TORSDOF 3
ENDMDL
MODEL 6
REMARK VINA RESULT:      -8.3     18.989     20.401
REMARK  3 active torsions:
REMARK  status: ('A' for Active; 'I' for Inactive)
REMARK    1  A    between atoms: C2_10  and  N1_6 
REMARK    2  A    between atoms: C1_9  and  C4_12 
REMARK    3  A    between atoms: C2_10  and  C4_12 
ROOT
HETATM    1  O1  UNK     1      19.434  -1.151  34.684  1.00  0.00    -0.274 OA
HETATM    2  O3  UNK     1      20.586  -3.030  34.083  1.00  0.00    -0.259 OA
HETATM    3  C1  UNK     1      19.745  -2.963  36.297  1.00  0.00     0.088 A 
HETATM    4  C3  UNK     1      18.522  -0.970  36.931  1.00  0.00    -0.001 A 
HETATM    5  C5  UNK     1      19.067  -2.286  37.231  1.00  0.00     0.035 A 
HETATM    6  C6  UNK     1      18.719  -0.433  35.663  1.00  0.00     0.089 A 
HETATM    7  C7  UNK     1      19.966  -2.412  34.941  1.00  0.00     0.302 A 
HETATM    8  C8  UNK     1      17.808  -0.226  37.874  1.00  0.00     0.014 A 
HETATM    9  C9  UNK     1      18.223   0.821  35.312  1.00  0.00     0.038 A 
HETATM   10  C10 UNK     1      17.306   1.033  37.537  1.00  0.00     0.001 A 
HETATM   11  C11 UNK     1      17.513   1.556  36.258  1.00  0.00     0.003 A 
ENDROOT
BRANCH   3  12
HETATM   12  C4  UNK     1      20.254  -4.281  36.695  1.00  0.00     0.185 C 
HETATM   13  O2  UNK     1      21.384  -4.389  37.174  1.00  0.00    -0.290 OA
BRANCH  12  14
HETATM   14  C2  UNK     1      19.324  -5.458  36.481  1.00  0.00     0.238 C 
BRANCH  14  15
HETATM   15  N1  UNK     1      20.008  -6.747  36.569  1.00  0.00    -0.232 N 
HETATM   16  C12 UNK     1      20.314  -7.457  37.675  1.00  0.00     0.223 A 
HETATM   17 Cl1  UNK     1      19.930  -6.935  39.238  1.00  0.00    -0.041 Cl
HETATM   18  N3  UNK     1      20.931  -8.560  37.318  1.00  0.00    -0.186 NA
HETATM   19  C13 UNK     1      20.965  -8.450  35.957  1.00  0.00     0.244 A 
HETATM   20 Cl2  UNK     1      21.660  -9.618  34.940  1.00  0.00    -0.040 Cl
HETATM   21  N2  UNK     1      20.407  -7.348  35.450  1.00  0.00    -0.136 NA
ENDBRANCH  14  15
ENDBRANCH  12  14
ENDBRANCH   3  12
TORSDOF 3
ENDMDL
MODEL 7
REMARK VINA RESULT:      -8.1     16.304     18.082
REMARK  3 active torsions:
REMARK  status: ('A' for Active; 'I' for Inactive)
REMARK    1  A    between atoms: C2_10  and  N1_6 
REMARK    2  A    between atoms: C1_9  and  C4_12 
REMARK    3  A    between atoms: C2_10  and  C4_12 
ROOT
HETATM    1  O1  UNK     1      18.722   1.195  31.897  1.00  0.00    -0.274 OA
HETATM    2  O3  UNK     1      17.623   1.825  33.798  1.00  0.00    -0.259 OA
HETATM    3  C1  UNK     1      18.313  -0.438  33.671  1.00  0.00     0.088 A 
HETATM    4  C3  UNK     1      19.479  -1.104  31.654  1.00  0.00    -0.001 A 
HETATM    5  C5  UNK     1      18.922  -1.398  32.966  1.00  0.00     0.035 A 
HETATM    6  C6  UNK     1      19.365   0.188  31.150  1.00  0.00     0.089 A 
HETATM    7  C7  UNK     1      18.180   0.943  33.155  1.00  0.00     0.302 A 
HETATM    8  C8  UNK     1      20.123  -2.074  30.883  1.00  0.00     0.014 A 
HETATM    9  C9  UNK     1      19.876   0.536  29.902  1.00  0.00     0.038 A 
HETATM   10  C10 UNK     1      20.641  -1.740  29.628  1.00  0.00     0.001 A 
HETATM   11  C11 UNK     1      20.517  -0.437  29.139  1.00  0.00     0.003 A 
ENDROOT
BRANCH   3  12
HETATM   12  C4  UNK     1      17.786  -0.834  34.983  1.00  0.00     0.185 C 
HETATM   13  O2  UNK     1      16.584  -1.070  35.120  1.00  0.00    -0.290 OA
BRANCH  12  14
HETATM   14  C2  UNK     1      18.788  -0.926  36.115  1.00  0.00     0.238 C 
BRANCH  14  15
HETATM   15  N1  UNK     1      19.378  -2.256  36.245  1.00  0.00    -0.232 N 
HETATM   16  C12 UNK     1      20.632  -2.648  35.940  1.00  0.00     0.223 A 
HETATM   17 Cl1  UNK     1      21.799  -1.592  35.317  1.00  0.00    -0.041 Cl
HETATM   18  N3  UNK     1      20.757  -3.928  36.203  1.00  0.00    -0.186 NA
HETATM   19  C13 UNK     1      19.517  -4.253  36.674  1.00  0.00     0.244 A 
HETATM   20 Cl2  UNK     1      19.087  -5.815  37.182  1.00  0.00    -0.040 Cl
HETATM   21  N2  UNK     1      18.633  -3.254  36.718  1.00  0.00    -0.136 NA
ENDBRANCH  14  15
ENDBRANCH  12  14
ENDBRANCH   3  12
TORSDOF 3
ENDMDL
MODEL 8
REMARK VINA RESULT:      -8.0     18.759     21.304
REMARK  3 active torsions:
REMARK  status: ('A' for Active; 'I' for Inactive)
REMARK    1  A    between atoms: C2_10  and  N1_6 
REMARK    2  A    between atoms: C1_9  and  C4_12 
REMARK    3  A    between atoms: C2_10  and  C4_12 
ROOT
HETATM    1  O1  UNK     1      18.775   7.069  34.026  1.00  0.00    -0.274 OA
HETATM    2  O3  UNK     1      17.206   7.886  35.471  1.00  0.00    -0.259 OA
HETATM    3  C1  UNK     1      16.542   7.640  33.210  1.00  0.00     0.088 A 
HETATM    4  C3  UNK     1      18.209   6.773  31.680  1.00  0.00    -0.001 A 
HETATM    5  C5  UNK     1      16.873   7.275  31.966  1.00  0.00     0.035 A 
HETATM    6  C6  UNK     1      19.130   6.681  32.719  1.00  0.00     0.089 A 
HETATM    7  C7  UNK     1      17.506   7.552  34.330  1.00  0.00     0.302 A 
HETATM    8  C8  UNK     1      18.599   6.380  30.397  1.00  0.00     0.014 A 
HETATM    9  C9  UNK     1      20.424   6.209  32.512  1.00  0.00     0.038 A 
HETATM   10  C10 UNK     1      19.894   5.905  30.175  1.00  0.00     0.001 A 
HETATM   11  C11 UNK     1      20.805   5.820  31.230  1.00  0.00     0.003 A 
ENDROOT
BRANCH   3  12
HETATM   12  C4  UNK     1      15.172   8.133  33.397  1.00  0.00     0.185 C 
HETATM   13  O2  UNK     1      14.291   7.371  33.799  1.00  0.00    -0.290 OA
BRANCH  12  14
HETATM   14  C2  UNK     1      14.927   9.592  33.072  1.00  0.00     0.238 C 
BRANCH  14  15
HETATM   15  N1  UNK     1      14.971  10.453  34.252  1.00  0.00    -0.232 N 
HETATM   16  C12 UNK     1      16.017  11.152  34.738  1.00  0.00     0.223 A 
HETATM   17 Cl1  UNK     1      17.545  11.145  34.012  1.00  0.00    -0.041 Cl
HETATM   18  N3  UNK     1      15.637  11.796  35.818  1.00  0.00    -0.186 NA
HETATM   19  C13 UNK     1      14.324  11.433  35.929  1.00  0.00     0.244 A 
HETATM   20 Cl2  UNK     1      13.304  11.978  37.171  1.00  0.00    -0.040 Cl
HETATM   21  N2  UNK     1      13.869  10.606  34.985  1.00  0.00    -0.136 NA
ENDBRANCH  14  15
ENDBRANCH  12  14
ENDBRANCH   3  12
TORSDOF 3
ENDMDL
MODEL 9
REMARK VINA RESULT:      -8.0     14.946     17.090
REMARK  3 active torsions:
REMARK  status: ('A' for Active; 'I' for Inactive)
REMARK    1  A    between atoms: C2_10  and  N1_6 
REMARK    2  A    between atoms: C1_9  and  C4_12 
REMARK    3  A    between atoms: C2_10  and  C4_12 
ROOT
HETATM    1  O1  UNK     1      19.115   7.499  33.307  1.00  0.00    -0.274 OA
HETATM    2  O3  UNK     1      20.717   6.225  32.294  1.00  0.00    -0.259 OA
HETATM    3  C1  UNK     1      18.465   5.588  31.927  1.00  0.00     0.088 A 
HETATM    4  C3  UNK     1      16.768   6.942  33.002  1.00  0.00    -0.001 A 
HETATM    5  C5  UNK     1      17.169   5.825  32.160  1.00  0.00     0.035 A 
HETATM    6  C6  UNK     1      17.752   7.754  33.556  1.00  0.00     0.089 A 
HETATM    7  C7  UNK     1      19.529   6.439  32.506  1.00  0.00     0.302 A 
HETATM    8  C8  UNK     1      15.427   7.227  33.272  1.00  0.00     0.014 A 
HETATM    9  C9  UNK     1      17.435   8.840  34.370  1.00  0.00     0.038 A 
HETATM   10  C10 UNK     1      15.094   8.313  34.088  1.00  0.00     0.001 A 
HETATM   11  C11 UNK     1      16.096   9.117  34.635  1.00  0.00     0.003 A 
ENDROOT
BRANCH   3  12
HETATM   12  C4  UNK     1      18.769   4.439  31.065  1.00  0.00     0.185 C 
HETATM   13  O2  UNK     1      19.553   4.563  30.123  1.00  0.00    -0.290 OA
BRANCH  12  14
HETATM   14  C2  UNK     1      18.073   3.137  31.404  1.00  0.00     0.238 C 
BRANCH  14  15
HETATM   15  N1  UNK     1      18.727   1.972  30.812  1.00  0.00    -0.232 N 
HETATM   16  C12 UNK     1      18.659   1.531  29.539  1.00  0.00     0.223 A 
HETATM   17 Cl1  UNK     1      17.745   2.309  28.345  1.00  0.00    -0.041 Cl
HETATM   18  N3  UNK     1      19.392   0.448  29.421  1.00  0.00    -0.186 NA
HETATM   19  C13 UNK     1      19.884   0.288  30.685  1.00  0.00     0.244 A 
HETATM   20 Cl2  UNK     1      20.920  -0.981  31.132  1.00  0.00    -0.040 Cl
HETATM   21  N2  UNK     1      19.501   1.204  31.577  1.00  0.00    -0.136 NA
ENDBRANCH  14  15
ENDBRANCH  12  14
ENDBRANCH   3  12
TORSDOF 3
ENDMDL
MODEL 10
REMARK VINA RESULT:      -7.9     13.036     14.632
REMARK  3 active torsions:
REMARK  status: ('A' for Active; 'I' for Inactive)
REMARK    1  A    between atoms: C2_10  and  N1_6 
REMARK    2  A    between atoms: C1_9  and  C4_12 
REMARK    3  A    between atoms: C2_10  and  C4_12 
ROOT
HETATM    1  O1  UNK     1      14.515   5.383   9.036  1.00  0.00    -0.274 OA
HETATM    2  O3  UNK     1      12.670   4.510   8.010  1.00  0.00    -0.259 OA
HETATM    3  C1  UNK     1      12.855   6.872   8.033  1.00  0.00     0.088 A 
HETATM    4  C3  UNK     1      14.813   7.795   9.122  1.00  0.00    -0.001 A 
HETATM    5  C5  UNK     1      13.559   7.949   8.398  1.00  0.00     0.035 A 
HETATM    6  C6  UNK     1      15.261   6.514   9.423  1.00  0.00     0.089 A 
HETATM    7  C7  UNK     1      13.313   5.499   8.344  1.00  0.00     0.302 A 
HETATM    8  C8  UNK     1      15.581   8.891   9.523  1.00  0.00     0.014 A 
HETATM    9  C9  UNK     1      16.453   6.297  10.113  1.00  0.00     0.038 A 
HETATM   10  C10 UNK     1      16.778   8.689  10.216  1.00  0.00     0.001 A 
HETATM   11  C11 UNK     1      17.213   7.395  10.510  1.00  0.00     0.003 A 
ENDROOT
BRANCH   3  12
HETATM   12  C4  UNK     1      11.605   7.131   7.308  1.00  0.00     0.185 C 
HETATM   13  O2  UNK     1      11.546   6.944   6.091  1.00  0.00    -0.290 OA
BRANCH  12  14
HETATM   14  C2  UNK     1      10.435   7.627   8.132  1.00  0.00     0.238 C 
BRANCH  14  15
HETATM   15  N1  UNK     1       9.434   6.591   8.380  1.00  0.00    -0.232 N 
HETATM   16  C12 UNK     1       8.454   6.162   7.559  1.00  0.00     0.223 A 
HETATM   17 Cl1  UNK     1       8.211   6.795   6.008  1.00  0.00    -0.041 Cl
HETATM   18  N3  UNK     1       7.769   5.219   8.165  1.00  0.00    -0.186 NA
HETATM   19  C13 UNK     1       8.403   5.127   9.371  1.00  0.00     0.244 A 
HETATM   20 Cl2  UNK     1       7.938   4.043  10.593  1.00  0.00    -0.040 Cl
HETATM   21  N2  UNK     1       9.435   5.954   9.549  1.00  0.00    -0.136 NA
ENDBRANCH  14  15
ENDBRANCH  12  14
ENDBRANCH   3  12
TORSDOF 3
ENDMDL
