MODEL 1
REMARK VINA RESULT:      -8.6      0.000      0.000
REMARK  4 active torsions:
REMARK  status: ('A' for Active; 'I' for Inactive)
REMARK    1  A    between atoms: C20_27  and  O4_4 
REMARK    2  A    between atoms: C5_12  and  N1_6 
REMARK       I    between atoms: C6_13  and  N2_7 
REMARK    3  A    between atoms: C6_13  and  C7_14 
REMARK    4  A    between atoms: C13_20  and  C18_25 
ROOT
HETATM    1  O1  UNK     1      20.134   6.180  32.974  1.00  0.00    -0.267 OA
HETATM    2  N1  UNK     1      15.922   8.854  33.779  1.00  0.00    -0.378 N 
HETATM    3  N2  UNK     1      17.915   6.815  33.284  1.00  0.00    -0.345 N 
HETATM    4  C1  UNK     1      15.539   7.584  33.159  1.00  0.00     0.143 C 
HETATM    5  C2  UNK     1      17.346   9.109  34.011  1.00  0.00     0.143 C 
HETATM    6  C3  UNK     1      16.515   6.472  33.549  1.00  0.00     0.146 C 
HETATM    7  C4  UNK     1      18.207   8.235  33.101  1.00  0.00     0.146 C 
HETATM    8  C6  UNK     1      18.957   5.893  33.198  1.00  0.00     0.260 C 
ENDROOT
BRANCH   8   9
HETATM    9  C7  UNK     1      18.615   4.469  33.401  1.00  0.00     0.108 A 
HETATM   10  C12 UNK     1      18.750   4.002  34.648  1.00  0.00     0.037 A 
HETATM   11  C15 UNK     1      18.439   2.613  34.948  1.00  0.00    -0.001 A 
HETATM   12  C16 UNK     1      18.001   1.785  33.920  1.00  0.00     0.092 A 
HETATM   13  C17 UNK     1      18.565   2.083  36.234  1.00  0.00     0.017 A 
HETATM   14  O2  UNK     1      17.862   2.282  32.609  1.00  0.00    -0.274 OA
HETATM   15  C19 UNK     1      17.686   0.445  34.141  1.00  0.00     0.075 A 
HETATM   16  C14 UNK     1      18.151   3.606  32.292  1.00  0.00     0.304 A 
HETATM   17  O3  UNK     1      18.029   4.031  31.148  1.00  0.00    -0.259 OA
HETATM   18  C20 UNK     1      17.814  -0.076  35.426  1.00  0.00     0.070 A 
HETATM   19  C21 UNK     1      18.252   0.741  36.471  1.00  0.00     0.038 A 
BRANCH  18  20
HETATM   20  O4  UNK     1      17.512  -1.382  35.665  1.00  0.00    -0.356 OA
HETATM   21  C23 UNK     1      18.050  -1.965  36.851  1.00  0.00     0.210 C 
ENDBRANCH  18  20
ENDBRANCH   8   9
BRANCH   2  22
HETATM   22  C5  UNK     1      14.971   9.826  34.083  1.00  0.00     0.030 A 
HETATM   23  C8  UNK     1      14.882  10.391  35.377  1.00  0.00     0.030 A 
HETATM   24  C10 UNK     1      13.932  11.364  35.681  1.00  0.00     0.017 A 
HETATM   25  C13 UNK     1      13.041  11.801  34.700  1.00  0.00     0.009 A 
HETATM   26  C11 UNK     1      13.103  11.263  33.414  1.00  0.00     0.017 A 
HETATM   27  C9  UNK     1      14.054  10.289  33.110  1.00  0.00     0.030 A 
BRANCH  25  28
HETATM   28  C18 UNK     1      12.050  12.816  35.017  1.00  0.00     0.155 C 
HETATM   29  O5  UNK     1      11.051  12.554  35.716  1.00  0.00    -0.293 OA
HETATM   30  C22 UNK     1      12.213  14.240  34.494  1.00  0.00     0.096 C 
ENDBRANCH  25  28
ENDBRANCH   2  22
TORSDOF 4
ENDMDL
MODEL 2
REMARK VINA RESULT:      -8.2     15.809     20.282
REMARK  4 active torsions:
REMARK  status: ('A' for Active; 'I' for Inactive)
REMARK    1  A    between atoms: C20_27  and  O4_4 
REMARK    2  A    between atoms: C5_12  and  N1_6 
REMARK       I    between atoms: C6_13  and  N2_7 
REMARK    3  A    between atoms: C6_13  and  C7_14 
REMARK    4  A    between atoms: C13_20  and  C18_25 
ROOT
HETATM    1  O1  UNK     1      31.007 -10.751  39.073  1.00  0.00    -0.267 OA
HETATM    2  N1  UNK     1      26.449  -8.731  38.249  1.00  0.00    -0.378 N 
HETATM    3  N2  UNK     1      29.265  -9.395  38.335  1.00  0.00    -0.345 N 
HETATM    4  C1  UNK     1      27.456  -7.712  37.946  1.00  0.00     0.143 C 
HETATM    5  C2  UNK     1      26.909 -10.039  38.723  1.00  0.00     0.143 C 
HETATM    6  C3  UNK     1      28.747  -8.357  37.439  1.00  0.00     0.146 C 
HETATM    7  C4  UNK     1      28.317  -9.938  39.305  1.00  0.00     0.146 C 
HETATM    8  C6  UNK     1      30.571  -9.880  38.319  1.00  0.00     0.260 C 
ENDROOT
BRANCH   8   9
HETATM    9  C7  UNK     1      31.490  -9.309  37.312  1.00  0.00     0.108 A 
HETATM   10  C12 UNK     1      32.320  -8.353  37.746  1.00  0.00     0.037 A 
HETATM   11  C15 UNK     1      33.262  -7.729  36.829  1.00  0.00    -0.001 A 
HETATM   12  C16 UNK     1      33.282  -8.142  35.502  1.00  0.00     0.092 A 
HETATM   13  C17 UNK     1      34.146  -6.728  37.239  1.00  0.00     0.017 A 
HETATM   14  O2  UNK     1      32.405  -9.148  35.051  1.00  0.00    -0.274 OA
HETATM   15  C19 UNK     1      34.160  -7.584  34.573  1.00  0.00     0.075 A 
HETATM   16  C14 UNK     1      31.494  -9.764  35.904  1.00  0.00     0.304 A 
HETATM   17  O3  UNK     1      30.734 -10.638  35.503  1.00  0.00    -0.259 OA
HETATM   18  C20 UNK     1      35.039  -6.587  34.989  1.00  0.00     0.070 A 
HETATM   19  C21 UNK     1      35.033  -6.159  36.319  1.00  0.00     0.038 A 
BRANCH  18  20
HETATM   20  O4  UNK     1      35.905  -6.029  34.100  1.00  0.00    -0.356 OA
HETATM   21  C23 UNK     1      35.997  -6.639  32.813  1.00  0.00     0.210 C 
ENDBRANCH  18  20
ENDBRANCH   8   9
BRANCH   2  22
HETATM   22  C5  UNK     1      25.087  -8.451  38.154  1.00  0.00     0.030 A 
HETATM   23  C8  UNK     1      24.458  -7.544  39.040  1.00  0.00     0.030 A 
HETATM   24  C10 UNK     1      23.095  -7.264  38.944  1.00  0.00     0.017 A 
HETATM   25  C13 UNK     1      22.323  -7.882  37.961  1.00  0.00     0.009 A 
HETATM   26  C11 UNK     1      22.914  -8.781  37.073  1.00  0.00     0.017 A 
HETATM   27  C9  UNK     1      24.277  -9.062  37.169  1.00  0.00     0.030 A 
BRANCH  25  28
HETATM   28  C18 UNK     1      20.902  -7.589  37.862  1.00  0.00     0.155 C 
HETATM   29  O5  UNK     1      20.289  -7.700  36.781  1.00  0.00    -0.293 OA
HETATM   30  C22 UNK     1      20.123  -7.131  39.091  1.00  0.00     0.096 C 
ENDBRANCH  25  28
ENDBRANCH   2  22
TORSDOF 4
ENDMDL
MODEL 3
REMARK VINA RESULT:      -8.2      9.157     15.890
REMARK  4 active torsions:
REMARK  status: ('A' for Active; 'I' for Inactive)
REMARK    1  A    between atoms: C20_27  and  O4_4 
REMARK    2  A    between atoms: C5_12  and  N1_6 
REMARK       I    between atoms: C6_13  and  N2_7 
REMARK    3  A    between atoms: C6_13  and  C7_14 
REMARK    4  A    between atoms: C13_20  and  C18_25 
ROOT
HETATM    1  O1  UNK     1      19.578  -2.915  38.130  1.00  0.00    -0.267 OA
HETATM    2  N1  UNK     1      21.396  -7.325  36.463  1.00  0.00    -0.378 N 
HETATM    3  N2  UNK     1      20.152  -4.733  36.794  1.00  0.00    -0.345 N 
HETATM    4  C1  UNK     1      20.371  -6.873  35.519  1.00  0.00     0.143 C 
HETATM    5  C2  UNK     1      21.668  -6.495  37.639  1.00  0.00     0.143 C 
HETATM    6  C3  UNK     1      20.311  -5.345  35.472  1.00  0.00     0.146 C 
HETATM    7  C4  UNK     1      20.484  -5.578  37.939  1.00  0.00     0.146 C 
HETATM    8  C6  UNK     1      19.714  -3.429  37.019  1.00  0.00     0.260 C 
ENDROOT
BRANCH   8   9
HETATM    9  C7  UNK     1      19.402  -2.609  35.830  1.00  0.00     0.108 A 
HETATM   10  C12 UNK     1      20.205  -2.772  34.772  1.00  0.00     0.037 A 
HETATM   11  C15 UNK     1      19.978  -2.008  33.555  1.00  0.00    -0.001 A 
HETATM   12  C16 UNK     1      18.917  -1.110  33.512  1.00  0.00     0.092 A 
HETATM   13  C17 UNK     1      20.791  -2.146  32.428  1.00  0.00     0.017 A 
HETATM   14  O2  UNK     1      18.075  -0.942  34.629  1.00  0.00    -0.274 OA
HETATM   15  C19 UNK     1      18.646  -0.348  32.377  1.00  0.00     0.075 A 
HETATM   16  C14 UNK     1      18.267  -1.659  35.807  1.00  0.00     0.304 A 
HETATM   17  O3  UNK     1      17.530  -1.505  36.775  1.00  0.00    -0.259 OA
HETATM   18  C20 UNK     1      19.461  -0.492  31.257  1.00  0.00     0.070 A 
HETATM   19  C21 UNK     1      20.531  -1.389  31.281  1.00  0.00     0.038 A 
BRANCH  18  20
HETATM   20  O4  UNK     1      19.215   0.241  30.137  1.00  0.00    -0.356 OA
HETATM   21  C23 UNK     1      19.896  -0.146  28.945  1.00  0.00     0.210 C 
ENDBRANCH  18  20
ENDBRANCH   8   9
BRANCH   2  22
HETATM   22  C5  UNK     1      22.052  -8.542  36.289  1.00  0.00     0.030 A 
HETATM   23  C8  UNK     1      21.515  -9.558  35.463  1.00  0.00     0.030 A 
HETATM   24  C10 UNK     1      22.172 -10.775  35.288  1.00  0.00     0.017 A 
HETATM   25  C13 UNK     1      23.386 -11.012  35.934  1.00  0.00     0.009 A 
HETATM   26  C11 UNK     1      23.942 -10.030  36.754  1.00  0.00     0.017 A 
HETATM   27  C9  UNK     1      23.284  -8.813  36.930  1.00  0.00     0.030 A 
BRANCH  25  28
HETATM   28  C18 UNK     1      24.071 -12.281  35.750  1.00  0.00     0.155 C 
HETATM   29  O5  UNK     1      23.902 -12.969  34.724  1.00  0.00    -0.293 OA
HETATM   30  C22 UNK     1      25.021 -12.804  36.823  1.00  0.00     0.096 C 
ENDBRANCH  25  28
ENDBRANCH   2  22
TORSDOF 4
ENDMDL
MODEL 4
REMARK VINA RESULT:      -8.2      2.198     10.004
REMARK  4 active torsions:
REMARK  status: ('A' for Active; 'I' for Inactive)
REMARK    1  A    between atoms: C20_27  and  O4_4 
REMARK    2  A    between atoms: C5_12  and  N1_6 
REMARK       I    between atoms: C6_13  and  N2_7 
REMARK    3  A    between atoms: C6_13  and  C7_14 
REMARK    4  A    between atoms: C13_20  and  C18_25 
ROOT
HETATM    1  O1  UNK     1      17.840   6.910  30.272  1.00  0.00    -0.267 OA
HETATM    2  N1  UNK     1      18.259   3.081  33.543  1.00  0.00    -0.378 N 
HETATM    3  N2  UNK     1      17.842   5.614  32.206  1.00  0.00    -0.345 N 
HETATM    4  C1  UNK     1      18.298   4.331  34.304  1.00  0.00     0.143 C 
HETATM    5  C2  UNK     1      18.141   3.162  32.085  1.00  0.00     0.143 C 
HETATM    6  C3  UNK     1      17.472   5.416  33.611  1.00  0.00     0.146 C 
HETATM    7  C4  UNK     1      18.597   4.530  31.581  1.00  0.00     0.146 C 
HETATM    8  C6  UNK     1      17.527   6.743  31.452  1.00  0.00     0.260 C 
ENDROOT
BRANCH   8   9
HETATM    9  C7  UNK     1      16.753   7.808  32.124  1.00  0.00     0.108 A 
HETATM   10  C12 UNK     1      17.465   8.721  32.795  1.00  0.00     0.037 A 
HETATM   11  C15 UNK     1      16.792   9.808  33.490  1.00  0.00    -0.001 A 
HETATM   12  C16 UNK     1      15.404   9.879  33.444  1.00  0.00     0.092 A 
HETATM   13  C17 UNK     1      17.495  10.784  34.201  1.00  0.00     0.017 A 
HETATM   14  O2  UNK     1      14.661   8.913  32.737  1.00  0.00    -0.274 OA
HETATM   15  C19 UNK     1      14.700  10.895  34.088  1.00  0.00     0.075 A 
HETATM   16  C14 UNK     1      15.276   7.863  32.062  1.00  0.00     0.304 A 
HETATM   17  O3  UNK     1      14.621   7.026  31.451  1.00  0.00    -0.259 OA
HETATM   18  C20 UNK     1      15.407  11.864  34.795  1.00  0.00     0.070 A 
HETATM   19  C21 UNK     1      16.802  11.809  34.852  1.00  0.00     0.038 A 
BRANCH  18  20
HETATM   20  O4  UNK     1      14.740  12.865  35.432  1.00  0.00    -0.356 OA
HETATM   21  C23 UNK     1      15.246  13.278  36.700  1.00  0.00     0.210 C 
ENDBRANCH  18  20
ENDBRANCH   8   9
BRANCH   2  22
HETATM   22  C5  UNK     1      18.396   1.846  34.174  1.00  0.00     0.030 A 
HETATM   23  C8  UNK     1      18.612   1.751  35.569  1.00  0.00     0.030 A 
HETATM   24  C10 UNK     1      18.747   0.516  36.201  1.00  0.00     0.017 A 
HETATM   25  C13 UNK     1      18.671  -0.661  35.455  1.00  0.00     0.009 A 
HETATM   26  C11 UNK     1      18.459  -0.601  34.078  1.00  0.00     0.017 A 
HETATM   27  C9  UNK     1      18.325   0.635  33.446  1.00  0.00     0.030 A 
BRANCH  25  28
HETATM   28  C18 UNK     1      18.812  -1.949  36.115  1.00  0.00     0.155 C 
HETATM   29  O5  UNK     1      17.891  -2.431  36.805  1.00  0.00    -0.293 OA
HETATM   30  C22 UNK     1      20.105  -2.748  35.976  1.00  0.00     0.096 C 
ENDBRANCH  25  28
ENDBRANCH   2  22
TORSDOF 4
ENDMDL
MODEL 5
REMARK VINA RESULT:      -8.0      3.103      4.502
REMARK  4 active torsions:
REMARK  status: ('A' for Active; 'I' for Inactive)
REMARK    1  A    between atoms: C20_27  and  O4_4 
REMARK    2  A    between atoms: C5_12  and  N1_6 
REMARK       I    between atoms: C6_13  and  N2_7 
REMARK    3  A    between atoms: C6_13  and  C7_14 
REMARK    4  A    between atoms: C13_20  and  C18_25 
ROOT
HETATM    1  O1  UNK     1      19.012   9.693  34.206  1.00  0.00    -0.267 OA
HETATM    2  N1  UNK     1      14.234  11.315  33.942  1.00  0.00    -0.378 N 
HETATM    3  N2  UNK     1      16.746   9.896  33.714  1.00  0.00    -0.345 N 
HETATM    4  C1  UNK     1      14.457  10.384  32.834  1.00  0.00     0.143 C 
HETATM    5  C2  UNK     1      15.356  11.604  34.839  1.00  0.00     0.143 C 
HETATM    6  C3  UNK     1      15.492   9.324  33.214  1.00  0.00     0.146 C 
HETATM    7  C4  UNK     1      16.686  11.286  34.160  1.00  0.00     0.146 C 
HETATM    8  C6  UNK     1      17.958   9.212  33.788  1.00  0.00     0.260 C 
ENDROOT
BRANCH   8   9
HETATM    9  C7  UNK     1      17.966   7.804  33.336  1.00  0.00     0.108 A 
HETATM   10  C12 UNK     1      18.499   7.574  32.130  1.00  0.00     0.037 A 
HETATM   11  C15 UNK     1      18.552   6.221  31.599  1.00  0.00    -0.001 A 
HETATM   12  C16 UNK     1      18.041   5.178  32.364  1.00  0.00     0.092 A 
HETATM   13  C17 UNK     1      19.099   5.935  30.346  1.00  0.00     0.017 A 
HETATM   14  O2  UNK     1      17.481   5.426  33.632  1.00  0.00    -0.274 OA
HETATM   15  C19 UNK     1      18.062   3.859  31.912  1.00  0.00     0.075 A 
HETATM   16  C14 UNK     1      17.417   6.710  34.167  1.00  0.00     0.304 A 
HETATM   17  O3  UNK     1      16.926   6.918  35.271  1.00  0.00    -0.259 OA
HETATM   18  C20 UNK     1      18.609   3.582  30.662  1.00  0.00     0.070 A 
HETATM   19  C21 UNK     1      19.126   4.617  29.880  1.00  0.00     0.038 A 
BRANCH  18  20
HETATM   20  O4  UNK     1      18.640   2.301  30.201  1.00  0.00    -0.356 OA
HETATM   21  C23 UNK     1      18.062   2.059  28.919  1.00  0.00     0.210 C 
ENDBRANCH  18  20
ENDBRANCH   8   9
BRANCH   2  22
HETATM   22  C5  UNK     1      13.012  11.964  34.106  1.00  0.00     0.030 A 
HETATM   23  C8  UNK     1      12.135  12.173  33.015  1.00  0.00     0.030 A 
HETATM   24  C10 UNK     1      10.912  12.820  33.180  1.00  0.00     0.017 A 
HETATM   25  C13 UNK     1      10.528  13.278  34.441  1.00  0.00     0.009 A 
HETATM   26  C11 UNK     1      11.370  13.086  35.537  1.00  0.00     0.017 A 
HETATM   27  C9  UNK     1      12.595  12.439  35.372  1.00  0.00     0.030 A 
BRANCH  25  28
HETATM   28  C18 UNK     1       9.252  13.952  34.613  1.00  0.00     0.155 C 
HETATM   29  O5  UNK     1       9.176  15.073  35.155  1.00  0.00    -0.293 OA
HETATM   30  C22 UNK     1       7.963  13.294  34.129  1.00  0.00     0.096 C 
ENDBRANCH  25  28
ENDBRANCH   2  22
TORSDOF 4
ENDMDL
MODEL 6
REMARK VINA RESULT:      -8.0     17.169     22.374
REMARK  4 active torsions:
REMARK  status: ('A' for Active; 'I' for Inactive)
REMARK    1  A    between atoms: C20_27  and  O4_4 
REMARK    2  A    between atoms: C5_12  and  N1_6 
REMARK       I    between atoms: C6_13  and  N2_7 
REMARK    3  A    between atoms: C6_13  and  C7_14 
REMARK    4  A    between atoms: C13_20  and  C18_25 
ROOT
HETATM    1  O1  UNK     1      32.465  -4.899  38.985  1.00  0.00    -0.267 OA
HETATM    2  N1  UNK     1      34.167  -7.736  35.166  1.00  0.00    -0.378 N 
HETATM    3  N2  UNK     1      32.655  -6.489  37.295  1.00  0.00    -0.345 N 
HETATM    4  C1  UNK     1      33.067  -8.457  35.809  1.00  0.00     0.143 C 
HETATM    5  C2  UNK     1      34.560  -6.437  35.719  1.00  0.00     0.143 C 
HETATM    6  C3  UNK     1      32.050  -7.481  36.402  1.00  0.00     0.146 C 
HETATM    7  C4  UNK     1      34.099  -6.306  37.169  1.00  0.00     0.146 C 
HETATM    8  C6  UNK     1      31.955  -5.731  38.233  1.00  0.00     0.260 C 
ENDROOT
BRANCH   8   9
HETATM    9  C7  UNK     1      30.495  -5.943  38.316  1.00  0.00     0.108 A 
HETATM   10  C12 UNK     1      30.095  -7.170  38.668  1.00  0.00     0.037 A 
HETATM   11  C15 UNK     1      28.677  -7.476  38.776  1.00  0.00    -0.001 A 
HETATM   12  C16 UNK     1      27.751  -6.474  38.508  1.00  0.00     0.092 A 
HETATM   13  C17 UNK     1      28.215  -8.743  39.140  1.00  0.00     0.017 A 
HETATM   14  O2  UNK     1      28.178  -5.184  38.137  1.00  0.00    -0.274 OA
HETATM   15  C19 UNK     1      26.378  -6.703  38.594  1.00  0.00     0.075 A 
HETATM   16  C14 UNK     1      29.527  -4.861  38.026  1.00  0.00     0.304 A 
HETATM   17  O3  UNK     1      29.890  -3.736  37.701  1.00  0.00    -0.259 OA
HETATM   18  C20 UNK     1      25.925  -7.968  38.958  1.00  0.00     0.070 A 
HETATM   19  C21 UNK     1      26.841  -8.987  39.231  1.00  0.00     0.038 A 
BRANCH  18  20
HETATM   20  O4  UNK     1      24.589  -8.214  39.048  1.00  0.00    -0.356 OA
HETATM   21  C23 UNK     1      23.718  -7.084  39.018  1.00  0.00     0.210 C 
ENDBRANCH  18  20
ENDBRANCH   8   9
BRANCH   2  22
HETATM   22  C5  UNK     1      34.870  -8.291  34.098  1.00  0.00     0.030 A 
HETATM   23  C8  UNK     1      34.337  -9.363  33.343  1.00  0.00     0.030 A 
HETATM   24  C10 UNK     1      35.038  -9.918  32.274  1.00  0.00     0.017 A 
HETATM   25  C13 UNK     1      36.294  -9.417  31.928  1.00  0.00     0.009 A 
HETATM   26  C11 UNK     1      36.846  -8.361  32.652  1.00  0.00     0.017 A 
HETATM   27  C9  UNK     1      36.144  -7.806  33.723  1.00  0.00     0.030 A 
BRANCH  25  28
HETATM   28  C18 UNK     1      37.025  -9.996  30.813  1.00  0.00     0.155 C 
HETATM   29  O5  UNK     1      36.865  -9.584  29.646  1.00  0.00    -0.293 OA
HETATM   30  C22 UNK     1      38.013 -11.134  31.048  1.00  0.00     0.096 C 
ENDBRANCH  25  28
ENDBRANCH   2  22
TORSDOF 4
ENDMDL
MODEL 7
REMARK VINA RESULT:      -7.9      8.364     14.078
REMARK  4 active torsions:
REMARK  status: ('A' for Active; 'I' for Inactive)
REMARK    1  A    between atoms: C20_27  and  O4_4 
REMARK    2  A    between atoms: C5_12  and  N1_6 
REMARK       I    between atoms: C6_13  and  N2_7 
REMARK    3  A    between atoms: C6_13  and  C7_14 
REMARK    4  A    between atoms: C13_20  and  C18_25 
ROOT
HETATM    1  O1  UNK     1      20.629  -9.208  37.466  1.00  0.00    -0.267 OA
HETATM    2  N1  UNK     1      19.731  -4.307  36.628  1.00  0.00    -0.378 N 
HETATM    3  N2  UNK     1      20.783  -6.886  37.414  1.00  0.00    -0.345 N 
HETATM    4  C1  UNK     1      20.679  -4.409  37.739  1.00  0.00     0.143 C 
HETATM    5  C2  UNK     1      19.235  -5.547  36.026  1.00  0.00     0.143 C 
HETATM    6  C3  UNK     1      21.556  -5.653  37.594  1.00  0.00     0.146 C 
HETATM    7  C4  UNK     1      19.394  -6.718  36.992  1.00  0.00     0.146 C 
HETATM    8  C6  UNK     1      21.279  -8.172  37.615  1.00  0.00     0.260 C 
ENDROOT
BRANCH   8   9
HETATM    9  C7  UNK     1      22.693  -8.292  38.030  1.00  0.00     0.108 A 
HETATM   10  C12 UNK     1      23.532  -8.808  37.124  1.00  0.00     0.037 A 
HETATM   11  C15 UNK     1      24.944  -8.966  37.439  1.00  0.00    -0.001 A 
HETATM   12  C16 UNK     1      25.401  -8.574  38.692  1.00  0.00     0.092 A 
HETATM   13  C17 UNK     1      25.854  -9.499  36.524  1.00  0.00     0.017 A 
HETATM   14  O2  UNK     1      24.513  -8.032  39.642  1.00  0.00    -0.274 OA
HETATM   15  C19 UNK     1      26.741  -8.699  39.056  1.00  0.00     0.075 A 
HETATM   16  C14 UNK     1      23.157  -7.868  39.369  1.00  0.00     0.304 A 
HETATM   17  O3  UNK     1      22.391  -7.397  40.202  1.00  0.00    -0.259 OA
HETATM   18  C20 UNK     1      27.643  -9.231  38.138  1.00  0.00     0.070 A 
HETATM   19  C21 UNK     1      27.202  -9.631  36.875  1.00  0.00     0.038 A 
BRANCH  18  20
HETATM   20  O4  UNK     1      28.956  -9.363  38.472  1.00  0.00    -0.356 OA
HETATM   21  C23 UNK     1      29.915  -9.104  37.447  1.00  0.00     0.210 C 
ENDBRANCH  18  20
ENDBRANCH   8   9
BRANCH   2  22
HETATM   22  C5  UNK     1      19.258  -3.070  36.192  1.00  0.00     0.030 A 
HETATM   23  C8  UNK     1      19.791  -2.442  35.042  1.00  0.00     0.030 A 
HETATM   24  C10 UNK     1      19.318  -1.205  34.605  1.00  0.00     0.017 A 
HETATM   25  C13 UNK     1      18.298  -0.561  35.305  1.00  0.00     0.009 A 
HETATM   26  C11 UNK     1      17.752  -1.155  36.443  1.00  0.00     0.017 A 
HETATM   27  C9  UNK     1      18.226  -2.392  36.881  1.00  0.00     0.030 A 
BRANCH  25  28
HETATM   28  C18 UNK     1      17.804   0.728  34.849  1.00  0.00     0.155 C 
HETATM   29  O5  UNK     1      16.788   0.818  34.131  1.00  0.00    -0.293 OA
HETATM   30  C22 UNK     1      18.528   2.012  35.241  1.00  0.00     0.096 C 
ENDBRANCH  25  28
ENDBRANCH   2  22
TORSDOF 4
ENDMDL
MODEL 8
REMARK VINA RESULT:      -7.8     15.145     18.706
REMARK  4 active torsions:
REMARK  status: ('A' for Active; 'I' for Inactive)
REMARK    1  A    between atoms: C20_27  and  O4_4 
REMARK    2  A    between atoms: C5_12  and  N1_6 
REMARK       I    between atoms: C6_13  and  N2_7 
REMARK    3  A    between atoms: C6_13  and  C7_14 
REMARK    4  A    between atoms: C13_20  and  C18_25 
ROOT
HETATM    1  O1  UNK     1      26.362  -9.501  39.917  1.00  0.00    -0.267 OA
HETATM    2  N1  UNK     1      29.549  -6.693  37.182  1.00  0.00    -0.378 N 
HETATM    3  N2  UNK     1      27.312  -8.188  38.247  1.00  0.00    -0.345 N 
HETATM    4  C1  UNK     1      28.498  -7.182  36.288  1.00  0.00     0.143 C 
HETATM    5  C2  UNK     1      29.504  -7.095  38.590  1.00  0.00     0.143 C 
HETATM    6  C3  UNK     1      27.180  -7.359  37.044  1.00  0.00     0.146 C 
HETATM    7  C4  UNK     1      28.668  -8.361  38.763  1.00  0.00     0.146 C 
HETATM    8  C6  UNK     1      26.251  -8.803  38.908  1.00  0.00     0.260 C 
ENDROOT
BRANCH   8   9
HETATM    9  C7  UNK     1      24.897  -8.589  38.356  1.00  0.00     0.108 A 
HETATM   10  C12 UNK     1      24.114  -7.736  39.026  1.00  0.00     0.037 A 
HETATM   11  C15 UNK     1      22.763  -7.460  38.560  1.00  0.00    -0.001 A 
HETATM   12  C16 UNK     1      22.305  -8.097  37.412  1.00  0.00     0.092 A 
HETATM   13  C17 UNK     1      21.912  -6.577  39.228  1.00  0.00     0.017 A 
HETATM   14  O2  UNK     1      23.134  -8.994  36.711  1.00  0.00    -0.274 OA
HETATM   15  C19 UNK     1      21.021  -7.876  36.914  1.00  0.00     0.075 A 
HETATM   16  C14 UNK     1      24.430  -9.278  37.132  1.00  0.00     0.304 A 
HETATM   17  O3  UNK     1      25.144 -10.061  36.516  1.00  0.00    -0.259 OA
HETATM   18  C20 UNK     1      20.179  -6.994  37.585  1.00  0.00     0.070 A 
HETATM   19  C21 UNK     1      20.622  -6.345  38.740  1.00  0.00     0.038 A 
BRANCH  18  20
HETATM   20  O4  UNK     1      18.922  -6.763  37.116  1.00  0.00    -0.356 OA
HETATM   21  C23 UNK     1      18.425  -7.659  36.124  1.00  0.00     0.210 C 
ENDBRANCH  18  20
ENDBRANCH   8   9
BRANCH   2  22
HETATM   22  C5  UNK     1      30.604  -5.918  36.702  1.00  0.00     0.030 A 
HETATM   23  C8  UNK     1      31.462  -6.393  35.681  1.00  0.00     0.030 A 
HETATM   24  C10 UNK     1      32.516  -5.619  35.199  1.00  0.00     0.017 A 
HETATM   25  C13 UNK     1      32.744  -4.346  35.725  1.00  0.00     0.009 A 
HETATM   26  C11 UNK     1      31.916  -3.850  36.732  1.00  0.00     0.017 A 
HETATM   27  C9  UNK     1      30.862  -4.625  37.214  1.00  0.00     0.030 A 
BRANCH  25  28
HETATM   28  C18 UNK     1      33.843  -3.538  35.222  1.00  0.00     0.155 C 
HETATM   29  O5  UNK     1      34.039  -2.377  35.633  1.00  0.00    -0.293 OA
HETATM   30  C22 UNK     1      34.790  -4.100  34.166  1.00  0.00     0.096 C 
ENDBRANCH  25  28
ENDBRANCH   2  22
TORSDOF 4
ENDMDL
MODEL 9
REMARK VINA RESULT:      -7.8     15.677     20.278
REMARK  4 active torsions:
REMARK  status: ('A' for Active; 'I' for Inactive)
REMARK    1  A    between atoms: C20_27  and  O4_4 
REMARK    2  A    between atoms: C5_12  and  N1_6 
REMARK       I    between atoms: C6_13  and  N2_7 
REMARK    3  A    between atoms: C6_13  and  C7_14 
REMARK    4  A    between atoms: C13_20  and  C18_25 
ROOT
HETATM    1  O1  UNK     1      30.784 -10.859  39.279  1.00  0.00    -0.267 OA
HETATM    2  N1  UNK     1      26.332  -8.645  38.380  1.00  0.00    -0.378 N 
HETATM    3  N2  UNK     1      29.112  -9.439  38.499  1.00  0.00    -0.345 N 
HETATM    4  C1  UNK     1      27.388  -7.682  38.059  1.00  0.00     0.143 C 
HETATM    5  C2  UNK     1      26.726  -9.961  38.887  1.00  0.00     0.143 C 
HETATM    6  C3  UNK     1      28.649  -8.399  37.575  1.00  0.00     0.146 C 
HETATM    7  C4  UNK     1      28.135  -9.914  39.475  1.00  0.00     0.146 C 
HETATM    8  C6  UNK     1      30.394  -9.987  38.502  1.00  0.00     0.260 C 
ENDROOT
BRANCH   8   9
HETATM    9  C7  UNK     1      31.344  -9.483  37.488  1.00  0.00     0.108 A 
HETATM   10  C12 UNK     1      31.433 -10.194  36.357  1.00  0.00     0.037 A 
HETATM   11  C15 UNK     1      32.342  -9.778  35.300  1.00  0.00    -0.001 A 
HETATM   12  C16 UNK     1      33.112  -8.635  35.486  1.00  0.00     0.092 A 
HETATM   13  C17 UNK     1      32.466 -10.489  34.104  1.00  0.00     0.017 A 
HETATM   14  O2  UNK     1      33.015  -7.892  36.678  1.00  0.00    -0.274 OA
HETATM   15  C19 UNK     1      34.001  -8.184  34.512  1.00  0.00     0.075 A 
HETATM   16  C14 UNK     1      32.154  -8.264  37.707  1.00  0.00     0.304 A 
HETATM   17  O3  UNK     1      32.077  -7.612  38.743  1.00  0.00    -0.259 OA
HETATM   18  C20 UNK     1      34.120  -8.898  33.322  1.00  0.00     0.070 A 
HETATM   19  C21 UNK     1      33.354 -10.048  33.118  1.00  0.00     0.038 A 
BRANCH  18  20
HETATM   20  O4  UNK     1      34.981  -8.475  32.357  1.00  0.00    -0.356 OA
HETATM   21  C23 UNK     1      35.336  -7.093  32.364  1.00  0.00     0.210 C 
ENDBRANCH  18  20
ENDBRANCH   8   9
BRANCH   2  22
HETATM   22  C5  UNK     1      24.985  -8.303  38.270  1.00  0.00     0.030 A 
HETATM   23  C8  UNK     1      24.425  -7.257  39.040  1.00  0.00     0.030 A 
HETATM   24  C10 UNK     1      23.078  -6.914  38.930  1.00  0.00     0.017 A 
HETATM   25  C13 UNK     1      22.252  -7.609  38.046  1.00  0.00     0.009 A 
HETATM   26  C11 UNK     1      22.774  -8.645  37.272  1.00  0.00     0.017 A 
HETATM   27  C9  UNK     1      24.122  -8.988  37.383  1.00  0.00     0.030 A 
BRANCH  25  28
HETATM   28  C18 UNK     1      20.848  -7.250  37.930  1.00  0.00     0.155 C 
HETATM   29  O5  UNK     1      20.346  -6.929  36.834  1.00  0.00    -0.293 OA
HETATM   30  C22 UNK     1      19.948  -7.258  39.162  1.00  0.00     0.096 C 
ENDBRANCH  25  28
ENDBRANCH   2  22
TORSDOF 4
ENDMDL
MODEL 10
REMARK VINA RESULT:      -7.7     18.102     20.221
REMARK  4 active torsions:
REMARK  status: ('A' for Active; 'I' for Inactive)
REMARK    1  A    between atoms: C20_27  and  O4_4 
REMARK    2  A    between atoms: C5_12  and  N1_6 
REMARK       I    between atoms: C6_13  and  N2_7 
REMARK    3  A    between atoms: C6_13  and  C7_14 
REMARK    4  A    between atoms: C13_20  and  C18_25 
ROOT
HETATM    1  O1  UNK     1      14.178  12.520  13.863  1.00  0.00    -0.267 OA
HETATM    2  N1  UNK     1      13.111  10.232  18.240  1.00  0.00    -0.378 N 
HETATM    3  N2  UNK     1      13.433  11.011  15.471  1.00  0.00    -0.345 N 
HETATM    4  C1  UNK     1      12.248   9.655  17.207  1.00  0.00     0.143 C 
HETATM    5  C2  UNK     1      14.035  11.300  17.852  1.00  0.00     0.143 C 
HETATM    6  C3  UNK     1      12.940   9.681  15.843  1.00  0.00     0.146 C 
HETATM    7  C4  UNK     1      13.572  11.974  16.562  1.00  0.00     0.146 C 
HETATM    8  C6  UNK     1      13.766  11.402  14.176  1.00  0.00     0.260 C 
ENDROOT
BRANCH   8   9
HETATM    9  C7  UNK     1      13.619  10.391  13.108  1.00  0.00     0.108 A 
HETATM   10  C12 UNK     1      14.737   9.753  12.742  1.00  0.00     0.037 A 
HETATM   11  C15 UNK     1      14.694   8.740  11.698  1.00  0.00    -0.001 A 
HETATM   12  C16 UNK     1      13.476   8.450  11.092  1.00  0.00     0.092 A 
HETATM   13  C17 UNK     1      15.835   8.049  11.285  1.00  0.00     0.017 A 
HETATM   14  O2  UNK     1      12.303   9.126  11.481  1.00  0.00    -0.274 OA
HETATM   15  C19 UNK     1      13.368   7.492  10.086  1.00  0.00     0.075 A 
HETATM   16  C14 UNK     1      12.313  10.099  12.477  1.00  0.00     0.304 A 
HETATM   17  O3  UNK     1      11.288  10.684  12.808  1.00  0.00    -0.259 OA
HETATM   18  C20 UNK     1      14.510   6.807   9.679  1.00  0.00     0.070 A 
HETATM   19  C21 UNK     1      15.742   7.084  10.277  1.00  0.00     0.038 A 
BRANCH  18  20
HETATM   20  O4  UNK     1      14.428   5.866   8.699  1.00  0.00    -0.356 OA
HETATM   21  C23 UNK     1      13.133   5.339   8.412  1.00  0.00     0.210 C 
ENDBRANCH  18  20
ENDBRANCH   8   9
BRANCH   2  22
HETATM   22  C5  UNK     1      13.015   9.827  19.570  1.00  0.00     0.030 A 
HETATM   23  C8  UNK     1      13.147  10.751  20.633  1.00  0.00     0.030 A 
HETATM   24  C10 UNK     1      13.051  10.347  21.964  1.00  0.00     0.017 A 
HETATM   25  C13 UNK     1      12.820   9.005  22.270  1.00  0.00     0.009 A 
HETATM   26  C11 UNK     1      12.685   8.070  21.244  1.00  0.00     0.017 A 
HETATM   27  C9  UNK     1      12.782   8.474  19.913  1.00  0.00     0.030 A 
BRANCH  25  28
HETATM   28  C18 UNK     1      12.719   8.584  23.658  1.00  0.00     0.155 C 
HETATM   29  O5  UNK     1      12.344   9.370  24.551  1.00  0.00    -0.293 OA
HETATM   30  C22 UNK     1      13.075   7.155  24.056  1.00  0.00     0.096 C 
ENDBRANCH  25  28
ENDBRANCH   2  22
TORSDOF 4
ENDMDL
