MODEL 1
REMARK VINA RESULT:      -8.3      0.000      0.000
REMARK  3 active torsions:
REMARK  status: ('A' for Active; 'I' for Inactive)
REMARK    1  A    between atoms: C5_13  and  N1_7 
REMARK    2  A    between atoms: C10_18  and  N2_8 
REMARK    3  A    between atoms: C1_9  and  C2_10 
ROOT
HETATM    1  C1  UNK     1      18.866  -2.702  15.707  1.00  0.00     0.013 A 
HETATM    2  C5  UNK     1      19.966  -3.557  15.617  1.00  0.00     0.116 A 
HETATM    3  C7  UNK     1      17.585  -3.188  15.437  1.00  0.00     0.017 A 
HETATM    4  C9  UNK     1      19.785  -4.893  15.257  1.00  0.00     0.073 A 
HETATM    5  C10 UNK     1      18.505  -5.377  14.988  1.00  0.00     0.105 A 
HETATM    6  C11 UNK     1      17.405  -4.523  15.078  1.00  0.00     0.037 A 
ENDROOT
BRANCH   1   7
HETATM    7  C2  UNK     1      19.010  -1.283  16.083  1.00  0.00     0.053 A 
HETATM    8  C4  UNK     1      18.857  -0.932  17.369  1.00  0.00     0.032 A 
HETATM    9  C3  UNK     1      18.974   0.455  17.787  1.00  0.00    -0.001 A 
HETATM   10  C12 UNK     1      18.826   0.849  19.119  1.00  0.00     0.014 A 
HETATM   11  C6  UNK     1      19.240   1.425  16.827  1.00  0.00     0.089 A 
HETATM   12  C14 UNK     1      18.946   2.198  19.468  1.00  0.00     0.001 A 
HETATM   13  C15 UNK     1      19.214   3.157  18.489  1.00  0.00     0.003 A 
HETATM   14  C13 UNK     1      19.363   2.773  17.158  1.00  0.00     0.038 A 
HETATM   15  O1  UNK     1      19.397   1.066  15.475  1.00  0.00    -0.274 OA
HETATM   16  C8  UNK     1      19.304  -0.256  15.046  1.00  0.00     0.299 A 
HETATM   17  O2  UNK     1      19.466  -0.550  13.866  1.00  0.00    -0.259 OA
ENDBRANCH   1   7
BRANCH   2  18
HETATM   18  N1  UNK     1      21.286  -3.097  15.885  1.00  0.00    -0.115 N 
HETATM   19  O3  UNK     1      21.658  -3.003  17.077  1.00  0.00    -0.532 OA
HETATM   20  O4  UNK     1      22.025  -2.803  14.918  1.00  0.00    -0.532 OA
ENDBRANCH   2  18
BRANCH   5  21
HETATM   21  N2  UNK     1      18.321  -6.736  14.623  1.00  0.00    -0.116 N 
HETATM   22  O5  UNK     1      18.973  -7.194  13.654  1.00  0.00    -0.532 OA
HETATM   23  O6  UNK     1      17.514  -7.434  15.283  1.00  0.00    -0.532 OA
ENDBRANCH   5  21
TORSDOF 3
ENDMDL
MODEL 2
REMARK VINA RESULT:      -8.2     12.593     15.030
REMARK  3 active torsions:
REMARK  status: ('A' for Active; 'I' for Inactive)
REMARK    1  A    between atoms: C5_13  and  N1_7 
REMARK    2  A    between atoms: C10_18  and  N2_8 
REMARK    3  A    between atoms: C1_9  and  C2_10 
ROOT
HETATM    1  C1  UNK     1      14.440   8.904   8.953  1.00  0.00     0.013 A 
HETATM    2  C5  UNK     1      15.517   8.194   9.487  1.00  0.00     0.116 A 
HETATM    3  C7  UNK     1      14.602  10.245   8.596  1.00  0.00     0.017 A 
HETATM    4  C9  UNK     1      16.751   8.821   9.663  1.00  0.00     0.073 A 
HETATM    5  C10 UNK     1      16.910  10.160   9.305  1.00  0.00     0.105 A 
HETATM    6  C11 UNK     1      15.835  10.871   8.772  1.00  0.00     0.037 A 
ENDROOT
BRANCH   1   7
HETATM    7  C2  UNK     1      13.119   8.282   8.750  1.00  0.00     0.053 A 
HETATM    8  C4  UNK     1      12.818   7.771   7.546  1.00  0.00     0.032 A 
HETATM    9  C3  UNK     1      11.524   7.160   7.293  1.00  0.00    -0.001 A 
HETATM   10  C12 UNK     1      11.186   6.615   6.052  1.00  0.00     0.014 A 
HETATM   11  C6  UNK     1      10.588   7.121   8.319  1.00  0.00     0.089 A 
HETATM   12  C14 UNK     1       9.925   6.041   5.859  1.00  0.00     0.001 A 
HETATM   13  C15 UNK     1       8.999   6.011   6.903  1.00  0.00     0.003 A 
HETATM   14  C13 UNK     1       9.327   6.554   8.144  1.00  0.00     0.038 A 
HETATM   15  O1  UNK     1      10.892   7.660   9.583  1.00  0.00    -0.274 OA
HETATM   16  C8  UNK     1      12.128   8.238   9.861  1.00  0.00     0.299 A 
HETATM   17  O2  UNK     1      12.381   8.683  10.976  1.00  0.00    -0.259 OA
ENDBRANCH   1   7
BRANCH   2  18
HETATM   18  N1  UNK     1      15.389   6.826   9.862  1.00  0.00    -0.115 N 
HETATM   19  O3  UNK     1      15.674   5.944   9.021  1.00  0.00    -0.532 OA
HETATM   20  O4  UNK     1      14.994   6.558  11.020  1.00  0.00    -0.532 OA
ENDBRANCH   2  18
BRANCH   5  21
HETATM   21  N2  UNK     1      18.166  10.798   9.483  1.00  0.00    -0.116 N 
HETATM   22  O5  UNK     1      18.390  11.396  10.563  1.00  0.00    -0.532 OA
HETATM   23  O6  UNK     1      19.008  10.742   8.556  1.00  0.00    -0.532 OA
ENDBRANCH   5  21
TORSDOF 3
ENDMDL
MODEL 3
REMARK VINA RESULT:      -8.2     20.947     22.593
REMARK  3 active torsions:
REMARK  status: ('A' for Active; 'I' for Inactive)
REMARK    1  A    between atoms: C5_13  and  N1_7 
REMARK    2  A    between atoms: C10_18  and  N2_8 
REMARK    3  A    between atoms: C1_9  and  C2_10 
ROOT
HETATM    1  C1  UNK     1      21.037  -8.653  36.284  1.00  0.00     0.013 A 
HETATM    2  C5  UNK     1      19.962  -9.119  37.043  1.00  0.00     0.116 A 
HETATM    3  C7  UNK     1      20.820  -7.700  35.287  1.00  0.00     0.017 A 
HETATM    4  C9  UNK     1      18.675  -8.636  36.806  1.00  0.00     0.073 A 
HETATM    5  C10 UNK     1      18.461  -7.684  35.809  1.00  0.00     0.105 A 
HETATM    6  C11 UNK     1      19.534  -7.217  35.049  1.00  0.00     0.037 A 
ENDROOT
BRANCH   1   7
HETATM    7  C2  UNK     1      22.413  -9.137  36.501  1.00  0.00     0.053 A 
HETATM    8  C4  UNK     1      23.213  -8.469  37.346  1.00  0.00     0.032 A 
HETATM    9  C3  UNK     1      24.581  -8.898  37.582  1.00  0.00    -0.001 A 
HETATM   10  C12 UNK     1      25.433  -8.226  38.461  1.00  0.00     0.014 A 
HETATM   11  C6  UNK     1      25.060 -10.014  36.905  1.00  0.00     0.089 A 
HETATM   12  C14 UNK     1      26.743  -8.678  38.650  1.00  0.00     0.001 A 
HETATM   13  C15 UNK     1      27.206  -9.802  37.961  1.00  0.00     0.003 A 
HETATM   14  C13 UNK     1      26.363 -10.477  37.082  1.00  0.00     0.038 A 
HETATM   15  O1  UNK     1      24.231 -10.717  36.012  1.00  0.00    -0.274 OA
HETATM   16  C8  UNK     1      22.911 -10.339  35.776  1.00  0.00     0.299 A 
HETATM   17  O2  UNK     1      22.198 -10.979  35.010  1.00  0.00    -0.259 OA
ENDBRANCH   1   7
BRANCH   2  18
HETATM   18  N1  UNK     1      20.146 -10.091  38.068  1.00  0.00    -0.115 N 
HETATM   19  O3  UNK     1      20.014 -11.301  37.778  1.00  0.00    -0.532 OA
HETATM   20  O4  UNK     1      20.432  -9.696  39.222  1.00  0.00    -0.532 OA
ENDBRANCH   2  18
BRANCH   5  21
HETATM   21  N2  UNK     1      17.152  -7.190  35.568  1.00  0.00    -0.116 N 
HETATM   22  O5  UNK     1      16.658  -6.370  36.378  1.00  0.00    -0.532 OA
HETATM   23  O6  UNK     1      16.535  -7.589  34.551  1.00  0.00    -0.532 OA
ENDBRANCH   5  21
TORSDOF 3
ENDMDL
MODEL 4
REMARK VINA RESULT:      -8.1     15.229     18.006
REMARK  3 active torsions:
REMARK  status: ('A' for Active; 'I' for Inactive)
REMARK    1  A    between atoms: C5_13  and  N1_7 
REMARK    2  A    between atoms: C10_18  and  N2_8 
REMARK    3  A    between atoms: C1_9  and  C2_10 
ROOT
HETATM    1  C1  UNK     1      18.364   5.013  32.147  1.00  0.00     0.013 A 
HETATM    2  C5  UNK     1      18.813   4.777  30.846  1.00  0.00     0.116 A 
HETATM    3  C7  UNK     1      18.099   3.936  32.996  1.00  0.00     0.017 A 
HETATM    4  C9  UNK     1      18.995   3.469  30.395  1.00  0.00     0.073 A 
HETATM    5  C10 UNK     1      18.729   2.395  31.245  1.00  0.00     0.105 A 
HETATM    6  C11 UNK     1      18.280   2.629  32.545  1.00  0.00     0.037 A 
ENDROOT
BRANCH   1   7
HETATM    7  C2  UNK     1      18.157   6.379  32.664  1.00  0.00     0.053 A 
HETATM    8  C4  UNK     1      16.921   6.900  32.647  1.00  0.00     0.032 A 
HETATM    9  C3  UNK     1      16.668   8.247  33.131  1.00  0.00    -0.001 A 
HETATM   10  C12 UNK     1      15.391   8.813  33.132  1.00  0.00     0.014 A 
HETATM   11  C6  UNK     1      17.735   9.000  33.608  1.00  0.00     0.089 A 
HETATM   12  C14 UNK     1      15.202  10.115  33.607  1.00  0.00     0.001 A 
HETATM   13  C15 UNK     1      16.287  10.855  34.082  1.00  0.00     0.003 A 
HETATM   14  C13 UNK     1      17.564  10.298  34.085  1.00  0.00     0.038 A 
HETATM   15  O1  UNK     1      19.036   8.463  33.624  1.00  0.00    -0.274 OA
HETATM   16  C8  UNK     1      19.307   7.171  33.180  1.00  0.00     0.299 A 
HETATM   17  O2  UNK     1      20.445   6.714  33.222  1.00  0.00    -0.259 OA
ENDBRANCH   1   7
BRANCH   2  18
HETATM   18  N1  UNK     1      19.093   5.849  29.953  1.00  0.00    -0.115 N 
HETATM   19  O3  UNK     1      18.135   6.444  29.410  1.00  0.00    -0.532 OA
HETATM   20  O4  UNK     1      20.289   6.157  29.743  1.00  0.00    -0.532 OA
ENDBRANCH   2  18
BRANCH   5  21
HETATM   21  N2  UNK     1      18.915   1.064  30.788  1.00  0.00    -0.116 N 
HETATM   22  O5  UNK     1      19.319   0.881  29.614  1.00  0.00    -0.532 OA
HETATM   23  O6  UNK     1      18.671   0.117  31.572  1.00  0.00    -0.532 OA
ENDBRANCH   5  21
TORSDOF 3
ENDMDL
MODEL 5
REMARK VINA RESULT:      -7.8     15.311     18.055
REMARK  3 active torsions:
REMARK  status: ('A' for Active; 'I' for Inactive)
REMARK    1  A    between atoms: C5_13  and  N1_7 
REMARK    2  A    between atoms: C10_18  and  N2_8 
REMARK    3  A    between atoms: C1_9  and  C2_10 
ROOT
HETATM    1  C1  UNK     1      18.403   5.023  32.178  1.00  0.00     0.013 A 
HETATM    2  C5  UNK     1      18.807   4.724  30.876  1.00  0.00     0.116 A 
HETATM    3  C7  UNK     1      18.142   3.987  33.078  1.00  0.00     0.017 A 
HETATM    4  C9  UNK     1      18.949   3.395  30.475  1.00  0.00     0.073 A 
HETATM    5  C10 UNK     1      18.687   2.363  31.375  1.00  0.00     0.105 A 
HETATM    6  C11 UNK     1      18.283   2.659  32.677  1.00  0.00     0.037 A 
ENDROOT
BRANCH   1   7
HETATM    7  C2  UNK     1      18.240   6.412  32.645  1.00  0.00     0.053 A 
HETATM    8  C4  UNK     1      19.294   7.047  33.179  1.00  0.00     0.032 A 
HETATM    9  C3  UNK     1      19.180   8.412  33.667  1.00  0.00    -0.001 A 
HETATM   10  C12 UNK     1      20.262   9.099  34.221  1.00  0.00     0.014 A 
HETATM   11  C6  UNK     1      17.950   9.054  33.581  1.00  0.00     0.089 A 
HETATM   12  C14 UNK     1      20.098  10.411  34.679  1.00  0.00     0.001 A 
HETATM   13  C15 UNK     1      18.855  11.039  34.583  1.00  0.00     0.003 A 
HETATM   14  C13 UNK     1      17.770  10.360  34.032  1.00  0.00     0.038 A 
HETATM   15  O1  UNK     1      16.838   8.393  33.028  1.00  0.00    -0.274 OA
HETATM   16  C8  UNK     1      16.919   7.092  32.539  1.00  0.00     0.299 A 
HETATM   17  O2  UNK     1      15.942   6.542  32.041  1.00  0.00    -0.259 OA
ENDBRANCH   1   7
BRANCH   2  18
HETATM   18  N1  UNK     1      19.082   5.753  29.931  1.00  0.00    -0.115 N 
HETATM   19  O3  UNK     1      18.124   6.279  29.322  1.00  0.00    -0.532 OA
HETATM   20  O4  UNK     1      20.274   6.092  29.746  1.00  0.00    -0.532 OA
ENDBRANCH   2  18
BRANCH   5  21
HETATM   21  N2  UNK     1      18.832   1.010  30.968  1.00  0.00    -0.116 N 
HETATM   22  O5  UNK     1      19.141   0.770  29.776  1.00  0.00    -0.532 OA
HETATM   23  O6  UNK     1      18.648   0.103  31.814  1.00  0.00    -0.532 OA
ENDBRANCH   5  21
TORSDOF 3
ENDMDL
MODEL 6
REMARK VINA RESULT:      -7.7     16.150     19.097
REMARK  3 active torsions:
REMARK  status: ('A' for Active; 'I' for Inactive)
REMARK    1  A    between atoms: C5_13  and  N1_7 
REMARK    2  A    between atoms: C10_18  and  N2_8 
REMARK    3  A    between atoms: C1_9  and  C2_10 
ROOT
HETATM    1  C1  UNK     1      17.892   5.740  32.530  1.00  0.00     0.013 A 
HETATM    2  C5  UNK     1      18.824   6.591  33.125  1.00  0.00     0.116 A 
HETATM    3  C7  UNK     1      16.607   6.210  32.244  1.00  0.00     0.017 A 
HETATM    4  C9  UNK     1      18.475   7.906  33.435  1.00  0.00     0.073 A 
HETATM    5  C10 UNK     1      17.192   8.372  33.149  1.00  0.00     0.105 A 
HETATM    6  C11 UNK     1      16.258   7.524  32.554  1.00  0.00     0.037 A 
ENDROOT
BRANCH   1   7
HETATM    7  C2  UNK     1      18.218   4.344  32.186  1.00  0.00     0.053 A 
HETATM    8  C4  UNK     1      18.047   3.389  33.113  1.00  0.00     0.032 A 
HETATM    9  C3  UNK     1      18.368   2.000  32.828  1.00  0.00    -0.001 A 
HETATM   10  C12 UNK     1      18.194   0.985  33.771  1.00  0.00     0.014 A 
HETATM   11  C6  UNK     1      18.870   1.672  31.573  1.00  0.00     0.089 A 
HETATM   12  C14 UNK     1      18.522  -0.336  33.446  1.00  0.00     0.001 A 
HETATM   13  C15 UNK     1      19.024  -0.645  32.180  1.00  0.00     0.003 A 
HETATM   14  C13 UNK     1      19.201   0.361  31.234  1.00  0.00     0.038 A 
HETATM   15  O1  UNK     1      19.058   2.668  30.597  1.00  0.00    -0.274 OA
HETATM   16  C8  UNK     1      18.746   4.004  30.836  1.00  0.00     0.299 A 
HETATM   17  O2  UNK     1      18.898   4.854  29.964  1.00  0.00    -0.259 OA
ENDBRANCH   1   7
BRANCH   2  18
HETATM   18  N1  UNK     1      20.142   6.148  33.431  1.00  0.00    -0.115 N 
HETATM   19  O3  UNK     1      21.053   6.354  32.597  1.00  0.00    -0.532 OA
HETATM   20  O4  UNK     1      20.341   5.567  34.522  1.00  0.00    -0.532 OA
ENDBRANCH   2  18
BRANCH   5  21
HETATM   21  N2  UNK     1      16.835   9.711  33.463  1.00  0.00    -0.116 N 
HETATM   22  O5  UNK     1      17.747  10.563  33.589  1.00  0.00    -0.532 OA
HETATM   23  O6  UNK     1      15.622   9.995  33.602  1.00  0.00    -0.532 OA
ENDBRANCH   5  21
TORSDOF 3
ENDMDL
MODEL 7
REMARK VINA RESULT:      -7.7     17.296     20.301
REMARK  3 active torsions:
REMARK  status: ('A' for Active; 'I' for Inactive)
REMARK    1  A    between atoms: C5_13  and  N1_7 
REMARK    2  A    between atoms: C10_18  and  N2_8 
REMARK    3  A    between atoms: C1_9  and  C2_10 
ROOT
HETATM    1  C1  UNK     1      17.225   7.290  33.348  1.00  0.00     0.013 A 
HETATM    2  C5  UNK     1      16.683   6.771  32.170  1.00  0.00     0.116 A 
HETATM    3  C7  UNK     1      18.105   6.514  34.106  1.00  0.00     0.017 A 
HETATM    4  C9  UNK     1      17.018   5.483  31.753  1.00  0.00     0.073 A 
HETATM    5  C10 UNK     1      17.896   4.710  32.512  1.00  0.00     0.105 A 
HETATM    6  C11 UNK     1      18.439   5.226  33.689  1.00  0.00     0.037 A 
ENDROOT
BRANCH   1   7
HETATM    7  C2  UNK     1      16.899   8.646  33.826  1.00  0.00     0.053 A 
HETATM    8  C4  UNK     1      17.821   9.614  33.716  1.00  0.00     0.032 A 
HETATM    9  C3  UNK     1      17.552  10.963  34.187  1.00  0.00    -0.001 A 
HETATM   10  C12 UNK     1      18.491  11.992  34.080  1.00  0.00     0.014 A 
HETATM   11  C6  UNK     1      16.319  11.238  34.767  1.00  0.00     0.089 A 
HETATM   12  C14 UNK     1      18.183  13.272  34.551  1.00  0.00     0.001 A 
HETATM   13  C15 UNK     1      16.938  13.528  35.130  1.00  0.00     0.003 A 
HETATM   14  C13 UNK     1      15.997  12.508  35.242  1.00  0.00     0.038 A 
HETATM   15  O1  UNK     1      15.349  10.226  34.892  1.00  0.00    -0.274 OA
HETATM   16  C8  UNK     1      15.571   8.929  34.438  1.00  0.00     0.299 A 
HETATM   17  O2  UNK     1      14.703   8.068  34.537  1.00  0.00    -0.259 OA
ENDBRANCH   1   7
BRANCH   2  18
HETATM   18  N1  UNK     1      15.783   7.533  31.372  1.00  0.00    -0.115 N 
HETATM   19  O3  UNK     1      16.235   8.496  30.712  1.00  0.00    -0.532 OA
HETATM   20  O4  UNK     1      14.573   7.210  31.360  1.00  0.00    -0.532 OA
ENDBRANCH   2  18
BRANCH   5  21
HETATM   21  N2  UNK     1      18.238   3.399  32.088  1.00  0.00    -0.116 N 
HETATM   22  O5  UNK     1      17.890   2.425  32.798  1.00  0.00    -0.532 OA
HETATM   23  O6  UNK     1      18.876   3.259  31.017  1.00  0.00    -0.532 OA
ENDBRANCH   5  21
TORSDOF 3
ENDMDL
MODEL 8
REMARK VINA RESULT:      -7.7     14.836     17.630
REMARK  3 active torsions:
REMARK  status: ('A' for Active; 'I' for Inactive)
REMARK    1  A    between atoms: C5_13  and  N1_7 
REMARK    2  A    between atoms: C10_18  and  N2_8 
REMARK    3  A    between atoms: C1_9  and  C2_10 
ROOT
HETATM    1  C1  UNK     1      18.351   4.383  31.415  1.00  0.00     0.013 A 
HETATM    2  C5  UNK     1      18.377   3.115  31.999  1.00  0.00     0.116 A 
HETATM    3  C7  UNK     1      18.617   4.524  30.051  1.00  0.00     0.017 A 
HETATM    4  C9  UNK     1      18.669   1.993  31.223  1.00  0.00     0.073 A 
HETATM    5  C10 UNK     1      18.935   2.137  29.861  1.00  0.00     0.105 A 
HETATM    6  C11 UNK     1      18.909   3.403  29.276  1.00  0.00     0.037 A 
ENDROOT
BRANCH   1   7
HETATM    7  C2  UNK     1      18.048   5.596  32.197  1.00  0.00     0.053 A 
HETATM    8  C4  UNK     1      16.766   5.923  32.421  1.00  0.00     0.032 A 
HETATM    9  C3  UNK     1      16.416   7.116  33.173  1.00  0.00    -0.001 A 
HETATM   10  C12 UNK     1      15.091   7.477  33.426  1.00  0.00     0.014 A 
HETATM   11  C6  UNK     1      17.436   7.929  33.654  1.00  0.00     0.089 A 
HETATM   12  C14 UNK     1      14.808   8.638  34.153  1.00  0.00     0.001 A 
HETATM   13  C15 UNK     1      15.847   9.441  34.629  1.00  0.00     0.003 A 
HETATM   14  C13 UNK     1      17.171   9.089  34.380  1.00  0.00     0.038 A 
HETATM   15  O1  UNK     1      18.783   7.597  33.420  1.00  0.00    -0.274 OA
HETATM   16  C8  UNK     1      19.150   6.453  32.715  1.00  0.00     0.299 A 
HETATM   17  O2  UNK     1      20.331   6.171  32.540  1.00  0.00    -0.259 OA
ENDBRANCH   1   7
BRANCH   2  18
HETATM   18  N1  UNK     1      18.111   2.933  33.386  1.00  0.00    -0.115 N 
HETATM   19  O3  UNK     1      18.674   3.689  34.209  1.00  0.00    -0.532 OA
HETATM   20  O4  UNK     1      17.323   2.022  33.729  1.00  0.00    -0.532 OA
ENDBRANCH   2  18
BRANCH   5  21
HETATM   21  N2  UNK     1      19.231   0.995  29.071  1.00  0.00    -0.116 N 
HETATM   22  O5  UNK     1      20.212   0.281  29.387  1.00  0.00    -0.532 OA
HETATM   23  O6  UNK     1      18.500   0.739  28.084  1.00  0.00    -0.532 OA
ENDBRANCH   5  21
TORSDOF 3
ENDMDL
MODEL 9
REMARK VINA RESULT:      -7.5     12.717     14.543
REMARK  3 active torsions:
REMARK  status: ('A' for Active; 'I' for Inactive)
REMARK    1  A    between atoms: C5_13  and  N1_7 
REMARK    2  A    between atoms: C10_18  and  N2_8 
REMARK    3  A    between atoms: C1_9  and  C2_10 
ROOT
HETATM    1  C1  UNK     1      11.910   7.771   8.823  1.00  0.00     0.013 A 
HETATM    2  C5  UNK     1      11.657   6.702   7.961  1.00  0.00     0.116 A 
HETATM    3  C7  UNK     1      10.847   8.411   9.464  1.00  0.00     0.017 A 
HETATM    4  C9  UNK     1      10.347   6.277   7.739  1.00  0.00     0.073 A 
HETATM    5  C10 UNK     1       9.287   6.918   8.380  1.00  0.00     0.105 A 
HETATM    6  C11 UNK     1       9.538   7.985   9.242  1.00  0.00     0.037 A 
ENDROOT
BRANCH   1   7
HETATM    7  C2  UNK     1      13.278   8.255   9.086  1.00  0.00     0.053 A 
HETATM    8  C4  UNK     1      13.714   9.352   8.447  1.00  0.00     0.032 A 
HETATM    9  C3  UNK     1      15.059   9.859   8.661  1.00  0.00    -0.001 A 
HETATM   10  C12 UNK     1      15.537  11.002   8.016  1.00  0.00     0.014 A 
HETATM   11  C6  UNK     1      15.901   9.181   9.535  1.00  0.00     0.089 A 
HETATM   12  C14 UNK     1      16.841  11.447   8.254  1.00  0.00     0.001 A 
HETATM   13  C15 UNK     1      17.671  10.752   9.137  1.00  0.00     0.003 A 
HETATM   14  C13 UNK     1      17.203   9.611   9.784  1.00  0.00     0.038 A 
HETATM   15  O1  UNK     1      15.454   8.026  10.204  1.00  0.00    -0.274 OA
HETATM   16  C8  UNK     1      14.166   7.524  10.031  1.00  0.00     0.299 A 
HETATM   17  O2  UNK     1      13.790   6.528  10.641  1.00  0.00    -0.259 OA
ENDBRANCH   1   7
BRANCH   2  18
HETATM   18  N1  UNK     1      12.715   6.026   7.290  1.00  0.00    -0.115 N 
HETATM   19  O3  UNK     1      13.154   4.962   7.782  1.00  0.00    -0.532 OA
HETATM   20  O4  UNK     1      13.168   6.522   6.233  1.00  0.00    -0.532 OA
ENDBRANCH   2  18
BRANCH   5  21
HETATM   21  N2  UNK     1       7.954   6.484   8.156  1.00  0.00    -0.116 N 
HETATM   22  O5  UNK     1       7.763   5.323   7.720  1.00  0.00    -0.532 OA
HETATM   23  O6  UNK     1       7.013   7.275   8.403  1.00  0.00    -0.532 OA
ENDBRANCH   5  21
TORSDOF 3
ENDMDL
MODEL 10
REMARK VINA RESULT:      -7.5     15.580     18.816
REMARK  3 active torsions:
REMARK  status: ('A' for Active; 'I' for Inactive)
REMARK    1  A    between atoms: C5_13  and  N1_7 
REMARK    2  A    between atoms: C10_18  and  N2_8 
REMARK    3  A    between atoms: C1_9  and  C2_10 
ROOT
HETATM    1  C1  UNK     1      17.806   5.533  32.426  1.00  0.00     0.013 A 
HETATM    2  C5  UNK     1      18.742   6.493  32.815  1.00  0.00     0.116 A 
HETATM    3  C7  UNK     1      16.466   5.896  32.265  1.00  0.00     0.017 A 
HETATM    4  C9  UNK     1      18.341   7.809  33.043  1.00  0.00     0.073 A 
HETATM    5  C10 UNK     1      17.003   8.169  32.882  1.00  0.00     0.105 A 
HETATM    6  C11 UNK     1      16.066   7.212  32.494  1.00  0.00     0.037 A 
ENDROOT
BRANCH   1   7
HETATM    7  C2  UNK     1      18.185   4.130  32.174  1.00  0.00     0.053 A 
HETATM    8  C4  UNK     1      18.416   3.735  30.913  1.00  0.00     0.032 A 
HETATM    9  C3  UNK     1      18.777   2.359  30.613  1.00  0.00    -0.001 A 
HETATM   10  C12 UNK     1      19.029   1.921  29.311  1.00  0.00     0.014 A 
HETATM   11  C6  UNK     1      18.872   1.447  31.657  1.00  0.00     0.089 A 
HETATM   12  C14 UNK     1      19.371   0.586  29.075  1.00  0.00     0.001 A 
HETATM   13  C15 UNK     1      19.462  -0.316  30.138  1.00  0.00     0.003 A 
HETATM   14  C13 UNK     1      19.211   0.113  31.440  1.00  0.00     0.038 A 
HETATM   15  O1  UNK     1      18.626   1.852  32.982  1.00  0.00    -0.274 OA
HETATM   16  C8  UNK     1      18.292   3.165  33.303  1.00  0.00     0.299 A 
HETATM   17  O2  UNK     1      18.102   3.502  34.468  1.00  0.00    -0.259 OA
ENDBRANCH   1   7
BRANCH   2  18
HETATM   18  N1  UNK     1      20.116   6.160  32.988  1.00  0.00    -0.115 N 
HETATM   19  O3  UNK     1      20.874   6.205  31.993  1.00  0.00    -0.532 OA
HETATM   20  O4  UNK     1      20.512   5.832  34.130  1.00  0.00    -0.532 OA
ENDBRANCH   2  18
BRANCH   5  21
HETATM   21  N2  UNK     1      16.595   9.509  33.113  1.00  0.00    -0.116 N 
HETATM   22  O5  UNK     1      15.453   9.865  32.735  1.00  0.00    -0.532 OA
HETATM   23  O6  UNK     1      17.389  10.291  33.689  1.00  0.00    -0.532 OA
ENDBRANCH   5  21
TORSDOF 3
ENDMDL
