MODEL 1
REMARK VINA RESULT:      -8.5      0.000      0.000
REMARK  2 active torsions:
REMARK  status: ('A' for Active; 'I' for Inactive)
REMARK    1  A    between atoms: C5_11  and  N1_5 
REMARK       I    between atoms: C6_12  and  N2_6 
REMARK    2  A    between atoms: C6_12  and  C7_13 
ROOT
HETATM    1  O1  UNK     1       9.756   5.567   6.863  1.00  0.00    -0.267 OA
HETATM    2  N1  UNK     1      13.530   8.448   8.592  1.00  0.00    -0.378 N 
HETATM    3  N2  UNK     1      11.051   7.028   8.131  1.00  0.00    -0.345 N 
HETATM    4  C1  UNK     1      13.457   7.328   7.650  1.00  0.00     0.143 C 
HETATM    5  C2  UNK     1      12.283   8.923   9.198  1.00  0.00     0.143 C 
HETATM    6  C3  UNK     1      12.048   7.196   7.077  1.00  0.00     0.146 C 
HETATM    7  C4  UNK     1      11.289   7.775   9.370  1.00  0.00     0.146 C 
HETATM    8  C6  UNK     1       9.958   6.192   7.904  1.00  0.00     0.260 C 
ENDROOT
BRANCH   8   9
HETATM    9  C7  UNK     1       8.981   6.047   9.004  1.00  0.00     0.108 A 
HETATM   10  C10 UNK     1       8.041   6.994   9.088  1.00  0.00     0.037 A 
HETATM   11  C12 UNK     1       7.035   6.938  10.137  1.00  0.00    -0.001 A 
HETATM   12  C15 UNK     1       7.070   5.887  11.048  1.00  0.00     0.089 A 
HETATM   13  C17 UNK     1       6.035   7.905  10.263  1.00  0.00     0.014 A 
HETATM   14  O2  UNK     1       8.063   4.893  10.954  1.00  0.00    -0.274 OA
HETATM   15  C18 UNK     1       6.137   5.775  12.077  1.00  0.00     0.038 A 
HETATM   16  C11 UNK     1       9.039   4.920   9.961  1.00  0.00     0.304 A 
HETATM   17  O3  UNK     1       9.900   4.050   9.887  1.00  0.00    -0.259 OA
HETATM   18  C20 UNK     1       5.143   6.744  12.194  1.00  0.00     0.003 A 
HETATM   19  C19 UNK     1       5.091   7.806  11.290  1.00  0.00     0.001 A 
ENDBRANCH   8   9
BRANCH   2  20
HETATM   20  C5  UNK     1      14.745   9.079   8.850  1.00  0.00     0.030 A 
HETATM   21  C8  UNK     1      15.078  10.312   8.243  1.00  0.00     0.031 A 
HETATM   22  C13 UNK     1      16.295  10.943   8.500  1.00  0.00     0.026 A 
HETATM   23  C16 UNK     1      17.213  10.359   9.372  1.00  0.00     0.034 A 
HETATM   24  C14 UNK     1      16.915   9.143   9.987  1.00  0.00     0.026 A 
HETATM   25 Cl1  UNK     1      18.716  11.137   9.689  1.00  0.00    -0.084 Cl
HETATM   26  C9  UNK     1      15.697   8.511   9.730  1.00  0.00     0.031 A 
ENDBRANCH   2  20
TORSDOF 2
ENDMDL
MODEL 2
REMARK VINA RESULT:      -8.4     24.704     26.115
REMARK  2 active torsions:
REMARK  status: ('A' for Active; 'I' for Inactive)
REMARK    1  A    between atoms: C5_11  and  N1_5 
REMARK       I    between atoms: C6_12  and  N2_6 
REMARK    2  A    between atoms: C6_12  and  C7_13 
ROOT
HETATM    1  O1  UNK     1      20.159   6.184  33.003  1.00  0.00    -0.267 OA
HETATM    2  N1  UNK     1      15.936   8.848  33.784  1.00  0.00    -0.378 N 
HETATM    3  N2  UNK     1      17.937   6.815  33.293  1.00  0.00    -0.345 N 
HETATM    4  C1  UNK     1      17.357   9.100  34.036  1.00  0.00     0.143 C 
HETATM    5  C2  UNK     1      15.562   7.583  33.146  1.00  0.00     0.143 C 
HETATM    6  C3  UNK     1      18.229   8.236  33.126  1.00  0.00     0.146 C 
HETATM    7  C4  UNK     1      16.533   6.469  33.537  1.00  0.00     0.146 C 
HETATM    8  C6  UNK     1      18.980   5.894  33.210  1.00  0.00     0.260 C 
ENDROOT
BRANCH   8   9
HETATM    9  C7  UNK     1      18.636   4.468  33.394  1.00  0.00     0.108 A 
HETATM   10  C10 UNK     1      18.772   3.984  34.634  1.00  0.00     0.037 A 
HETATM   11  C12 UNK     1      18.459   2.591  34.916  1.00  0.00    -0.001 A 
HETATM   12  C15 UNK     1      18.020   1.777  33.877  1.00  0.00     0.089 A 
HETATM   13  C17 UNK     1      18.586   2.043  36.194  1.00  0.00     0.014 A 
HETATM   14  O2  UNK     1      17.879   2.292  32.574  1.00  0.00    -0.274 OA
HETATM   15  C18 UNK     1      17.704   0.435  34.079  1.00  0.00     0.038 A 
HETATM   16  C11 UNK     1      18.171   3.621  32.274  1.00  0.00     0.304 A 
HETATM   17  O3  UNK     1      18.046   4.061  31.136  1.00  0.00    -0.259 OA
HETATM   18  C20 UNK     1      17.833  -0.103  35.358  1.00  0.00     0.003 A 
HETATM   19  C19 UNK     1      18.272   0.698  36.413  1.00  0.00     0.001 A 
ENDBRANCH   8   9
BRANCH   2  20
HETATM   20  C5  UNK     1      14.980   9.815  34.086  1.00  0.00     0.030 A 
HETATM   21  C8  UNK     1      14.901  10.396  35.373  1.00  0.00     0.031 A 
HETATM   22  C13 UNK     1      13.943  11.364  35.675  1.00  0.00     0.026 A 
HETATM   23  C16 UNK     1      13.039  11.780  34.698  1.00  0.00     0.034 A 
HETATM   24  C14 UNK     1      13.091  11.227  33.419  1.00  0.00     0.026 A 
HETATM   25 Cl1  UNK     1      11.857  12.975  35.071  1.00  0.00    -0.084 Cl
HETATM   26  C9  UNK     1      14.048  10.258  33.116  1.00  0.00     0.031 A 
ENDBRANCH   2  20
TORSDOF 2
ENDMDL
MODEL 3
REMARK VINA RESULT:      -8.2      3.228      5.316
REMARK  2 active torsions:
REMARK  status: ('A' for Active; 'I' for Inactive)
REMARK    1  A    between atoms: C5_11  and  N1_5 
REMARK       I    between atoms: C6_12  and  N2_6 
REMARK    2  A    between atoms: C6_12  and  C7_13 
ROOT
HETATM    1  O1  UNK     1      15.505   6.580   9.887  1.00  0.00    -0.267 OA
HETATM    2  N1  UNK     1      16.682  11.418   9.024  1.00  0.00    -0.378 N 
HETATM    3  N2  UNK     1      15.476   8.790   9.157  1.00  0.00    -0.345 N 
HETATM    4  C1  UNK     1      17.126  10.424  10.004  1.00  0.00     0.143 C 
HETATM    5  C2  UNK     1      15.701  11.004   8.018  1.00  0.00     0.143 C 
HETATM    6  C3  UNK     1      16.882   9.008   9.487  1.00  0.00     0.146 C 
HETATM    7  C4  UNK     1      14.764   9.934   8.579  1.00  0.00     0.146 C 
HETATM    8  C6  UNK     1      14.907   7.541   9.403  1.00  0.00     0.260 C 
ENDROOT
BRANCH   8   9
HETATM    9  C7  UNK     1      13.479   7.372   9.062  1.00  0.00     0.108 A 
HETATM   10  C10 UNK     1      13.215   6.934   7.826  1.00  0.00     0.037 A 
HETATM   11  C12 UNK     1      11.839   6.736   7.396  1.00  0.00    -0.001 A 
HETATM   12  C15 UNK     1      10.809   7.013   8.289  1.00  0.00     0.089 A 
HETATM   13  C17 UNK     1      11.516   6.280   6.116  1.00  0.00     0.014 A 
HETATM   14  O2  UNK     1      11.093   7.474   9.589  1.00  0.00    -0.274 OA
HETATM   15  C18 UNK     1       9.470   6.846   7.941  1.00  0.00     0.038 A 
HETATM   16  C11 UNK     1      12.400   7.672  10.029  1.00  0.00     0.304 A 
HETATM   17  O3  UNK     1      12.638   8.076  11.162  1.00  0.00    -0.259 OA
HETATM   18  C20 UNK     1       9.158   6.390   6.662  1.00  0.00     0.003 A 
HETATM   19  C19 UNK     1      10.178   6.107   5.752  1.00  0.00     0.001 A 
ENDBRANCH   8   9
BRANCH   2  20
HETATM   20  C5  UNK     1      17.229  12.699   9.016  1.00  0.00     0.030 A 
HETATM   21  C8  UNK     1      16.426  13.844   9.220  1.00  0.00     0.031 A 
HETATM   22  C13 UNK     1      16.975  15.127   9.211  1.00  0.00     0.026 A 
HETATM   23  C16 UNK     1      18.342  15.299   8.998  1.00  0.00     0.034 A 
HETATM   24  C14 UNK     1      19.162  14.189   8.793  1.00  0.00     0.026 A 
HETATM   25 Cl1  UNK     1      19.019  16.882   8.986  1.00  0.00    -0.084 Cl
HETATM   26  C9  UNK     1      18.613  12.906   8.802  1.00  0.00     0.031 A 
ENDBRANCH   2  20
TORSDOF 2
ENDMDL
MODEL 4
REMARK VINA RESULT:      -8.1     33.912     35.496
REMARK  2 active torsions:
REMARK  status: ('A' for Active; 'I' for Inactive)
REMARK    1  A    between atoms: C5_11  and  N1_5 
REMARK       I    between atoms: C6_12  and  N2_6 
REMARK    2  A    between atoms: C6_12  and  C7_13 
ROOT
HETATM    1  O1  UNK     1      27.475 -10.379  39.001  1.00  0.00    -0.267 OA
HETATM    2  N1  UNK     1      30.342  -7.164  36.360  1.00  0.00    -0.378 N 
HETATM    3  N2  UNK     1      28.247  -8.857  37.418  1.00  0.00    -0.345 N 
HETATM    4  C1  UNK     1      30.419  -7.715  37.715  1.00  0.00     0.143 C 
HETATM    5  C2  UNK     1      29.241  -7.601  35.498  1.00  0.00     0.143 C 
HETATM    6  C3  UNK     1      29.644  -9.027  37.809  1.00  0.00     0.146 C 
HETATM    7  C4  UNK     1      27.994  -7.912  36.325  1.00  0.00     0.146 C 
HETATM    8  C6  UNK     1      27.262  -9.584  38.084  1.00  0.00     0.260 C 
ENDROOT
BRANCH   8   9
HETATM    9  C7  UNK     1      25.863  -9.370  37.659  1.00  0.00     0.108 A 
HETATM   10  C10 UNK     1      25.321 -10.334  36.906  1.00  0.00     0.037 A 
HETATM   11  C12 UNK     1      23.949 -10.214  36.438  1.00  0.00    -0.001 A 
HETATM   12  C15 UNK     1      23.215  -9.084  36.785  1.00  0.00     0.089 A 
HETATM   13  C17 UNK     1      23.342 -11.195  35.650  1.00  0.00     0.014 A 
HETATM   14  O2  UNK     1      23.792  -8.073  37.578  1.00  0.00    -0.274 OA
HETATM   15  C18 UNK     1      21.897  -8.908  36.369  1.00  0.00     0.038 A 
HETATM   16  C11 UNK     1      25.102  -8.160  38.041  1.00  0.00     0.304 A 
HETATM   17  O3  UNK     1      25.596  -7.274  38.731  1.00  0.00    -0.259 OA
HETATM   18  C20 UNK     1      21.300  -9.891  35.584  1.00  0.00     0.003 A 
HETATM   19  C19 UNK     1      22.020 -11.032  35.225  1.00  0.00     0.001 A 
ENDBRANCH   8   9
BRANCH   2  20
HETATM   20  C5  UNK     1      31.329  -6.299  35.890  1.00  0.00     0.030 A 
HETATM   21  C8  UNK     1      31.486  -5.000  36.426  1.00  0.00     0.031 A 
HETATM   22  C13 UNK     1      32.473  -4.135  35.954  1.00  0.00     0.026 A 
HETATM   23  C16 UNK     1      33.331  -4.544  34.935  1.00  0.00     0.034 A 
HETATM   24  C14 UNK     1      33.203  -5.819  34.385  1.00  0.00     0.026 A 
HETATM   25 Cl1  UNK     1      34.549  -3.476  34.352  1.00  0.00    -0.084 Cl
HETATM   26  C9  UNK     1      32.215  -6.685  34.855  1.00  0.00     0.031 A 
ENDBRANCH   2  20
TORSDOF 2
ENDMDL
MODEL 5
REMARK VINA RESULT:      -8.1      2.982      4.513
REMARK  2 active torsions:
REMARK  status: ('A' for Active; 'I' for Inactive)
REMARK    1  A    between atoms: C5_11  and  N1_5 
REMARK       I    between atoms: C6_12  and  N2_6 
REMARK    2  A    between atoms: C6_12  and  C7_13 
ROOT
HETATM    1  O1  UNK     1      14.987   4.768   9.210  1.00  0.00    -0.267 OA
HETATM    2  N1  UNK     1      16.368   9.568   9.980  1.00  0.00    -0.378 N 
HETATM    3  N2  UNK     1      15.045   7.095   9.265  1.00  0.00    -0.345 N 
HETATM    4  C1  UNK     1      16.785   8.286  10.556  1.00  0.00     0.143 C 
HETATM    5  C2  UNK     1      15.351   9.553   8.927  1.00  0.00     0.143 C 
HETATM    6  C3  UNK     1      16.466   7.137   9.602  1.00  0.00     0.146 C 
HETATM    7  C4  UNK     1      14.376   8.392   9.127  1.00  0.00     0.146 C 
HETATM    8  C6  UNK     1      14.425   5.858   9.096  1.00  0.00     0.260 C 
ENDROOT
BRANCH   8   9
HETATM    9  C7  UNK     1      12.984   5.867   8.765  1.00  0.00     0.108 A 
HETATM   10  C10 UNK     1      12.669   6.192   7.506  1.00  0.00     0.037 A 
HETATM   11  C12 UNK     1      11.277   6.229   7.084  1.00  0.00    -0.001 A 
HETATM   12  C15 UNK     1      10.285   5.923   8.011  1.00  0.00     0.089 A 
HETATM   13  C17 UNK     1      10.902   6.563   5.781  1.00  0.00     0.014 A 
HETATM   14  O2  UNK     1      10.623   5.581   9.335  1.00  0.00    -0.274 OA
HETATM   15  C18 UNK     1       8.934   5.940   7.672  1.00  0.00     0.038 A 
HETATM   16  C11 UNK     1      11.946   5.537   9.767  1.00  0.00     0.304 A 
HETATM   17  O3  UNK     1      12.231   5.239  10.922  1.00  0.00    -0.259 OA
HETATM   18  C20 UNK     1       8.569   6.274   6.370  1.00  0.00     0.003 A 
HETATM   19  C19 UNK     1       9.550   6.585   5.427  1.00  0.00     0.001 A 
ENDBRANCH   8   9
BRANCH   2  20
HETATM   20  C5  UNK     1      16.974  10.755  10.384  1.00  0.00     0.030 A 
HETATM   21  C8  UNK     1      16.257  11.740  11.103  1.00  0.00     0.031 A 
HETATM   22  C13 UNK     1      16.864  12.930  11.506  1.00  0.00     0.026 A 
HETATM   23  C16 UNK     1      18.204  13.167  11.203  1.00  0.00     0.034 A 
HETATM   24  C14 UNK     1      18.939  12.216  10.495  1.00  0.00     0.026 A 
HETATM   25 Cl1  UNK     1      18.953  14.636  11.700  1.00  0.00    -0.084 Cl
HETATM   26  C9  UNK     1      18.332  11.026  10.091  1.00  0.00     0.031 A 
ENDBRANCH   2  20
TORSDOF 2
ENDMDL
MODEL 6
REMARK VINA RESULT:      -8.0     24.396     25.755
REMARK  2 active torsions:
REMARK  status: ('A' for Active; 'I' for Inactive)
REMARK    1  A    between atoms: C5_11  and  N1_5 
REMARK       I    between atoms: C6_12  and  N2_6 
REMARK    2  A    between atoms: C6_12  and  C7_13 
ROOT
HETATM    1  O1  UNK     1      17.897   6.913  30.287  1.00  0.00    -0.267 OA
HETATM    2  N1  UNK     1      18.262   3.064  33.540  1.00  0.00    -0.378 N 
HETATM    3  N2  UNK     1      17.865   5.604  32.212  1.00  0.00    -0.345 N 
HETATM    4  C1  UNK     1      18.172   3.155  32.080  1.00  0.00     0.143 C 
HETATM    5  C2  UNK     1      18.282   4.310  34.310  1.00  0.00     0.143 C 
HETATM    6  C3  UNK     1      18.635   4.527  31.595  1.00  0.00     0.146 C 
HETATM    7  C4  UNK     1      17.467   5.396  33.608  1.00  0.00     0.146 C 
HETATM    8  C6  UNK     1      17.562   6.738  31.459  1.00  0.00     0.260 C 
ENDROOT
BRANCH   8   9
HETATM    9  C7  UNK     1      16.772   7.796  32.123  1.00  0.00     0.108 A 
HETATM   10  C10 UNK     1      17.469   8.717  32.799  1.00  0.00     0.037 A 
HETATM   11  C12 UNK     1      16.780   9.799  33.486  1.00  0.00    -0.001 A 
HETATM   12  C15 UNK     1      15.391   9.856  33.430  1.00  0.00     0.089 A 
HETATM   13  C17 UNK     1      17.467  10.782  34.203  1.00  0.00     0.014 A 
HETATM   14  O2  UNK     1      14.664   8.883  32.717  1.00  0.00    -0.274 OA
HETATM   15  C18 UNK     1      14.671  10.865  34.067  1.00  0.00     0.038 A 
HETATM   16  C11 UNK     1      15.295   7.837  32.049  1.00  0.00     0.304 A 
HETATM   17  O3  UNK     1      14.653   6.993  31.432  1.00  0.00    -0.259 OA
HETATM   18  C20 UNK     1      15.364  11.841  34.779  1.00  0.00     0.003 A 
HETATM   19  C19 UNK     1      16.758  11.801  34.847  1.00  0.00     0.001 A 
ENDBRANCH   8   9
BRANCH   2  20
HETATM   20  C5  UNK     1      18.389   1.826  34.166  1.00  0.00     0.030 A 
HETATM   21  C8  UNK     1      18.589   1.723  35.562  1.00  0.00     0.031 A 
HETATM   22  C13 UNK     1      18.717   0.482  36.188  1.00  0.00     0.026 A 
HETATM   23  C16 UNK     1      18.649  -0.689  35.435  1.00  0.00     0.034 A 
HETATM   24  C14 UNK     1      18.453  -0.622  34.056  1.00  0.00     0.026 A 
HETATM   25 Cl1  UNK     1      18.808  -2.220  36.207  1.00  0.00    -0.084 Cl
HETATM   26  C9  UNK     1      18.325   0.618  33.429  1.00  0.00     0.031 A 
ENDBRANCH   2  20
TORSDOF 2
ENDMDL
MODEL 7
REMARK VINA RESULT:      -8.0     35.399     37.901
REMARK  2 active torsions:
REMARK  status: ('A' for Active; 'I' for Inactive)
REMARK    1  A    between atoms: C5_11  and  N1_5 
REMARK       I    between atoms: C6_12  and  N2_6 
REMARK    2  A    between atoms: C6_12  and  C7_13 
ROOT
HETATM    1  O1  UNK     1      30.995 -10.745  39.080  1.00  0.00    -0.267 OA
HETATM    2  N1  UNK     1      26.431  -8.758  38.209  1.00  0.00    -0.378 N 
HETATM    3  N2  UNK     1      29.254  -9.377  38.360  1.00  0.00    -0.345 N 
HETATM    4  C1  UNK     1      26.900 -10.085  38.620  1.00  0.00     0.143 C 
HETATM    5  C2  UNK     1      27.429  -7.706  38.005  1.00  0.00     0.143 C 
HETATM    6  C3  UNK     1      28.283  -9.993  39.261  1.00  0.00     0.146 C 
HETATM    7  C4  UNK     1      28.749  -8.296  37.508  1.00  0.00     0.146 C 
HETATM    8  C6  UNK     1      30.570  -9.838  38.363  1.00  0.00     0.260 C 
ENDROOT
BRANCH   8   9
HETATM    9  C7  UNK     1      31.513  -9.190  37.428  1.00  0.00     0.108 A 
HETATM   10  C10 UNK     1      32.296  -8.236  37.944  1.00  0.00     0.037 A 
HETATM   11  C12 UNK     1      33.257  -7.540  37.102  1.00  0.00    -0.001 A 
HETATM   12  C15 UNK     1      33.344  -7.882  35.756  1.00  0.00     0.089 A 
HETATM   13  C17 UNK     1      34.095  -6.539  37.599  1.00  0.00     0.014 A 
HETATM   14  O2  UNK     1      32.516  -8.887  35.218  1.00  0.00    -0.274 OA
HETATM   15  C18 UNK     1      34.242  -7.254  34.895  1.00  0.00     0.038 A 
HETATM   16  C11 UNK     1      31.588  -9.570  35.999  1.00  0.00     0.304 A 
HETATM   17  O3  UNK     1      30.871 -10.443  35.522  1.00  0.00    -0.259 OA
HETATM   18  C20 UNK     1      35.074  -6.256  35.399  1.00  0.00     0.003 A 
HETATM   19  C19 UNK     1      35.001  -5.900  36.747  1.00  0.00     0.001 A 
ENDBRANCH   8   9
BRANCH   2  20
HETATM   20  C5  UNK     1      25.069  -8.498  38.080  1.00  0.00     0.030 A 
HETATM   21  C8  UNK     1      24.290  -9.123  37.079  1.00  0.00     0.031 A 
HETATM   22  C13 UNK     1      22.926  -8.861  36.950  1.00  0.00     0.026 A 
HETATM   23  C16 UNK     1      22.302  -7.967  37.820  1.00  0.00     0.034 A 
HETATM   24  C14 UNK     1      23.042  -7.333  38.818  1.00  0.00     0.026 A 
HETATM   25 Cl1  UNK     1      20.619  -7.643  37.660  1.00  0.00    -0.084 Cl
HETATM   26  C9  UNK     1      24.407  -7.595  38.947  1.00  0.00     0.031 A 
ENDBRANCH   2  20
TORSDOF 2
ENDMDL
MODEL 8
REMARK VINA RESULT:      -8.0     24.720     26.023
REMARK  2 active torsions:
REMARK  status: ('A' for Active; 'I' for Inactive)
REMARK    1  A    between atoms: C5_11  and  N1_5 
REMARK       I    between atoms: C6_12  and  N2_6 
REMARK    2  A    between atoms: C6_12  and  C7_13 
ROOT
HETATM    1  O1  UNK     1      17.987   6.722  30.531  1.00  0.00    -0.267 OA
HETATM    2  N1  UNK     1      18.256   2.889  33.813  1.00  0.00    -0.378 N 
HETATM    3  N2  UNK     1      18.064   5.451  32.479  1.00  0.00    -0.345 N 
HETATM    4  C1  UNK     1      17.938   2.984  32.385  1.00  0.00     0.143 C 
HETATM    5  C2  UNK     1      18.611   4.119  34.524  1.00  0.00     0.143 C 
HETATM    6  C3  UNK     1      18.532   4.255  31.782  1.00  0.00     0.146 C 
HETATM    7  C4  UNK     1      17.879   5.322  33.928  1.00  0.00     0.146 C 
HETATM    8  C6  UNK     1      17.830   6.614  31.748  1.00  0.00     0.260 C 
ENDROOT
BRANCH   8   9
HETATM    9  C7  UNK     1      17.348   7.794  32.495  1.00  0.00     0.108 A 
HETATM   10  C10 UNK     1      16.056   8.104  32.342  1.00  0.00     0.037 A 
HETATM   11  C12 UNK     1      15.488   9.249  33.036  1.00  0.00    -0.001 A 
HETATM   12  C15 UNK     1      16.312  10.014  33.857  1.00  0.00     0.089 A 
HETATM   13  C17 UNK     1      14.145   9.609  32.906  1.00  0.00     0.014 A 
HETATM   14  O2  UNK     1      17.672   9.684  34.013  1.00  0.00    -0.274 OA
HETATM   15  C18 UNK     1      15.832  11.124  34.549  1.00  0.00     0.038 A 
HETATM   16  C11 UNK     1      18.243   8.593  33.362  1.00  0.00     0.304 A 
HETATM   17  O3  UNK     1      19.429   8.314  33.504  1.00  0.00    -0.259 OA
HETATM   18  C20 UNK     1      14.490  11.475  34.414  1.00  0.00     0.003 A 
HETATM   19  C19 UNK     1      13.649  10.720  33.595  1.00  0.00     0.001 A 
ENDBRANCH   8   9
BRANCH   2  20
HETATM   20  C5  UNK     1      18.282   1.651  34.452  1.00  0.00     0.030 A 
HETATM   21  C8  UNK     1      18.343   0.444  33.718  1.00  0.00     0.031 A 
HETATM   22  C13 UNK     1      18.367  -0.795  34.358  1.00  0.00     0.026 A 
HETATM   23  C16 UNK     1      18.333  -0.861  35.751  1.00  0.00     0.034 A 
HETATM   24  C14 UNK     1      18.273   0.311  36.504  1.00  0.00     0.026 A 
HETATM   25 Cl1  UNK     1      18.363  -2.390  36.541  1.00  0.00    -0.084 Cl
HETATM   26  C9  UNK     1      18.248   1.551  35.863  1.00  0.00     0.031 A 
ENDBRANCH   2  20
TORSDOF 2
ENDMDL
MODEL 9
REMARK VINA RESULT:      -8.0     34.192     35.672
REMARK  2 active torsions:
REMARK  status: ('A' for Active; 'I' for Inactive)
REMARK    1  A    between atoms: C5_11  and  N1_5 
REMARK       I    between atoms: C6_12  and  N2_6 
REMARK    2  A    between atoms: C6_12  and  C7_13 
ROOT
HETATM    1  O1  UNK     1      27.397  -9.908  39.578  1.00  0.00    -0.267 OA
HETATM    2  N1  UNK     1      30.275  -6.883  36.731  1.00  0.00    -0.378 N 
HETATM    3  N2  UNK     1      28.167  -8.477  37.911  1.00  0.00    -0.345 N 
HETATM    4  C1  UNK     1      30.371  -7.375  38.108  1.00  0.00     0.143 C 
HETATM    5  C2  UNK     1      29.144  -7.332  35.915  1.00  0.00     0.143 C 
HETATM    6  C3  UNK     1      29.568  -8.663  38.278  1.00  0.00     0.146 C 
HETATM    7  C4  UNK     1      27.910  -7.576  36.783  1.00  0.00     0.146 C 
HETATM    8  C6  UNK     1      27.181  -9.150  38.631  1.00  0.00     0.260 C 
ENDROOT
BRANCH   8   9
HETATM    9  C7  UNK     1      25.778  -8.922  38.229  1.00  0.00     0.108 A 
HETATM   10  C10 UNK     1      25.083  -8.054  38.973  1.00  0.00     0.037 A 
HETATM   11  C12 UNK     1      23.693  -7.764  38.656  1.00  0.00    -0.001 A 
HETATM   12  C15 UNK     1      23.103  -8.404  37.571  1.00  0.00     0.089 A 
HETATM   13  C17 UNK     1      22.930  -6.866  39.406  1.00  0.00     0.014 A 
HETATM   14  O2  UNK     1      23.839  -9.316  36.791  1.00  0.00    -0.274 OA
HETATM   15  C18 UNK     1      21.776  -8.171  37.214  1.00  0.00     0.038 A 
HETATM   16  C11 UNK     1      25.171  -9.614  37.070  1.00  0.00     0.304 A 
HETATM   17  O3  UNK     1      25.805 -10.410  36.385  1.00  0.00    -0.259 OA
HETATM   18  C20 UNK     1      21.023  -7.273  37.967  1.00  0.00     0.003 A 
HETATM   19  C19 UNK     1      21.597  -6.622  39.059  1.00  0.00     0.001 A 
ENDBRANCH   8   9
BRANCH   2  20
HETATM   20  C5  UNK     1      31.269  -6.064  36.200  1.00  0.00     0.030 A 
HETATM   21  C8  UNK     1      32.075  -6.490  35.119  1.00  0.00     0.031 A 
HETATM   22  C13 UNK     1      33.071  -5.670  34.589  1.00  0.00     0.026 A 
HETATM   23  C16 UNK     1      33.290  -4.401  35.125  1.00  0.00     0.034 A 
HETATM   24  C14 UNK     1      32.512  -3.952  36.193  1.00  0.00     0.026 A 
HETATM   25 Cl1  UNK     1      34.520  -3.389  34.472  1.00  0.00    -0.084 Cl
HETATM   26  C9  UNK     1      31.516  -4.772  36.723  1.00  0.00     0.031 A 
ENDBRANCH   2  20
TORSDOF 2
ENDMDL
MODEL 10
REMARK VINA RESULT:      -8.0     28.163     29.654
REMARK  2 active torsions:
REMARK  status: ('A' for Active; 'I' for Inactive)
REMARK    1  A    between atoms: C5_11  and  N1_5 
REMARK       I    between atoms: C6_12  and  N2_6 
REMARK    2  A    between atoms: C6_12  and  C7_13 
ROOT
HETATM    1  O1  UNK     1      17.356   0.025  35.568  1.00  0.00    -0.267 OA
HETATM    2  N1  UNK     1      19.937  -4.035  37.112  1.00  0.00    -0.378 N 
HETATM    3  N2  UNK     1      18.687  -1.883  35.635  1.00  0.00    -0.345 N 
HETATM    4  C1  UNK     1      19.392  -2.858  37.795  1.00  0.00     0.143 C 
HETATM    5  C2  UNK     1      19.712  -4.163  35.671  1.00  0.00     0.143 C 
HETATM    6  C3  UNK     1      18.254  -2.242  36.984  1.00  0.00     0.146 C 
HETATM    7  C4  UNK     1      19.653  -2.788  35.005  1.00  0.00     0.146 C 
HETATM    8  C6  UNK     1      18.169  -0.734  35.040  1.00  0.00     0.260 C 
ENDROOT
BRANCH   8   9
HETATM    9  C7  UNK     1      18.644  -0.407  33.679  1.00  0.00     0.108 A 
HETATM   10  C10 UNK     1      19.128  -1.427  32.962  1.00  0.00     0.037 A 
HETATM   11  C12 UNK     1      19.620  -1.206  31.610  1.00  0.00    -0.001 A 
HETATM   12  C15 UNK     1      19.580   0.081  31.083  1.00  0.00     0.089 A 
HETATM   13  C17 UNK     1      20.133  -2.240  30.825  1.00  0.00     0.014 A 
HETATM   14  O2  UNK     1      19.069   1.151  31.843  1.00  0.00    -0.274 OA
HETATM   15  C18 UNK     1      20.036   0.361  29.796  1.00  0.00     0.038 A 
HETATM   16  C11 UNK     1      18.591   0.969  33.138  1.00  0.00     0.304 A 
HETATM   17  O3  UNK     1      18.149   1.907  33.794  1.00  0.00    -0.259 OA
HETATM   18  C20 UNK     1      20.546  -0.677  29.020  1.00  0.00     0.003 A 
HETATM   19  C19 UNK     1      20.594  -1.975  29.533  1.00  0.00     0.001 A 
ENDBRANCH   8   9
BRANCH   2  20
HETATM   20  C5  UNK     1      20.591  -5.031  37.833  1.00  0.00     0.030 A 
HETATM   21  C8  UNK     1      21.994  -5.013  38.009  1.00  0.00     0.031 A 
HETATM   22  C13 UNK     1      22.649  -6.011  38.730  1.00  0.00     0.026 A 
HETATM   23  C16 UNK     1      21.920  -7.055  39.297  1.00  0.00     0.034 A 
HETATM   24  C14 UNK     1      20.534  -7.103  39.142  1.00  0.00     0.026 A 
HETATM   25 Cl1  UNK     1      22.728  -8.288  40.187  1.00  0.00    -0.084 Cl
HETATM   26  C9  UNK     1      19.879  -6.105  38.421  1.00  0.00     0.031 A 
ENDBRANCH   2  20
TORSDOF 2
ENDMDL
