MODEL 1
REMARK VINA RESULT:      -8.7      0.000      0.000
REMARK  8 active torsions:
REMARK  status: ('A' for Active; 'I' for Inactive)
REMARK    1  A    between atoms: C10_17  and  O2_2 
REMARK    2  A    between atoms: C5_12  and  O2_2 
REMARK    3  A    between atoms: C17_24  and  O5_5 
REMARK    4  A    between atoms: C18_25  and  O6_6 
REMARK    5  A    between atoms: C1_8  and  N1_7 
REMARK       I    between atoms: C9_16  and  N1_7 
REMARK    6  A    between atoms: C1_8  and  C2_9 
REMARK    7  A    between atoms: C4_11  and  C8_15 
REMARK    8  A    between atoms: C10_17  and  C9_16 
ROOT
HETATM    1  O1  UNK     1      17.927   3.151  35.031  1.00  0.00    -0.306 OA
HETATM    2  O4  UNK     1      18.857   0.290  32.282  1.00  0.00    -0.284 OA
HETATM    3  C4  UNK     1      18.237   3.480  33.721  1.00  0.00     0.123 A 
HETATM    4  C5  UNK     1      18.559   2.589  32.765  1.00  0.00     0.155 A 
HETATM    5  C7  UNK     1      18.229   0.802  34.497  1.00  0.00     0.051 A 
HETATM    6  C11 UNK     1      17.923   1.828  35.389  1.00  0.00     0.090 A 
HETATM    7  C12 UNK     1      18.574   1.146  33.109  1.00  0.00     0.221 A 
HETATM    8  C15 UNK     1      18.208  -0.529  34.918  1.00  0.00     0.018 A 
HETATM    9  C16 UNK     1      17.595   1.527  36.711  1.00  0.00     0.038 A 
HETATM   10  C20 UNK     1      17.879  -0.828  36.242  1.00  0.00     0.001 A 
HETATM   11  C21 UNK     1      17.573   0.198  37.137  1.00  0.00     0.003 A 
ENDROOT
BRANCH   3  12
HETATM   12  C8  UNK     1      18.204   4.932  33.470  1.00  0.00     0.004 A 
HETATM   13  C13 UNK     1      17.161   5.488  32.730  1.00  0.00     0.054 A 
HETATM   14  C17 UNK     1      17.129   6.862  32.492  1.00  0.00     0.102 A 
HETATM   15  C18 UNK     1      18.142   7.681  32.995  1.00  0.00     0.101 A 
HETATM   16  C19 UNK     1      19.185   7.125  33.735  1.00  0.00     0.040 A 
HETATM   17  C14 UNK     1      19.216   5.750  33.972  1.00  0.00     0.017 A 
BRANCH  14  18
HETATM   18  O5  UNK     1      16.107   7.394  31.766  1.00  0.00    -0.353 OA
HETATM   19  C22 UNK     1      14.812   7.376  32.362  1.00  0.00     0.210 C 
ENDBRANCH  14  18
BRANCH  15  20
HETATM   20  O6  UNK     1      18.121   9.024  32.771  1.00  0.00    -0.353 OA
HETATM   21  C23 UNK     1      18.339   9.871  33.899  1.00  0.00     0.210 C 
ENDBRANCH  15  20
ENDBRANCH   3  12
BRANCH   4  22
HETATM   22  O2  UNK     1      18.894   2.953  31.480  1.00  0.00    -0.335 OA
BRANCH  22  23
HETATM   23  C10 UNK     1      17.825   2.697  30.589  1.00  0.00     0.278 C 
BRANCH  23  24
HETATM   24  C9  UNK     1      18.328   2.032  29.326  1.00  0.00     0.242 C 
HETATM   25  O3  UNK     1      17.969   2.379  28.204  1.00  0.00    -0.271 OA
HETATM   26  N1  UNK     1      19.222   1.011  29.606  1.00  0.00    -0.355 N 
HETATM   27  H4  UNK     1      19.398   0.766  30.577  1.00  0.00     0.162 HD
BRANCH  26  28
HETATM   28  C1  UNK     1      19.853   0.211  28.582  1.00  0.00     0.080 C 
HETATM   29  C3  UNK     1      18.797  -0.596  27.835  1.00  0.00     0.032 C 
BRANCH  28  30
HETATM   30  C2  UNK     1      20.925  -0.713  29.174  1.00  0.00     0.020 C 
HETATM   31  C6  UNK     1      20.330  -1.908  29.909  1.00  0.00     0.007 C 
ENDBRANCH  28  30
ENDBRANCH  26  28
ENDBRANCH  23  24
ENDBRANCH  22  23
ENDBRANCH   4  22
TORSDOF 8
ENDMDL
MODEL 2
REMARK VINA RESULT:      -8.0      2.206      7.294
REMARK  8 active torsions:
REMARK  status: ('A' for Active; 'I' for Inactive)
REMARK    1  A    between atoms: C10_17  and  O2_2 
REMARK    2  A    between atoms: C5_12  and  O2_2 
REMARK    3  A    between atoms: C17_24  and  O5_5 
REMARK    4  A    between atoms: C18_25  and  O6_6 
REMARK    5  A    between atoms: C1_8  and  N1_7 
REMARK       I    between atoms: C9_16  and  N1_7 
REMARK    6  A    between atoms: C1_8  and  C2_9 
REMARK    7  A    between atoms: C4_11  and  C8_15 
REMARK    8  A    between atoms: C10_17  and  C9_16 
ROOT
HETATM    1  O1  UNK     1      19.285  -0.248  32.564  1.00  0.00    -0.306 OA
HETATM    2  O4  UNK     1      18.266   2.856  30.129  1.00  0.00    -0.284 OA
HETATM    3  C4  UNK     1      18.666   0.887  33.061  1.00  0.00     0.123 A 
HETATM    4  C5  UNK     1      18.308   1.950  32.317  1.00  0.00     0.155 A 
HETATM    5  C7  UNK     1      19.214   0.706  30.333  1.00  0.00     0.051 A 
HETATM    6  C11 UNK     1      19.539  -0.319  31.219  1.00  0.00     0.090 A 
HETATM    7  C12 UNK     1      18.570   1.920  30.857  1.00  0.00     0.221 A 
HETATM    8  C15 UNK     1      19.497   0.579  28.972  1.00  0.00     0.018 A 
HETATM    9  C16 UNK     1      20.153  -1.480  30.747  1.00  0.00     0.038 A 
HETATM   10  C20 UNK     1      20.110  -0.584  28.502  1.00  0.00     0.001 A 
HETATM   11  C21 UNK     1      20.438  -1.611  29.387  1.00  0.00     0.003 A 
ENDROOT
BRANCH   3  12
HETATM   12  C8  UNK     1      18.450   0.833  34.518  1.00  0.00     0.004 A 
HETATM   13  C13 UNK     1      18.260  -0.396  35.150  1.00  0.00     0.054 A 
HETATM   14  C17 UNK     1      18.056  -0.447  36.529  1.00  0.00     0.102 A 
HETATM   15  C18 UNK     1      18.042   0.731  37.276  1.00  0.00     0.101 A 
HETATM   16  C19 UNK     1      18.232   1.960  36.644  1.00  0.00     0.040 A 
HETATM   17  C14 UNK     1      18.436   2.011  35.265  1.00  0.00     0.017 A 
BRANCH  14  18
HETATM   18  O5  UNK     1      17.870  -1.652  37.136  1.00  0.00    -0.353 OA
HETATM   19  C22 UNK     1      18.790  -2.691  36.808  1.00  0.00     0.210 C 
ENDBRANCH  14  18
BRANCH  15  20
HETATM   20  O6  UNK     1      17.846   0.694  38.624  1.00  0.00    -0.353 OA
HETATM   21  C23 UNK     1      17.639   1.943  39.282  1.00  0.00     0.210 C 
ENDBRANCH  15  20
ENDBRANCH   3  12
BRANCH   4  22
HETATM   22  O2  UNK     1      17.723   3.078  32.848  1.00  0.00    -0.335 OA
BRANCH  22  23
HETATM   23  C10 UNK     1      18.304   4.249  32.307  1.00  0.00     0.278 C 
BRANCH  23  24
HETATM   24  C9  UNK     1      18.568   5.267  33.396  1.00  0.00     0.242 C 
HETATM   25  O3  UNK     1      19.511   5.174  34.178  1.00  0.00    -0.271 OA
HETATM   26  N1  UNK     1      17.627   6.284  33.385  1.00  0.00    -0.355 N 
HETATM   27  H4  UNK     1      16.850   6.226  32.732  1.00  0.00     0.162 HD
BRANCH  26  28
HETATM   28  C1  UNK     1      17.645   7.386  34.320  1.00  0.00     0.080 C 
HETATM   29  C3  UNK     1      16.217   7.817  34.633  1.00  0.00     0.032 C 
BRANCH  28  30
HETATM   30  C2  UNK     1      18.464   8.565  33.780  1.00  0.00     0.020 C 
HETATM   31  C6  UNK     1      19.814   8.708  34.471  1.00  0.00     0.007 C 
ENDBRANCH  28  30
ENDBRANCH  26  28
ENDBRANCH  23  24
ENDBRANCH  22  23
ENDBRANCH   4  22
TORSDOF 8
ENDMDL
MODEL 3
REMARK VINA RESULT:      -8.0      2.063      6.729
REMARK  8 active torsions:
REMARK  status: ('A' for Active; 'I' for Inactive)
REMARK    1  A    between atoms: C10_17  and  O2_2 
REMARK    2  A    between atoms: C5_12  and  O2_2 
REMARK    3  A    between atoms: C17_24  and  O5_5 
REMARK    4  A    between atoms: C18_25  and  O6_6 
REMARK    5  A    between atoms: C1_8  and  N1_7 
REMARK       I    between atoms: C9_16  and  N1_7 
REMARK    6  A    between atoms: C1_8  and  C2_9 
REMARK    7  A    between atoms: C4_11  and  C8_15 
REMARK    8  A    between atoms: C10_17  and  C9_16 
ROOT
HETATM    1  O1  UNK     1      19.163   0.005  32.551  1.00  0.00    -0.306 OA
HETATM    2  O4  UNK     1      18.472   2.780  29.647  1.00  0.00    -0.284 OA
HETATM    3  C4  UNK     1      18.517   1.199  32.830  1.00  0.00     0.123 A 
HETATM    4  C5  UNK     1      18.262   2.160  31.923  1.00  0.00     0.155 A 
HETATM    5  C7  UNK     1      19.350   0.668  30.223  1.00  0.00     0.051 A 
HETATM    6  C11 UNK     1      19.558  -0.238  31.261  1.00  0.00     0.090 A 
HETATM    7  C12 UNK     1      18.678   1.943  30.516  1.00  0.00     0.221 A 
HETATM    8  C15 UNK     1      19.774   0.366  28.927  1.00  0.00     0.018 A 
HETATM    9  C16 UNK     1      20.195  -1.453  31.009  1.00  0.00     0.038 A 
HETATM   10  C20 UNK     1      20.411  -0.851  28.677  1.00  0.00     0.001 A 
HETATM   11  C21 UNK     1      20.622  -1.759  29.716  1.00  0.00     0.003 A 
ENDROOT
BRANCH   3  12
HETATM   12  C8  UNK     1      18.145   1.333  34.250  1.00  0.00     0.004 A 
HETATM   13  C13 UNK     1      16.968   0.751  34.720  1.00  0.00     0.054 A 
HETATM   14  C17 UNK     1      16.615   0.878  36.064  1.00  0.00     0.102 A 
HETATM   15  C18 UNK     1      17.441   1.587  36.938  1.00  0.00     0.101 A 
HETATM   16  C19 UNK     1      18.618   2.168  36.467  1.00  0.00     0.040 A 
HETATM   17  C14 UNK     1      18.970   2.042  35.123  1.00  0.00     0.017 A 
BRANCH  14  18
HETATM   18  O5  UNK     1      15.463   0.307  36.513  1.00  0.00    -0.353 OA
HETATM   19  C22 UNK     1      14.409   1.189  36.893  1.00  0.00     0.210 C 
ENDBRANCH  14  18
BRANCH  15  20
HETATM   20  O6  UNK     1      17.110   1.716  38.253  1.00  0.00    -0.353 OA
HETATM   21  C23 UNK     1      17.910   1.004  39.195  1.00  0.00     0.210 C 
ENDBRANCH  15  20
ENDBRANCH   3  12
BRANCH   4  22
HETATM   22  O2  UNK     1      17.645   3.350  32.241  1.00  0.00    -0.335 OA
BRANCH  22  23
HETATM   23  C10 UNK     1      18.596   4.390  32.373  1.00  0.00     0.278 C 
BRANCH  23  24
HETATM   24  C9  UNK     1      17.983   5.724  32.006  1.00  0.00     0.242 C 
HETATM   25  O3  UNK     1      18.340   6.372  31.025  1.00  0.00    -0.271 OA
HETATM   26  N1  UNK     1      16.997   6.099  32.903  1.00  0.00    -0.355 N 
HETATM   27  H4  UNK     1      16.827   5.515  33.718  1.00  0.00     0.162 HD
BRANCH  26  28
HETATM   28  C1  UNK     1      16.251   7.331  32.788  1.00  0.00     0.080 C 
HETATM   29  C3  UNK     1      15.814   7.800  34.171  1.00  0.00     0.032 C 
BRANCH  28  30
HETATM   30  C2  UNK     1      15.039   7.167  31.861  1.00  0.00     0.020 C 
HETATM   31  C6  UNK     1      13.714   7.375  32.585  1.00  0.00     0.007 C 
ENDBRANCH  28  30
ENDBRANCH  26  28
ENDBRANCH  23  24
ENDBRANCH  22  23
ENDBRANCH   4  22
TORSDOF 8
ENDMDL
MODEL 4
REMARK VINA RESULT:      -7.9     14.162     19.337
REMARK  8 active torsions:
REMARK  status: ('A' for Active; 'I' for Inactive)
REMARK    1  A    between atoms: C10_17  and  O2_2 
REMARK    2  A    between atoms: C5_12  and  O2_2 
REMARK    3  A    between atoms: C17_24  and  O5_5 
REMARK    4  A    between atoms: C18_25  and  O6_6 
REMARK    5  A    between atoms: C1_8  and  N1_7 
REMARK       I    between atoms: C9_16  and  N1_7 
REMARK    6  A    between atoms: C1_8  and  C2_9 
REMARK    7  A    between atoms: C4_11  and  C8_15 
REMARK    8  A    between atoms: C10_17  and  C9_16 
ROOT
HETATM    1  O1  UNK     1      18.773  -1.174  17.582  1.00  0.00    -0.306 OA
HETATM    2  O4  UNK     1      19.678   2.091  15.317  1.00  0.00    -0.284 OA
HETATM    3  C4  UNK     1      19.101  -1.293  16.241  1.00  0.00     0.123 A 
HETATM    4  C5  UNK     1      19.403  -0.259  15.434  1.00  0.00     0.155 A 
HETATM    5  C7  UNK     1      19.075   1.230  17.429  1.00  0.00     0.051 A 
HETATM    6  C11 UNK     1      18.774   0.075  18.147  1.00  0.00     0.090 A 
HETATM    7  C12 UNK     1      19.409   1.112  16.001  1.00  0.00     0.221 A 
HETATM    8  C15 UNK     1      19.060   2.476  18.058  1.00  0.00     0.018 A 
HETATM    9  C16 UNK     1      18.451   0.160  19.502  1.00  0.00     0.038 A 
HETATM   10  C20 UNK     1      18.738   2.559  19.414  1.00  0.00     0.001 A 
HETATM   11  C21 UNK     1      18.434   1.404  20.134  1.00  0.00     0.003 A 
ENDROOT
BRANCH   3  12
HETATM   12  C8  UNK     1      19.064  -2.686  15.761  1.00  0.00     0.004 A 
HETATM   13  C13 UNK     1      20.254  -3.381  15.549  1.00  0.00     0.054 A 
HETATM   14  C17 UNK     1      20.221  -4.700  15.095  1.00  0.00     0.102 A 
HETATM   15  C18 UNK     1      18.995  -5.323  14.852  1.00  0.00     0.101 A 
HETATM   16  C19 UNK     1      17.805  -4.627  15.064  1.00  0.00     0.040 A 
HETATM   17  C14 UNK     1      17.840  -3.308  15.518  1.00  0.00     0.017 A 
BRANCH  14  18
HETATM   18  O5  UNK     1      21.388  -5.370  14.890  1.00  0.00    -0.353 OA
HETATM   19  C22 UNK     1      22.071  -5.851  16.046  1.00  0.00     0.210 C 
ENDBRANCH  14  18
BRANCH  15  20
HETATM   20  O6  UNK     1      18.949  -6.610  14.411  1.00  0.00    -0.353 OA
HETATM   21  C23 UNK     1      18.249  -6.851  13.191  1.00  0.00     0.210 C 
ENDBRANCH  15  20
ENDBRANCH   3  12
BRANCH   4  22
HETATM   22  O2  UNK     1      19.693  -0.408  14.095  1.00  0.00    -0.335 OA
BRANCH  22  23
HETATM   23  C10 UNK     1      18.593  -0.966  13.402  1.00  0.00     0.278 C 
BRANCH  23  24
HETATM   24  C9  UNK     1      18.966  -1.273  11.967  1.00  0.00     0.242 C 
HETATM   25  O3  UNK     1      18.702  -0.516  11.035  1.00  0.00    -0.271 OA
HETATM   26  N1  UNK     1      19.625  -2.486  11.857  1.00  0.00    -0.355 N 
HETATM   27  H4  UNK     1      19.733  -3.063  12.688  1.00  0.00     0.162 HD
BRANCH  26  28
HETATM   28  C1  UNK     1      20.091  -3.021  10.598  1.00  0.00     0.080 C 
HETATM   29  C3  UNK     1      20.402  -4.505  10.753  1.00  0.00     0.032 C 
BRANCH  28  30
HETATM   30  C2  UNK     1      21.320  -2.257  10.087  1.00  0.00     0.020 C 
HETATM   31  C6  UNK     1      21.969  -2.928   8.883  1.00  0.00     0.007 C 
ENDBRANCH  28  30
ENDBRANCH  26  28
ENDBRANCH  23  24
ENDBRANCH  22  23
ENDBRANCH   4  22
TORSDOF 8
ENDMDL
MODEL 5
REMARK VINA RESULT:      -7.8     14.470     17.644
REMARK  8 active torsions:
REMARK  status: ('A' for Active; 'I' for Inactive)
REMARK    1  A    between atoms: C10_17  and  O2_2 
REMARK    2  A    between atoms: C5_12  and  O2_2 
REMARK    3  A    between atoms: C17_24  and  O5_5 
REMARK    4  A    between atoms: C18_25  and  O6_6 
REMARK    5  A    between atoms: C1_8  and  N1_7 
REMARK       I    between atoms: C9_16  and  N1_7 
REMARK    6  A    between atoms: C1_8  and  C2_9 
REMARK    7  A    between atoms: C4_11  and  C8_15 
REMARK    8  A    between atoms: C10_17  and  C9_16 
ROOT
HETATM    1  O1  UNK     1      30.830  -8.843  31.570  1.00  0.00    -0.306 OA
HETATM    2  O4  UNK     1      27.284  -6.842  31.715  1.00  0.00    -0.284 OA
HETATM    3  C4  UNK     1      30.577  -7.892  32.545  1.00  0.00     0.123 A 
HETATM    4  C5  UNK     1      29.433  -7.190  32.648  1.00  0.00     0.155 A 
HETATM    5  C7  UNK     1      28.616  -8.470  30.648  1.00  0.00     0.051 A 
HETATM    6  C11 UNK     1      29.850  -9.117  30.652  1.00  0.00     0.090 A 
HETATM    7  C12 UNK     1      28.347  -7.448  31.671  1.00  0.00     0.221 A 
HETATM    8  C15 UNK     1      27.654  -8.789  29.688  1.00  0.00     0.018 A 
HETATM    9  C16 UNK     1      30.131 -10.088  29.691  1.00  0.00     0.038 A 
HETATM   10  C20 UNK     1      27.937  -9.762  28.728  1.00  0.00     0.001 A 
HETATM   11  C21 UNK     1      29.173 -10.410  28.729  1.00  0.00     0.003 A 
ENDROOT
BRANCH   3  12
HETATM   12  C8  UNK     1      31.710  -7.696  33.466  1.00  0.00     0.004 A 
HETATM   13  C13 UNK     1      31.757  -8.397  34.672  1.00  0.00     0.054 A 
HETATM   14  C17 UNK     1      32.830  -8.212  35.545  1.00  0.00     0.102 A 
HETATM   15  C18 UNK     1      33.856  -7.327  35.211  1.00  0.00     0.101 A 
HETATM   16  C19 UNK     1      33.809  -6.626  34.006  1.00  0.00     0.040 A 
HETATM   17  C14 UNK     1      32.735  -6.811  33.134  1.00  0.00     0.017 A 
BRANCH  14  18
HETATM   18  O5  UNK     1      32.865  -8.900  36.720  1.00  0.00    -0.353 OA
HETATM   19  C22 UNK     1      31.854  -8.596  37.679  1.00  0.00     0.210 C 
ENDBRANCH  14  18
BRANCH  15  20
HETATM   20  O6  UNK     1      34.909  -7.139  36.054  1.00  0.00    -0.353 OA
HETATM   21  C23 UNK     1      35.393  -5.805  36.199  1.00  0.00     0.210 C 
ENDBRANCH  15  20
ENDBRANCH   3  12
BRANCH   4  22
HETATM   22  O2  UNK     1      29.225  -6.227  33.610  1.00  0.00    -0.335 OA
BRANCH  22  23
HETATM   23  C10 UNK     1      28.293  -6.673  34.576  1.00  0.00     0.278 C 
BRANCH  23  24
HETATM   24  C9  UNK     1      28.898  -6.629  35.963  1.00  0.00     0.242 C 
HETATM   25  O3  UNK     1      28.664  -7.481  36.817  1.00  0.00    -0.271 OA
HETATM   26  N1  UNK     1      29.724  -5.530  36.128  1.00  0.00    -0.355 N 
HETATM   27  H4  UNK     1      29.794  -4.852  35.373  1.00  0.00     0.162 HD
BRANCH  26  28
HETATM   28  C1  UNK     1      30.427  -5.247  37.358  1.00  0.00     0.080 C 
HETATM   29  C3  UNK     1      29.723  -4.121  38.106  1.00  0.00     0.032 C 
BRANCH  28  30
HETATM   30  C2  UNK     1      31.896  -4.890  37.093  1.00  0.00     0.020 C 
HETATM   31  C6  UNK     1      32.075  -4.017  35.857  1.00  0.00     0.007 C 
ENDBRANCH  28  30
ENDBRANCH  26  28
ENDBRANCH  23  24
ENDBRANCH  22  23
ENDBRANCH   4  22
TORSDOF 8
ENDMDL
MODEL 6
REMARK VINA RESULT:      -7.7      4.669      9.156
REMARK  8 active torsions:
REMARK  status: ('A' for Active; 'I' for Inactive)
REMARK    1  A    between atoms: C10_17  and  O2_2 
REMARK    2  A    between atoms: C5_12  and  O2_2 
REMARK    3  A    between atoms: C17_24  and  O5_5 
REMARK    4  A    between atoms: C18_25  and  O6_6 
REMARK    5  A    between atoms: C1_8  and  N1_7 
REMARK       I    between atoms: C9_16  and  N1_7 
REMARK    6  A    between atoms: C1_8  and  C2_9 
REMARK    7  A    between atoms: C4_11  and  C8_15 
REMARK    8  A    between atoms: C10_17  and  C9_16 
ROOT
HETATM    1  O1  UNK     1      19.040  -2.100  37.351  1.00  0.00    -0.306 OA
HETATM    2  O4  UNK     1      18.982  -0.513  33.598  1.00  0.00    -0.284 OA
HETATM    3  C4  UNK     1      19.597  -2.770  36.274  1.00  0.00     0.123 A 
HETATM    4  C5  UNK     1      19.608  -2.309  35.009  1.00  0.00     0.155 A 
HETATM    5  C7  UNK     1      18.425  -0.272  35.877  1.00  0.00     0.051 A 
HETATM    6  C11 UNK     1      18.475  -0.870  37.134  1.00  0.00     0.090 A 
HETATM    7  C12 UNK     1      19.002  -0.985  34.727  1.00  0.00     0.221 A 
HETATM    8  C15 UNK     1      17.836   0.984  35.715  1.00  0.00     0.018 A 
HETATM    9  C16 UNK     1      17.933  -0.215  38.240  1.00  0.00     0.038 A 
HETATM   10  C20 UNK     1      17.295   1.638  36.824  1.00  0.00     0.001 A 
HETATM   11  C21 UNK     1      17.343   1.040  38.084  1.00  0.00     0.003 A 
ENDROOT
BRANCH   3  12
HETATM   12  C8  UNK     1      20.171  -4.077  36.644  1.00  0.00     0.004 A 
HETATM   13  C13 UNK     1      19.727  -5.237  36.010  1.00  0.00     0.054 A 
HETATM   14  C17 UNK     1      20.269  -6.474  36.359  1.00  0.00     0.102 A 
HETATM   15  C18 UNK     1      21.256  -6.550  37.343  1.00  0.00     0.101 A 
HETATM   16  C19 UNK     1      21.700  -5.389  37.977  1.00  0.00     0.040 A 
HETATM   17  C14 UNK     1      21.156  -4.153  37.627  1.00  0.00     0.017 A 
BRANCH  14  18
HETATM   18  O5  UNK     1      19.827  -7.601  35.736  1.00  0.00    -0.353 OA
HETATM   19  C22 UNK     1      18.561  -8.114  36.145  1.00  0.00     0.210 C 
ENDBRANCH  14  18
BRANCH  15  20
HETATM   20  O6  UNK     1      21.795  -7.751  37.692  1.00  0.00    -0.353 OA
HETATM   21  C23 UNK     1      21.352  -8.328  38.920  1.00  0.00     0.210 C 
ENDBRANCH  15  20
ENDBRANCH   3  12
BRANCH   4  22
HETATM   22  O2  UNK     1      20.142  -3.016  33.955  1.00  0.00    -0.335 OA
BRANCH  22  23
HETATM   23  C10 UNK     1      21.078  -2.228  33.243  1.00  0.00     0.278 C 
BRANCH  23  24
HETATM   24  C9  UNK     1      20.721  -2.175  31.772  1.00  0.00     0.242 C 
HETATM   25  O3  UNK     1      20.778  -3.159  31.039  1.00  0.00    -0.271 OA
HETATM   26  N1  UNK     1      20.335  -0.902  31.385  1.00  0.00    -0.355 N 
HETATM   27  H4  UNK     1      20.388  -0.146  32.063  1.00  0.00     0.162 HD
BRANCH  26  28
HETATM   28  C1  UNK     1      19.944  -0.573  30.033  1.00  0.00     0.080 C 
HETATM   29  C3  UNK     1      21.157  -0.649  29.114  1.00  0.00     0.032 C 
BRANCH  28  30
HETATM   30  C2  UNK     1      19.293   0.815  29.962  1.00  0.00     0.020 C 
HETATM   31  C6  UNK     1      18.573   1.058  28.641  1.00  0.00     0.007 C 
ENDBRANCH  28  30
ENDBRANCH  26  28
ENDBRANCH  23  24
ENDBRANCH  22  23
ENDBRANCH   4  22
TORSDOF 8
ENDMDL
MODEL 7
REMARK VINA RESULT:      -7.6     16.154     18.537
REMARK  8 active torsions:
REMARK  status: ('A' for Active; 'I' for Inactive)
REMARK    1  A    between atoms: C10_17  and  O2_2 
REMARK    2  A    between atoms: C5_12  and  O2_2 
REMARK    3  A    between atoms: C17_24  and  O5_5 
REMARK    4  A    between atoms: C18_25  and  O6_6 
REMARK    5  A    between atoms: C1_8  and  N1_7 
REMARK       I    between atoms: C9_16  and  N1_7 
REMARK    6  A    between atoms: C1_8  and  C2_9 
REMARK    7  A    between atoms: C4_11  and  C8_15 
REMARK    8  A    between atoms: C10_17  and  C9_16 
ROOT
HETATM    1  O1  UNK     1      29.868  -8.214  31.442  1.00  0.00    -0.306 OA
HETATM    2  O4  UNK     1      32.883  -9.980  29.344  1.00  0.00    -0.284 OA
HETATM    3  C4  UNK     1      31.187  -8.124  31.857  1.00  0.00     0.123 A 
HETATM    4  C5  UNK     1      32.229  -8.686  31.217  1.00  0.00     0.155 A 
HETATM    5  C7  UNK     1      30.575  -9.527  29.526  1.00  0.00     0.051 A 
HETATM    6  C11 UNK     1      29.591  -8.903  30.290  1.00  0.00     0.090 A 
HETATM    7  C12 UNK     1      31.975  -9.447  29.970  1.00  0.00     0.221 A 
HETATM    8  C15 UNK     1      30.233 -10.215  28.360  1.00  0.00     0.018 A 
HETATM    9  C16 UNK     1      28.255  -8.966  29.892  1.00  0.00     0.038 A 
HETATM   10  C20 UNK     1      28.896 -10.276  27.963  1.00  0.00     0.001 A 
HETATM   11  C21 UNK     1      27.909  -9.653  28.727  1.00  0.00     0.003 A 
ENDROOT
BRANCH   3  12
HETATM   12  C8  UNK     1      31.346  -7.356  33.105  1.00  0.00     0.004 A 
HETATM   13  C13 UNK     1      31.201  -7.993  34.337  1.00  0.00     0.054 A 
HETATM   14  C17 UNK     1      31.351  -7.267  35.520  1.00  0.00     0.102 A 
HETATM   15  C18 UNK     1      31.648  -5.905  35.468  1.00  0.00     0.101 A 
HETATM   16  C19 UNK     1      31.793  -5.268  34.236  1.00  0.00     0.040 A 
HETATM   17  C14 UNK     1      31.642  -5.994  33.054  1.00  0.00     0.017 A 
BRANCH  14  18
HETATM   18  O5  UNK     1      31.205  -7.898  36.718  1.00  0.00    -0.353 OA
HETATM   19  C22 UNK     1      32.286  -8.721  37.152  1.00  0.00     0.210 C 
ENDBRANCH  14  18
BRANCH  15  20
HETATM   20  O6  UNK     1      31.799  -5.186  36.615  1.00  0.00    -0.353 OA
HETATM   21  C23 UNK     1      32.054  -3.789  36.474  1.00  0.00     0.210 C 
ENDBRANCH  15  20
ENDBRANCH   3  12
BRANCH   4  22
HETATM   22  O2  UNK     1      33.526  -8.605  31.675  1.00  0.00    -0.335 OA
BRANCH  22  23
HETATM   23  C10 UNK     1      34.251  -7.621  30.960  1.00  0.00     0.278 C 
BRANCH  23  24
HETATM   24  C9  UNK     1      35.229  -6.911  31.872  1.00  0.00     0.242 C 
HETATM   25  O3  UNK     1      36.049  -6.095  31.459  1.00  0.00    -0.271 OA
HETATM   26  N1  UNK     1      35.073  -7.298  33.193  1.00  0.00    -0.355 N 
HETATM   27  H4  UNK     1      34.403  -8.031  33.413  1.00  0.00     0.162 HD
BRANCH  26  28
HETATM   28  C1  UNK     1      35.880  -6.774  34.270  1.00  0.00     0.080 C 
HETATM   29  C3  UNK     1      37.217  -7.504  34.313  1.00  0.00     0.032 C 
BRANCH  28  30
HETATM   30  C2  UNK     1      35.155  -6.885  35.618  1.00  0.00     0.020 C 
HETATM   31  C6  UNK     1      35.293  -5.626  36.465  1.00  0.00     0.007 C 
ENDBRANCH  28  30
ENDBRANCH  26  28
ENDBRANCH  23  24
ENDBRANCH  22  23
ENDBRANCH   4  22
TORSDOF 8
ENDMDL
MODEL 8
REMARK VINA RESULT:      -7.5     14.475     17.528
REMARK  8 active torsions:
REMARK  status: ('A' for Active; 'I' for Inactive)
REMARK    1  A    between atoms: C10_17  and  O2_2 
REMARK    2  A    between atoms: C5_12  and  O2_2 
REMARK    3  A    between atoms: C17_24  and  O5_5 
REMARK    4  A    between atoms: C18_25  and  O6_6 
REMARK    5  A    between atoms: C1_8  and  N1_7 
REMARK       I    between atoms: C9_16  and  N1_7 
REMARK    6  A    between atoms: C1_8  and  C2_9 
REMARK    7  A    between atoms: C4_11  and  C8_15 
REMARK    8  A    between atoms: C10_17  and  C9_16 
ROOT
HETATM    1  O1  UNK     1      30.812  -8.808  31.731  1.00  0.00    -0.306 OA
HETATM    2  O4  UNK     1      27.256  -6.820  31.829  1.00  0.00    -0.284 OA
HETATM    3  C4  UNK     1      30.529  -7.881  32.721  1.00  0.00     0.123 A 
HETATM    4  C5  UNK     1      29.381  -7.185  32.810  1.00  0.00     0.155 A 
HETATM    5  C7  UNK     1      28.622  -8.418  30.760  1.00  0.00     0.051 A 
HETATM    6  C11 UNK     1      29.857  -9.062  30.781  1.00  0.00     0.090 A 
HETATM    7  C12 UNK     1      28.322  -7.422  31.799  1.00  0.00     0.221 A 
HETATM    8  C15 UNK     1      27.687  -8.717  29.766  1.00  0.00     0.018 A 
HETATM    9  C16 UNK     1      30.167 -10.009  29.805  1.00  0.00     0.038 A 
HETATM   10  C20 UNK     1      27.999  -9.666  28.791  1.00  0.00     0.001 A 
HETATM   11  C21 UNK     1      29.236 -10.311  28.809  1.00  0.00     0.003 A 
ENDROOT
BRANCH   3  12
HETATM   12  C8  UNK     1      31.637  -7.705  33.678  1.00  0.00     0.004 A 
HETATM   13  C13 UNK     1      32.603  -6.725  33.452  1.00  0.00     0.054 A 
HETATM   14  C17 UNK     1      33.652  -6.558  34.357  1.00  0.00     0.102 A 
HETATM   15  C18 UNK     1      33.733  -7.371  35.488  1.00  0.00     0.101 A 
HETATM   16  C19 UNK     1      32.766  -8.350  35.714  1.00  0.00     0.040 A 
HETATM   17  C14 UNK     1      31.718  -8.518  34.808  1.00  0.00     0.017 A 
BRANCH  14  18
HETATM   18  O5  UNK     1      34.592  -5.599  34.126  1.00  0.00    -0.353 OA
HETATM   19  C22 UNK     1      34.282  -4.273  34.548  1.00  0.00     0.210 C 
ENDBRANCH  14  18
BRANCH  15  20
HETATM   20  O6  UNK     1      34.750  -7.216  36.381  1.00  0.00    -0.353 OA
HETATM   21  C23 UNK     1      34.451  -6.518  37.589  1.00  0.00     0.210 C 
ENDBRANCH  15  20
ENDBRANCH   3  12
BRANCH   4  22
HETATM   22  O2  UNK     1      29.144  -6.245  33.790  1.00  0.00    -0.335 OA
BRANCH  22  23
HETATM   23  C10 UNK     1      28.342  -6.786  34.822  1.00  0.00     0.278 C 
BRANCH  23  24
HETATM   24  C9  UNK     1      29.038  -6.662  36.161  1.00  0.00     0.242 C 
HETATM   25  O3  UNK     1      29.025  -7.558  37.002  1.00  0.00    -0.271 OA
HETATM   26  N1  UNK     1      29.671  -5.438  36.298  1.00  0.00    -0.355 N 
HETATM   27  H4  UNK     1      29.562  -4.744  35.562  1.00  0.00     0.162 HD
BRANCH  26  28
HETATM   28  C1  UNK     1      30.410  -5.059  37.480  1.00  0.00     0.080 C 
HETATM   29  C3  UNK     1      29.550  -4.155  38.357  1.00  0.00     0.032 C 
BRANCH  28  30
HETATM   30  C2  UNK     1      31.731  -4.368  37.117  1.00  0.00     0.020 C 
HETATM   31  C6  UNK     1      31.543  -2.904  36.738  1.00  0.00     0.007 C 
ENDBRANCH  28  30
ENDBRANCH  26  28
ENDBRANCH  23  24
ENDBRANCH  22  23
ENDBRANCH   4  22
TORSDOF 8
ENDMDL
MODEL 9
REMARK VINA RESULT:      -7.5     14.859     17.712
REMARK  8 active torsions:
REMARK  status: ('A' for Active; 'I' for Inactive)
REMARK    1  A    between atoms: C10_17  and  O2_2 
REMARK    2  A    between atoms: C5_12  and  O2_2 
REMARK    3  A    between atoms: C17_24  and  O5_5 
REMARK    4  A    between atoms: C18_25  and  O6_6 
REMARK    5  A    between atoms: C1_8  and  N1_7 
REMARK       I    between atoms: C9_16  and  N1_7 
REMARK    6  A    between atoms: C1_8  and  C2_9 
REMARK    7  A    between atoms: C4_11  and  C8_15 
REMARK    8  A    between atoms: C10_17  and  C9_16 
ROOT
HETATM    1  O1  UNK     1      29.566 -10.689  33.438  1.00  0.00    -0.306 OA
HETATM    2  O4  UNK     1      28.987  -7.514  30.950  1.00  0.00    -0.284 OA
HETATM    3  C4  UNK     1      29.120  -9.468  33.916  1.00  0.00     0.123 A 
HETATM    4  C5  UNK     1      28.913  -8.378  33.154  1.00  0.00     0.155 A 
HETATM    5  C7  UNK     1      29.618  -9.774  31.190  1.00  0.00     0.051 A 
HETATM    6  C11 UNK     1      29.799 -10.819  32.093  1.00  0.00     0.090 A 
HETATM    7  C12 UNK     1      29.158  -8.470  31.694  1.00  0.00     0.221 A 
HETATM    8  C15 UNK     1      29.871  -9.964  29.830  1.00  0.00     0.018 A 
HETATM    9  C16 UNK     1      30.237 -12.064  31.641  1.00  0.00     0.038 A 
HETATM   10  C20 UNK     1      30.308 -11.211  29.379  1.00  0.00     0.001 A 
HETATM   11  C21 UNK     1      30.491 -12.259  30.282  1.00  0.00     0.003 A 
ENDROOT
BRANCH   3  12
HETATM   12  C8  UNK     1      28.908  -9.464  35.375  1.00  0.00     0.004 A 
HETATM   13  C13 UNK     1      30.004  -9.441  36.238  1.00  0.00     0.054 A 
HETATM   14  C17 UNK     1      29.804  -9.438  37.619  1.00  0.00     0.102 A 
HETATM   15  C18 UNK     1      28.508  -9.456  38.136  1.00  0.00     0.101 A 
HETATM   16  C19 UNK     1      27.413  -9.478  37.273  1.00  0.00     0.040 A 
HETATM   17  C14 UNK     1      27.613  -9.483  35.892  1.00  0.00     0.017 A 
BRANCH  14  18
HETATM   18  O5  UNK     1      30.881  -9.418  38.453  1.00  0.00    -0.353 OA
HETATM   19  C22 UNK     1      31.910  -8.476  38.159  1.00  0.00     0.210 C 
ENDBRANCH  14  18
BRANCH  15  20
HETATM   20  O6  UNK     1      28.300  -9.450  39.482  1.00  0.00    -0.353 OA
HETATM   21  C23 UNK     1      27.196 -10.212  39.970  1.00  0.00     0.210 C 
ENDBRANCH  15  20
ENDBRANCH   3  12
BRANCH   4  22
HETATM   22  O2  UNK     1      28.499  -7.168  33.667  1.00  0.00    -0.335 OA
BRANCH  22  23
HETATM   23  C10 UNK     1      29.572  -6.246  33.709  1.00  0.00     0.278 C 
BRANCH  23  24
HETATM   24  C9  UNK     1      30.129  -6.138  35.113  1.00  0.00     0.242 C 
HETATM   25  O3  UNK     1      31.323  -6.281  35.367  1.00  0.00    -0.271 OA
HETATM   26  N1  UNK     1      29.135  -5.865  36.039  1.00  0.00    -0.355 N 
HETATM   27  H4  UNK     1      28.169  -5.831  35.725  1.00  0.00     0.162 HD
BRANCH  26  28
HETATM   28  C1  UNK     1      29.393  -5.713  37.452  1.00  0.00     0.080 C 
HETATM   29  C3  UNK     1      28.120  -5.994  38.241  1.00  0.00     0.032 C 
BRANCH  28  30
HETATM   30  C2  UNK     1      29.935  -4.314  37.775  1.00  0.00     0.020 C 
HETATM   31  C6  UNK     1      29.654  -3.892  39.211  1.00  0.00     0.007 C 
ENDBRANCH  28  30
ENDBRANCH  26  28
ENDBRANCH  23  24
ENDBRANCH  22  23
ENDBRANCH   4  22
TORSDOF 8
ENDMDL
MODEL 10
REMARK VINA RESULT:      -7.4     14.612     17.603
REMARK  8 active torsions:
REMARK  status: ('A' for Active; 'I' for Inactive)
REMARK    1  A    between atoms: C10_17  and  O2_2 
REMARK    2  A    between atoms: C5_12  and  O2_2 
REMARK    3  A    between atoms: C17_24  and  O5_5 
REMARK    4  A    between atoms: C18_25  and  O6_6 
REMARK    5  A    between atoms: C1_8  and  N1_7 
REMARK       I    between atoms: C9_16  and  N1_7 
REMARK    6  A    between atoms: C1_8  and  C2_9 
REMARK    7  A    between atoms: C4_11  and  C8_15 
REMARK    8  A    between atoms: C10_17  and  C9_16 
ROOT
HETATM    1  O1  UNK     1      30.818  -8.820  31.693  1.00  0.00    -0.306 OA
HETATM    2  O4  UNK     1      27.248  -6.855  31.690  1.00  0.00    -0.284 OA
HETATM    3  C4  UNK     1      30.513  -7.875  32.659  1.00  0.00     0.123 A 
HETATM    4  C5  UNK     1      29.358  -7.185  32.714  1.00  0.00     0.155 A 
HETATM    5  C7  UNK     1      28.643  -8.465  30.676  1.00  0.00     0.051 A 
HETATM    6  C11 UNK     1      29.882  -9.099  30.731  1.00  0.00     0.090 A 
HETATM    7  C12 UNK     1      28.318  -7.450  31.690  1.00  0.00     0.221 A 
HETATM    8  C15 UNK     1      27.727  -8.790  29.673  1.00  0.00     0.018 A 
HETATM    9  C16 UNK     1      30.214 -10.064  29.780  1.00  0.00     0.038 A 
HETATM   10  C20 UNK     1      28.062  -9.756  28.723  1.00  0.00     0.001 A 
HETATM   11  C21 UNK     1      29.303 -10.392  28.775  1.00  0.00     0.003 A 
ENDROOT
BRANCH   3  12
HETATM   12  C8  UNK     1      31.602  -7.672  33.630  1.00  0.00     0.004 A 
HETATM   13  C13 UNK     1      32.473  -6.592  33.485  1.00  0.00     0.054 A 
HETATM   14  C17 UNK     1      33.505  -6.399  34.404  1.00  0.00     0.102 A 
HETATM   15  C18 UNK     1      33.665  -7.287  35.468  1.00  0.00     0.101 A 
HETATM   16  C19 UNK     1      32.794  -8.367  35.614  1.00  0.00     0.040 A 
HETATM   17  C14 UNK     1      31.763  -8.559  34.694  1.00  0.00     0.017 A 
BRANCH  14  18
HETATM   18  O5  UNK     1      34.351  -5.343  34.252  1.00  0.00    -0.353 OA
HETATM   19  C22 UNK     1      33.944  -4.100  34.821  1.00  0.00     0.210 C 
ENDBRANCH  14  18
BRANCH  15  20
HETATM   20  O6  UNK     1      34.667  -7.108  36.374  1.00  0.00    -0.353 OA
HETATM   21  C23 UNK     1      34.314  -6.511  37.621  1.00  0.00     0.210 C 
ENDBRANCH  15  20
ENDBRANCH   3  12
BRANCH   4  22
HETATM   22  O2  UNK     1      29.099  -6.228  33.670  1.00  0.00    -0.335 OA
BRANCH  22  23
HETATM   23  C10 UNK     1      28.273  -6.750  34.694  1.00  0.00     0.278 C 
BRANCH  23  24
HETATM   24  C9  UNK     1      28.991  -6.720  36.027  1.00  0.00     0.242 C 
HETATM   25  O3  UNK     1      29.838  -5.875  36.306  1.00  0.00    -0.271 OA
HETATM   26  N1  UNK     1      28.570  -7.744  36.858  1.00  0.00    -0.355 N 
HETATM   27  H4  UNK     1      27.908  -8.427  36.499  1.00  0.00     0.162 HD
BRANCH  26  28
HETATM   28  C1  UNK     1      29.095  -7.947  38.189  1.00  0.00     0.080 C 
HETATM   29  C3  UNK     1      29.804  -9.295  38.263  1.00  0.00     0.032 C 
BRANCH  28  30
HETATM   30  C2  UNK     1      27.988  -7.855  39.247  1.00  0.00     0.020 C 
HETATM   31  C6  UNK     1      27.564  -9.221  39.774  1.00  0.00     0.007 C 
ENDBRANCH  28  30
ENDBRANCH  26  28
ENDBRANCH  23  24
ENDBRANCH  22  23
ENDBRANCH   4  22
TORSDOF 8
ENDMDL
