MODEL 1
REMARK VINA RESULT:      -8.8      0.000      0.000
REMARK  2 active torsions:
REMARK  status: ('A' for Active; 'I' for Inactive)
REMARK    1  A    between atoms: C18_23  and  O5_5 
REMARK    2  A    between atoms: C1_6  and  C2_7 
ROOT
HETATM    1  O3  UNK     1      19.173   3.317  29.862  1.00  0.00    -0.313 OA
HETATM    2  O4  UNK     1      17.940   2.989  33.728  1.00  0.00    -0.286 OA
HETATM    3  C2  UNK     1      18.379   4.408  31.868  1.00  0.00     0.055 A 
HETATM    4  C9  UNK     1      18.796   4.443  30.583  1.00  0.00     0.065 A 
HETATM    5  C10 UNK     1      18.311   3.091  32.566  1.00  0.00     0.198 A 
HETATM    6  C11 UNK     1      18.717   1.914  31.785  1.00  0.00     0.049 A 
HETATM    7  C13 UNK     1      19.128   2.090  30.469  1.00  0.00     0.092 A 
HETATM    8  C15 UNK     1      18.691   0.636  32.351  1.00  0.00     0.021 A 
HETATM    9  C16 UNK     1      18.915   5.692  29.754  1.00  0.00     0.077 C 
HETATM   10  C17 UNK     1      19.517   0.989  29.705  1.00  0.00     0.074 A 
HETATM   11  C18 UNK     1      19.493  -0.289  30.266  1.00  0.00     0.068 A 
HETATM   12  C19 UNK     1      19.079  -0.465  31.586  1.00  0.00     0.037 A 
ENDROOT
BRANCH   3  13
HETATM   13  C1  UNK     1      17.992   5.612  32.586  1.00  0.00    -0.017 A 
HETATM   14  C6  UNK     1      16.717   6.150  32.413  1.00  0.00     0.052 A 
HETATM   15  C3  UNK     1      16.332   7.300  33.112  1.00  0.00     0.102 A 
HETATM   16  O1  UNK     1      15.040   7.706  32.892  1.00  0.00    -0.348 OA
HETATM   17  C5  UNK     1      17.256   7.944  33.946  1.00  0.00     0.102 A 
HETATM   18  C7  UNK     1      14.408   8.274  34.040  1.00  0.00     0.178 C 
HETATM   19  C4  UNK     1      14.730   9.754  34.166  1.00  0.00     0.053 C 
HETATM   20  C8  UNK     1      16.206  10.044  33.936  1.00  0.00     0.178 C 
HETATM   21  O2  UNK     1      17.029   9.110  34.634  1.00  0.00    -0.348 OA
HETATM   22  C14 UNK     1      18.524   7.385  34.135  1.00  0.00     0.040 A 
HETATM   23  C12 UNK     1      18.892   6.223  33.456  1.00  0.00     0.015 A 
ENDBRANCH   3  13
BRANCH  11  24
HETATM   24  O5  UNK     1      19.872  -1.365  29.523  1.00  0.00    -0.361 OA
HETATM   25  H16 UNK     1      20.820  -1.528  29.666  1.00  0.00     0.217 HD
ENDBRANCH  11  24
TORSDOF 2
ENDMDL
MODEL 2
REMARK VINA RESULT:      -8.5      1.087      2.212
REMARK  2 active torsions:
REMARK  status: ('A' for Active; 'I' for Inactive)
REMARK    1  A    between atoms: C18_23  and  O5_5 
REMARK    2  A    between atoms: C1_6  and  C2_7 
ROOT
HETATM    1  O3  UNK     1      18.717   1.026  32.898  1.00  0.00    -0.313 OA
HETATM    2  O4  UNK     1      18.788   4.055  30.180  1.00  0.00    -0.286 OA
HETATM    3  C2  UNK     1      18.442   3.383  32.436  1.00  0.00     0.055 A 
HETATM    4  C9  UNK     1      18.438   2.331  33.285  1.00  0.00     0.065 A 
HETATM    5  C10 UNK     1      18.765   3.147  30.999  1.00  0.00     0.198 A 
HETATM    6  C11 UNK     1      19.055   1.759  30.612  1.00  0.00     0.049 A 
HETATM    7  C13 UNK     1      19.016   0.768  31.587  1.00  0.00     0.092 A 
HETATM    8  C15 UNK     1      19.366   1.435  29.288  1.00  0.00     0.021 A 
HETATM    9  C16 UNK     1      18.132   2.415  34.754  1.00  0.00     0.077 C 
HETATM   10  C17 UNK     1      19.287  -0.558  31.245  1.00  0.00     0.074 A 
HETATM   11  C18 UNK     1      19.599  -0.886  29.925  1.00  0.00     0.068 A 
HETATM   12  C19 UNK     1      19.639   0.109  28.949  1.00  0.00     0.037 A 
ENDROOT
BRANCH   3  13
HETATM   13  C1  UNK     1      18.144   4.734  32.884  1.00  0.00    -0.017 A 
HETATM   14  C6  UNK     1      16.925   5.326  32.555  1.00  0.00     0.052 A 
HETATM   15  C3  UNK     1      16.624   6.621  32.995  1.00  0.00     0.102 A 
HETATM   16  O1  UNK     1      15.377   7.075  32.646  1.00  0.00    -0.348 OA
HETATM   17  C5  UNK     1      17.580   7.344  33.720  1.00  0.00     0.102 A 
HETATM   18  C7  UNK     1      14.769   7.912  33.631  1.00  0.00     0.178 C 
HETATM   19  C4  UNK     1      15.215   9.357  33.472  1.00  0.00     0.053 C 
HETATM   20  C8  UNK     1      16.715   9.476  33.249  1.00  0.00     0.178 C 
HETATM   21  O2  UNK     1      17.438   8.640  34.152  1.00  0.00    -0.348 OA
HETATM   22  C14 UNK     1      18.790   6.735  34.068  1.00  0.00     0.040 A 
HETATM   23  C12 UNK     1      19.073   5.434  33.650  1.00  0.00     0.015 A 
ENDBRANCH   3  13
BRANCH  11  24
HETATM   24  O5  UNK     1      19.865  -2.178  29.590  1.00  0.00    -0.361 OA
HETATM   25  H16 UNK     1      19.595  -2.326  28.668  1.00  0.00     0.217 HD
ENDBRANCH  11  24
TORSDOF 2
ENDMDL
MODEL 3
REMARK VINA RESULT:      -8.4      1.737      7.786
REMARK  2 active torsions:
REMARK  status: ('A' for Active; 'I' for Inactive)
REMARK    1  A    between atoms: C18_23  and  O5_5 
REMARK    2  A    between atoms: C1_6  and  C2_7 
ROOT
HETATM    1  O3  UNK     1      19.585   8.433  33.533  1.00  0.00    -0.313 OA
HETATM    2  O4  UNK     1      15.994   6.556  33.149  1.00  0.00    -0.286 OA
HETATM    3  C2  UNK     1      18.367   6.392  33.092  1.00  0.00     0.055 A 
HETATM    4  C9  UNK     1      19.523   7.078  33.234  1.00  0.00     0.065 A 
HETATM    5  C10 UNK     1      17.075   7.117  33.263  1.00  0.00     0.198 A 
HETATM    6  C11 UNK     1      17.165   8.550  33.577  1.00  0.00     0.049 A 
HETATM    7  C13 UNK     1      18.420   9.135  33.695  1.00  0.00     0.092 A 
HETATM    8  C15 UNK     1      16.009   9.318  33.754  1.00  0.00     0.021 A 
HETATM    9  C16 UNK     1      20.897   6.483  33.091  1.00  0.00     0.077 C 
HETATM   10  C17 UNK     1      18.533  10.494  33.993  1.00  0.00     0.074 A 
HETATM   11  C18 UNK     1      17.383  11.264  34.171  1.00  0.00     0.068 A 
HETATM   12  C19 UNK     1      16.123  10.676  34.052  1.00  0.00     0.037 A 
ENDROOT
BRANCH   3  13
HETATM   13  C1  UNK     1      18.347   4.972  32.779  1.00  0.00    -0.017 A 
HETATM   14  C6  UNK     1      18.314   4.030  33.808  1.00  0.00     0.052 A 
HETATM   15  C3  UNK     1      18.278   2.662  33.515  1.00  0.00     0.102 A 
HETATM   16  O1  UNK     1      18.200   1.838  34.610  1.00  0.00    -0.348 OA
HETATM   17  C5  UNK     1      18.336   2.238  32.181  1.00  0.00     0.102 A 
HETATM   18  C7  UNK     1      17.419   0.662  34.395  1.00  0.00     0.178 C 
HETATM   19  C4  UNK     1      18.253  -0.442  33.765  1.00  0.00     0.053 C 
HETATM   20  C8  UNK     1      19.118   0.069  32.623  1.00  0.00     0.178 C 
HETATM   21  O2  UNK     1      18.376   0.931  31.762  1.00  0.00    -0.348 OA
HETATM   22  C14 UNK     1      18.345   3.188  31.153  1.00  0.00     0.040 A 
HETATM   23  C12 UNK     1      18.352   4.551  31.451  1.00  0.00     0.015 A 
ENDBRANCH   3  13
BRANCH  11  24
HETATM   24  O5  UNK     1      17.490  12.589  34.461  1.00  0.00    -0.361 OA
HETATM   25  H16 UNK     1      16.911  12.795  35.215  1.00  0.00     0.217 HD
ENDBRANCH  11  24
TORSDOF 2
ENDMDL
MODEL 4
REMARK VINA RESULT:      -8.3     15.740     17.482
REMARK  2 active torsions:
REMARK  status: ('A' for Active; 'I' for Inactive)
REMARK    1  A    between atoms: C18_23  and  O5_5 
REMARK    2  A    between atoms: C1_6  and  C2_7 
ROOT
HETATM    1  O3  UNK     1      29.913  -6.688  30.196  1.00  0.00    -0.313 OA
HETATM    2  O4  UNK     1      31.556  -8.930  33.170  1.00  0.00    -0.286 OA
HETATM    3  C2  UNK     1      30.602  -6.853  32.507  1.00  0.00     0.055 A 
HETATM    4  C9  UNK     1      30.064  -6.166  31.475  1.00  0.00     0.065 A 
HETATM    5  C10 UNK     1      31.062  -8.253  32.278  1.00  0.00     0.198 A 
HETATM    6  C11 UNK     1      30.894  -8.784  30.918  1.00  0.00     0.049 A 
HETATM    7  C13 UNK     1      30.326  -7.969  29.945  1.00  0.00     0.092 A 
HETATM    8  C15 UNK     1      31.297 -10.084  30.602  1.00  0.00     0.021 A 
HETATM    9  C16 UNK     1      29.558  -4.753  31.555  1.00  0.00     0.077 C 
HETATM   10  C17 UNK     1      30.155  -8.449  28.645  1.00  0.00     0.074 A 
HETATM   11  C18 UNK     1      30.555  -9.747  28.326  1.00  0.00     0.068 A 
HETATM   12  C19 UNK     1      31.124 -10.563  29.303  1.00  0.00     0.037 A 
ENDROOT
BRANCH   3  13
HETATM   13  C1  UNK     1      30.741  -6.268  33.832  1.00  0.00    -0.017 A 
HETATM   14  C6  UNK     1      29.743  -6.457  34.788  1.00  0.00     0.052 A 
HETATM   15  C3  UNK     1      29.877  -5.911  36.069  1.00  0.00     0.102 A 
HETATM   16  O1  UNK     1      28.852  -6.204  36.934  1.00  0.00    -0.348 OA
HETATM   17  C5  UNK     1      30.995  -5.122  36.372  1.00  0.00     0.102 A 
HETATM   18  C7  UNK     1      29.268  -6.375  38.289  1.00  0.00     0.178 C 
HETATM   19  C4  UNK     1      29.344  -5.040  39.012  1.00  0.00     0.053 C 
HETATM   20  C8  UNK     1      30.030  -3.970  38.176  1.00  0.00     0.178 C 
HETATM   21  O2  UNK     1      31.215  -4.476  37.563  1.00  0.00    -0.348 OA
HETATM   22  C14 UNK     1      32.005  -4.958  35.417  1.00  0.00     0.040 A 
HETATM   23  C12 UNK     1      31.878  -5.528  34.150  1.00  0.00     0.015 A 
ENDBRANCH   3  13
BRANCH  11  24
HETATM   24  O5  UNK     1      30.389 -10.217  27.059  1.00  0.00    -0.361 OA
HETATM   25  H16 UNK     1      29.772 -10.969  27.080  1.00  0.00     0.217 HD
ENDBRANCH  11  24
TORSDOF 2
ENDMDL
MODEL 5
REMARK VINA RESULT:      -8.3      2.043      7.707
REMARK  2 active torsions:
REMARK  status: ('A' for Active; 'I' for Inactive)
REMARK    1  A    between atoms: C18_23  and  O5_5 
REMARK    2  A    between atoms: C1_6  and  C2_7 
ROOT
HETATM    1  O3  UNK     1      17.029   8.240  33.084  1.00  0.00    -0.313 OA
HETATM    2  O4  UNK     1      20.484   6.192  33.744  1.00  0.00    -0.286 OA
HETATM    3  C2  UNK     1      18.218   6.137  33.018  1.00  0.00     0.055 A 
HETATM    4  C9  UNK     1      17.105   6.878  32.821  1.00  0.00     0.065 A 
HETATM    5  C10 UNK     1      19.443   6.804  33.545  1.00  0.00     0.198 A 
HETATM    6  C11 UNK     1      19.339   8.245  33.817  1.00  0.00     0.049 A 
HETATM    7  C13 UNK     1      18.131   8.889  33.571  1.00  0.00     0.092 A 
HETATM    8  C15 UNK     1      20.431   8.960  34.316  1.00  0.00     0.021 A 
HETATM    9  C16 UNK     1      15.801   6.345  32.298  1.00  0.00     0.077 C 
HETATM   10  C17 UNK     1      18.006  10.256  33.821  1.00  0.00     0.074 A 
HETATM   11  C18 UNK     1      19.094  10.975  34.318  1.00  0.00     0.068 A 
HETATM   12  C19 UNK     1      20.305  10.328  34.564  1.00  0.00     0.037 A 
ENDROOT
BRANCH   3  13
HETATM   13  C1  UNK     1      18.256   4.712  32.729  1.00  0.00    -0.017 A 
HETATM   14  C6  UNK     1      18.174   3.785  33.769  1.00  0.00     0.052 A 
HETATM   15  C3  UNK     1      18.194   2.412  33.498  1.00  0.00     0.102 A 
HETATM   16  O1  UNK     1      18.061   1.603  34.599  1.00  0.00    -0.348 OA
HETATM   17  C5  UNK     1      18.355   1.970  32.178  1.00  0.00     0.102 A 
HETATM   18  C7  UNK     1      17.326   0.404  34.351  1.00  0.00     0.178 C 
HETATM   19  C4  UNK     1      18.229  -0.688  33.799  1.00  0.00     0.053 C 
HETATM   20  C8  UNK     1      19.158  -0.172  32.710  1.00  0.00     0.178 C 
HETATM   21  O2  UNK     1      18.457   0.658  31.786  1.00  0.00    -0.348 OA
HETATM   22  C14 UNK     1      18.411   2.903  31.138  1.00  0.00     0.040 A 
HETATM   23  C12 UNK     1      18.363   4.271  31.412  1.00  0.00     0.015 A 
ENDBRANCH   3  13
BRANCH  11  24
HETATM   24  O5  UNK     1      18.973  12.309  34.562  1.00  0.00    -0.361 OA
HETATM   25  H16 UNK     1      19.625  12.565  35.237  1.00  0.00     0.217 HD
ENDBRANCH  11  24
TORSDOF 2
ENDMDL
MODEL 6
REMARK VINA RESULT:      -8.2      1.752      7.797
REMARK  2 active torsions:
REMARK  status: ('A' for Active; 'I' for Inactive)
REMARK    1  A    between atoms: C18_23  and  O5_5 
REMARK    2  A    between atoms: C1_6  and  C2_7 
ROOT
HETATM    1  O3  UNK     1      18.678   6.942  31.231  1.00  0.00    -0.313 OA
HETATM    2  O4  UNK     1      17.525   3.574  33.205  1.00  0.00    -0.286 OA
HETATM    3  C2  UNK     1      18.490   4.533  31.251  1.00  0.00     0.055 A 
HETATM    4  C9  UNK     1      18.850   5.690  30.654  1.00  0.00     0.065 A 
HETATM    5  C10 UNK     1      17.872   4.585  32.608  1.00  0.00     0.198 A 
HETATM    6  C11 UNK     1      17.698   5.920  33.198  1.00  0.00     0.049 A 
HETATM    7  C13 UNK     1      18.112   7.033  32.474  1.00  0.00     0.092 A 
HETATM    8  C15 UNK     1      17.126   6.074  34.464  1.00  0.00     0.021 A 
HETATM    9  C16 UNK     1      19.481   5.793  29.294  1.00  0.00     0.077 C 
HETATM   10  C17 UNK     1      17.958   8.312  33.012  1.00  0.00     0.074 A 
HETATM   11  C18 UNK     1      17.389   8.470  34.276  1.00  0.00     0.068 A 
HETATM   12  C19 UNK     1      16.974   7.353  35.000  1.00  0.00     0.037 A 
ENDROOT
BRANCH   3  13
HETATM   13  C1  UNK     1      18.688   3.241  30.612  1.00  0.00    -0.017 A 
HETATM   14  C6  UNK     1      19.383   2.231  31.278  1.00  0.00     0.052 A 
HETATM   15  C3  UNK     1      19.565   0.981  30.676  1.00  0.00     0.102 A 
HETATM   16  O1  UNK     1      20.223   0.057  31.448  1.00  0.00    -0.348 OA
HETATM   17  C5  UNK     1      19.095   0.765  29.373  1.00  0.00     0.102 A 
HETATM   18  C7  UNK     1      19.762  -1.282  31.268  1.00  0.00     0.178 C 
HETATM   19  C4  UNK     1      20.452  -1.946  30.087  1.00  0.00     0.053 C 
HETATM   20  C8  UNK     1      20.517  -1.035  28.870  1.00  0.00     0.178 C 
HETATM   21  O2  UNK     1      19.265  -0.387  28.646  1.00  0.00    -0.348 OA
HETATM   22  C14 UNK     1      18.377   1.774  28.721  1.00  0.00     0.040 A 
HETATM   23  C12 UNK     1      18.175   3.009  29.338  1.00  0.00     0.015 A 
ENDBRANCH   3  13
BRANCH  11  24
HETATM   24  O5  UNK     1      17.238   9.717  34.802  1.00  0.00    -0.361 OA
HETATM   25  H16 UNK     1      17.465   9.689  35.747  1.00  0.00     0.217 HD
ENDBRANCH  11  24
TORSDOF 2
ENDMDL
MODEL 7
REMARK VINA RESULT:      -8.1     22.955     25.015
REMARK  2 active torsions:
REMARK  status: ('A' for Active; 'I' for Inactive)
REMARK    1  A    between atoms: C18_23  and  O5_5 
REMARK    2  A    between atoms: C1_6  and  C2_7 
ROOT
HETATM    1  O3  UNK     1      11.052   8.228   9.770  1.00  0.00    -0.313 OA
HETATM    2  O4  UNK     1      13.716   7.491   6.781  1.00  0.00    -0.286 OA
HETATM    3  C2  UNK     1      13.275   8.540   8.872  1.00  0.00     0.055 A 
HETATM    4  C9  UNK     1      12.341   8.743   9.828  1.00  0.00     0.065 A 
HETATM    5  C10 UNK     1      12.917   7.716   7.681  1.00  0.00     0.198 A 
HETATM    6  C11 UNK     1      11.548   7.182   7.641  1.00  0.00     0.049 A 
HETATM    7  C13 UNK     1      10.685   7.468   8.692  1.00  0.00     0.092 A 
HETATM    8  C15 UNK     1      11.117   6.400   6.566  1.00  0.00     0.021 A 
HETATM    9  C16 UNK     1      12.556   9.549  11.078  1.00  0.00     0.077 C 
HETATM   10  C17 UNK     1       9.380   6.973   8.678  1.00  0.00     0.074 A 
HETATM   11  C18 UNK     1       8.944   6.192   7.607  1.00  0.00     0.068 A 
HETATM   12  C19 UNK     1       9.812   5.905   6.553  1.00  0.00     0.037 A 
ENDROOT
BRANCH   3  13
HETATM   13  C1  UNK     1      14.614   9.098   8.971  1.00  0.00    -0.017 A 
HETATM   14  C6  UNK     1      14.908  10.321   8.368  1.00  0.00     0.052 A 
HETATM   15  C3  UNK     1      16.190  10.873   8.473  1.00  0.00     0.102 A 
HETATM   16  O1  UNK     1      16.343  12.100   7.878  1.00  0.00    -0.348 OA
HETATM   17  C5  UNK     1      17.197  10.162   9.139  1.00  0.00     0.102 A 
HETATM   18  C7  UNK     1      17.236  12.973   8.570  1.00  0.00     0.178 C 
HETATM   19  C4  UNK     1      18.678  12.721   8.158  1.00  0.00     0.053 C 
HETATM   20  C8  UNK     1      19.012  11.237   8.108  1.00  0.00     0.178 C 
HETATM   21  O2  UNK     1      18.507  10.557   9.256  1.00  0.00    -0.348 OA
HETATM   22  C14 UNK     1      16.889   8.948   9.764  1.00  0.00     0.040 A 
HETATM   23  C12 UNK     1      15.602   8.417   9.679  1.00  0.00     0.015 A 
ENDBRANCH   3  13
BRANCH  11  24
HETATM   24  O5  UNK     1       7.672   5.708   7.592  1.00  0.00    -0.361 OA
HETATM   25  H16 UNK     1       7.385   5.548   8.507  1.00  0.00     0.217 HD
ENDBRANCH  11  24
TORSDOF 2
ENDMDL
MODEL 8
REMARK VINA RESULT:      -8.1      6.847     11.661
REMARK  2 active torsions:
REMARK  status: ('A' for Active; 'I' for Inactive)
REMARK    1  A    between atoms: C18_23  and  O5_5 
REMARK    2  A    between atoms: C1_6  and  C2_7 
ROOT
HETATM    1  O3  UNK     1      19.572  -0.972  34.553  1.00  0.00    -0.313 OA
HETATM    2  O4  UNK     1      18.426  -1.966  38.331  1.00  0.00    -0.286 OA
HETATM    3  C2  UNK     1      19.484  -2.634  36.306  1.00  0.00     0.055 A 
HETATM    4  C9  UNK     1      19.837  -2.237  35.064  1.00  0.00     0.065 A 
HETATM    5  C10 UNK     1      18.771  -1.671  37.194  1.00  0.00     0.198 A 
HETATM    6  C11 UNK     1      18.501  -0.340  36.633  1.00  0.00     0.049 A 
HETATM    7  C13 UNK     1      18.918  -0.060  35.337  1.00  0.00     0.092 A 
HETATM    8  C15 UNK     1      17.836   0.632  37.386  1.00  0.00     0.021 A 
HETATM    9  C16 UNK     1      20.557  -3.095  34.060  1.00  0.00     0.077 C 
HETATM   10  C17 UNK     1      18.673   1.197  34.781  1.00  0.00     0.074 A 
HETATM   11  C18 UNK     1      18.010   2.170  35.528  1.00  0.00     0.068 A 
HETATM   12  C19 UNK     1      17.593   1.889  36.829  1.00  0.00     0.037 A 
ENDROOT
BRANCH   3  13
HETATM   13  C1  UNK     1      19.781  -3.969  36.802  1.00  0.00    -0.017 A 
HETATM   14  C6  UNK     1      18.881  -5.012  36.583  1.00  0.00     0.052 A 
HETATM   15  C3  UNK     1      19.166  -6.303  37.043  1.00  0.00     0.102 A 
HETATM   16  O1  UNK     1      18.226  -7.251  36.727  1.00  0.00    -0.348 OA
HETATM   17  C5  UNK     1      20.338  -6.532  37.777  1.00  0.00     0.102 A 
HETATM   18  C7  UNK     1      18.773  -8.542  36.457  1.00  0.00     0.178 C 
HETATM   19  C4  UNK     1      18.972  -9.332  37.741  1.00  0.00     0.053 C 
HETATM   20  C8  UNK     1      19.606  -8.494  38.841  1.00  0.00     0.178 C 
HETATM   21  O2  UNK     1      20.703  -7.731  38.339  1.00  0.00    -0.348 OA
HETATM   22  C14 UNK     1      21.249  -5.488  37.971  1.00  0.00     0.040 A 
HETATM   23  C12 UNK     1      20.970  -4.209  37.486  1.00  0.00     0.015 A 
ENDBRANCH   3  13
BRANCH  11  24
HETATM   24  O5  UNK     1      17.771   3.397  34.988  1.00  0.00    -0.361 OA
HETATM   25  H16 UNK     1      17.675   3.303  34.025  1.00  0.00     0.217 HD
ENDBRANCH  11  24
TORSDOF 2
ENDMDL
MODEL 9
REMARK VINA RESULT:      -8.1      6.627     11.384
REMARK  2 active torsions:
REMARK  status: ('A' for Active; 'I' for Inactive)
REMARK    1  A    between atoms: C18_23  and  O5_5 
REMARK    2  A    between atoms: C1_6  and  C2_7 
ROOT
HETATM    1  O3  UNK     1      18.358  -0.603  35.677  1.00  0.00    -0.313 OA
HETATM    2  O4  UNK     1      20.516  -3.516  33.825  1.00  0.00    -0.286 OA
HETATM    3  C2  UNK     1      19.478  -2.741  35.821  1.00  0.00     0.055 A 
HETATM    4  C9  UNK     1      18.760  -1.737  36.372  1.00  0.00     0.065 A 
HETATM    5  C10 UNK     1      19.868  -2.642  34.385  1.00  0.00     0.198 A 
HETATM    6  C11 UNK     1      19.434  -1.433  33.670  1.00  0.00     0.049 A 
HETATM    7  C13 UNK     1      18.699  -0.474  34.358  1.00  0.00     0.092 A 
HETATM    8  C15 UNK     1      19.753  -1.246  32.322  1.00  0.00     0.021 A 
HETATM    9  C16 UNK     1      18.296  -1.698  37.802  1.00  0.00     0.077 C 
HETATM   10  C17 UNK     1      18.275   0.683  33.701  1.00  0.00     0.074 A 
HETATM   11  C18 UNK     1      18.590   0.873  32.356  1.00  0.00     0.068 A 
HETATM   12  C19 UNK     1      19.327  -0.090  31.667  1.00  0.00     0.037 A 
ENDROOT
BRANCH   3  13
HETATM   13  C1  UNK     1      19.878  -3.912  36.586  1.00  0.00    -0.017 A 
HETATM   14  C6  UNK     1      19.067  -5.047  36.602  1.00  0.00     0.052 A 
HETATM   15  C3  UNK     1      19.452  -6.183  37.322  1.00  0.00     0.102 A 
HETATM   16  O1  UNK     1      18.594  -7.250  37.222  1.00  0.00    -0.348 OA
HETATM   17  C5  UNK     1      20.632  -6.156  38.077  1.00  0.00     0.102 A 
HETATM   18  C7  UNK     1      19.246  -8.520  37.228  1.00  0.00     0.178 C 
HETATM   19  C4  UNK     1      19.497  -9.001  38.648  1.00  0.00     0.053 C 
HETATM   20  C8  UNK     1      20.052  -7.900  39.540  1.00  0.00     0.178 C 
HETATM   21  O2  UNK     1      21.088  -7.175  38.878  1.00  0.00    -0.348 OA
HETATM   22  C14 UNK     1      21.453  -5.025  38.037  1.00  0.00     0.040 A 
HETATM   23  C12 UNK     1      21.077  -3.905  37.295  1.00  0.00     0.015 A 
ENDBRANCH   3  13
BRANCH  11  24
HETATM   24  O5  UNK     1      18.176   2.001  31.714  1.00  0.00    -0.361 OA
HETATM   25  H16 UNK     1      17.250   1.886  31.442  1.00  0.00     0.217 HD
ENDBRANCH  11  24
TORSDOF 2
ENDMDL
MODEL 10
REMARK VINA RESULT:      -8.0      6.961     11.842
REMARK  2 active torsions:
REMARK  status: ('A' for Active; 'I' for Inactive)
REMARK    1  A    between atoms: C18_23  and  O5_5 
REMARK    2  A    between atoms: C1_6  and  C2_7 
ROOT
HETATM    1  O3  UNK     1      19.559  -0.925  34.606  1.00  0.00    -0.313 OA
HETATM    2  O4  UNK     1      18.535  -2.151  38.350  1.00  0.00    -0.286 OA
HETATM    3  C2  UNK     1      19.555  -2.682  36.266  1.00  0.00     0.055 A 
HETATM    4  C9  UNK     1      19.866  -2.209  35.039  1.00  0.00     0.065 A 
HETATM    5  C10 UNK     1      18.844  -1.786  37.223  1.00  0.00     0.198 A 
HETATM    6  C11 UNK     1      18.528  -0.433  36.744  1.00  0.00     0.049 A 
HETATM    7  C13 UNK     1      18.904  -0.073  35.455  1.00  0.00     0.092 A 
HETATM    8  C15 UNK     1      17.860   0.480  37.566  1.00  0.00     0.021 A 
HETATM    9  C16 UNK     1      20.578  -2.993  33.972  1.00  0.00     0.077 C 
HETATM   10  C17 UNK     1      18.616   1.206  34.975  1.00  0.00     0.074 A 
HETATM   11  C18 UNK     1      17.950   2.121  35.792  1.00  0.00     0.068 A 
HETATM   12  C19 UNK     1      17.574   1.758  37.085  1.00  0.00     0.037 A 
ENDROOT
BRANCH   3  13
HETATM   13  C1  UNK     1      19.896  -4.034  36.679  1.00  0.00    -0.017 A 
HETATM   14  C6  UNK     1      21.105  -4.283  37.329  1.00  0.00     0.052 A 
HETATM   15  C3  UNK     1      21.433  -5.578  37.744  1.00  0.00     0.102 A 
HETATM   16  O1  UNK     1      22.626  -5.688  38.413  1.00  0.00    -0.348 OA
HETATM   17  C5  UNK     1      20.565  -6.639  37.451  1.00  0.00     0.102 A 
HETATM   18  C7  UNK     1      22.621  -6.667  39.451  1.00  0.00     0.178 C 
HETATM   19  C4  UNK     1      22.934  -8.050  38.902  1.00  0.00     0.053 C 
HETATM   20  C8  UNK     1      22.166  -8.349  37.623  1.00  0.00     0.178 C 
HETATM   21  O2  UNK     1      20.798  -7.961  37.742  1.00  0.00    -0.348 OA
HETATM   22  C14 UNK     1      19.343  -6.379  36.822  1.00  0.00     0.040 A 
HETATM   23  C12 UNK     1      19.010  -5.081  36.435  1.00  0.00     0.015 A 
ENDBRANCH   3  13
BRANCH  11  24
HETATM   24  O5  UNK     1      17.669   3.369  35.326  1.00  0.00    -0.361 OA
HETATM   25  H16 UNK     1      18.498   3.870  35.249  1.00  0.00     0.217 HD
ENDBRANCH  11  24
TORSDOF 2
ENDMDL
