MODEL 1
REMARK VINA RESULT:      -9.4      0.000      0.000
REMARK  4 active torsions:
REMARK  status: ('A' for Active; 'I' for Inactive)
REMARK    1  A    between atoms: C1_5  and  N1_4 
REMARK       I    between atoms: C4_8  and  N1_4 
REMARK    2  A    between atoms: C1_5  and  C2_6 
REMARK    3  A    between atoms: C1_5  and  C3_7 
REMARK    4  A    between atoms: C4_8  and  C9_13 
ROOT
HETATM    1  O2  UNK     1      18.279   2.259  31.453  1.00  0.00    -0.267 OA
HETATM    2  N1  UNK     1      17.910   3.810  33.154  1.00  0.00    -0.344 N 
HETATM    3  C4  UNK     1      18.125   2.545  32.639  1.00  0.00     0.258 C 
HETATM    4  H2  UNK     1      17.745   3.929  34.149  1.00  0.00     0.163 HD
ENDROOT
BRANCH   2   5
HETATM    5  C1  UNK     1      17.839   4.994  32.328  1.00  0.00     0.151 C 
BRANCH   5   6
HETATM    6  C2  UNK     1      19.206   5.440  31.843  1.00  0.00    -0.031 A 
HETATM    7  C5  UNK     1      19.455   5.481  30.484  1.00  0.00     0.009 A 
HETATM    8  C13 UNK     1      20.712   5.891  30.037  1.00  0.00     0.001 A 
HETATM    9  C18 UNK     1      21.695   6.251  30.957  1.00  0.00     0.000 A 
HETATM   10  C15 UNK     1      21.423   6.202  32.325  1.00  0.00     0.001 A 
HETATM   11  C7  UNK     1      20.166   5.793  32.771  1.00  0.00     0.009 A 
ENDBRANCH   5   6
BRANCH   5  12
HETATM   12  C3  UNK     1      17.068   6.118  32.996  1.00  0.00    -0.031 A 
HETATM   13  C6  UNK     1      16.116   6.805  32.267  1.00  0.00     0.009 A 
HETATM   14  C14 UNK     1      15.408   7.839  32.881  1.00  0.00     0.001 A 
HETATM   15  C19 UNK     1      15.664   8.164  34.213  1.00  0.00     0.000 A 
HETATM   16  C16 UNK     1      16.629   7.458  34.931  1.00  0.00     0.001 A 
HETATM   17  C8  UNK     1      17.337   6.424  34.317  1.00  0.00     0.009 A 
ENDBRANCH   5  12
ENDBRANCH   2   5
BRANCH   3  18
HETATM   18  C9  UNK     1      18.160   1.505  33.676  1.00  0.00     0.108 A 
HETATM   19  C11 UNK     1      17.941   1.914  34.931  1.00  0.00     0.037 A 
HETATM   20  C10 UNK     1      17.956   0.958  36.028  1.00  0.00    -0.001 A 
HETATM   21  C12 UNK     1      18.199  -0.383  35.747  1.00  0.00     0.089 A 
HETATM   22  C20 UNK     1      17.733   1.339  37.352  1.00  0.00     0.014 A 
HETATM   23  C21 UNK     1      18.227  -1.350  36.750  1.00  0.00     0.038 A 
HETATM   24  O1  UNK     1      18.429  -0.808  34.423  1.00  0.00    -0.274 OA
HETATM   25  C23 UNK     1      18.003  -0.960  38.069  1.00  0.00     0.003 A 
HETATM   26  C22 UNK     1      17.756   0.382  38.369  1.00  0.00     0.001 A 
HETATM   27  C17 UNK     1      18.422   0.084  33.354  1.00  0.00     0.304 A 
HETATM   28  O3  UNK     1      18.622  -0.294  32.205  1.00  0.00    -0.259 OA
ENDBRANCH   3  18
TORSDOF 4
ENDMDL
MODEL 2
REMARK VINA RESULT:      -9.4      5.848      9.142
REMARK  4 active torsions:
REMARK  status: ('A' for Active; 'I' for Inactive)
REMARK    1  A    between atoms: C1_5  and  N1_4 
REMARK       I    between atoms: C4_8  and  N1_4 
REMARK    2  A    between atoms: C1_5  and  C2_6 
REMARK    3  A    between atoms: C1_5  and  C3_7 
REMARK    4  A    between atoms: C4_8  and  C9_13 
ROOT
HETATM    1  O2  UNK     1      21.275  -3.978  37.279  1.00  0.00    -0.267 OA
HETATM    2  N1  UNK     1      19.693  -3.758  35.580  1.00  0.00    -0.344 N 
HETATM    3  C4  UNK     1      20.385  -4.438  36.566  1.00  0.00     0.258 C 
HETATM    4  H2  UNK     1      19.009  -4.249  35.013  1.00  0.00     0.163 HD
ENDROOT
BRANCH   2   5
HETATM    5  C1  UNK     1      19.944  -2.371  35.258  1.00  0.00     0.151 C 
BRANCH   5   6
HETATM    6  C2  UNK     1      19.022  -1.430  36.011  1.00  0.00    -0.031 A 
HETATM    7  C5  UNK     1      19.191  -0.066  35.867  1.00  0.00     0.009 A 
HETATM    8  C13 UNK     1      18.343   0.799  36.559  1.00  0.00     0.001 A 
HETATM    9  C18 UNK     1      17.344   0.284  37.383  1.00  0.00     0.000 A 
HETATM   10  C15 UNK     1      17.190  -1.096  37.516  1.00  0.00     0.001 A 
HETATM   11  C7  UNK     1      18.038  -1.961  36.823  1.00  0.00     0.009 A 
ENDBRANCH   5   6
BRANCH   5  12
HETATM   12  C3  UNK     1      19.933  -2.115  33.761  1.00  0.00    -0.031 A 
HETATM   13  C6  UNK     1      20.911  -2.693  32.975  1.00  0.00     0.009 A 
HETATM   14  C14 UNK     1      20.901  -2.457  31.600  1.00  0.00     0.001 A 
HETATM   15  C19 UNK     1      19.913  -1.650  31.038  1.00  0.00     0.000 A 
HETATM   16  C16 UNK     1      18.934  -1.076  31.850  1.00  0.00     0.001 A 
HETATM   17  C8  UNK     1      18.945  -1.312  33.225  1.00  0.00     0.009 A 
ENDBRANCH   5  12
ENDBRANCH   2   5
BRANCH   3  18
HETATM   18  C9  UNK     1      19.950  -5.833  36.709  1.00  0.00     0.108 A 
HETATM   19  C11 UNK     1      20.922  -6.749  36.799  1.00  0.00     0.037 A 
HETATM   20  C10 UNK     1      20.591  -8.158  36.943  1.00  0.00    -0.001 A 
HETATM   21  C12 UNK     1      19.252  -8.533  36.986  1.00  0.00     0.089 A 
HETATM   22  C20 UNK     1      21.571  -9.148  37.041  1.00  0.00     0.014 A 
HETATM   23  C21 UNK     1      18.866  -9.865  37.122  1.00  0.00     0.038 A 
HETATM   24  O1  UNK     1      18.233  -7.564  36.890  1.00  0.00    -0.274 OA
HETATM   25  C23 UNK     1      19.851 -10.846  37.219  1.00  0.00     0.003 A 
HETATM   26  C22 UNK     1      21.201 -10.488  37.179  1.00  0.00     0.001 A 
HETATM   27  C17 UNK     1      18.519  -6.209  36.751  1.00  0.00     0.304 A 
HETATM   28  O3  UNK     1      17.626  -5.372  36.669  1.00  0.00    -0.259 OA
ENDBRANCH   3  18
TORSDOF 4
ENDMDL
MODEL 3
REMARK VINA RESULT:      -9.2      5.511      8.384
REMARK  4 active torsions:
REMARK  status: ('A' for Active; 'I' for Inactive)
REMARK    1  A    between atoms: C1_5  and  N1_4 
REMARK       I    between atoms: C4_8  and  N1_4 
REMARK    2  A    between atoms: C1_5  and  C2_6 
REMARK    3  A    between atoms: C1_5  and  C3_7 
REMARK    4  A    between atoms: C4_8  and  C9_13 
ROOT
HETATM    1  O2  UNK     1      20.890  -2.834  37.205  1.00  0.00    -0.267 OA
HETATM    2  N1  UNK     1      19.517  -3.074  35.335  1.00  0.00    -0.344 N 
HETATM    3  C4  UNK     1      20.233  -3.526  36.428  1.00  0.00     0.258 C 
HETATM    4  H2  UNK     1      19.049  -3.740  34.727  1.00  0.00     0.163 HD
ENDROOT
BRANCH   2   5
HETATM    5  C1  UNK     1      19.453  -1.680  34.958  1.00  0.00     0.151 C 
BRANCH   5   6
HETATM    6  C2  UNK     1      18.194  -1.004  35.470  1.00  0.00    -0.031 A 
HETATM    7  C5  UNK     1      17.046  -1.051  34.702  1.00  0.00     0.009 A 
HETATM    8  C13 UNK     1      15.889  -0.429  35.173  1.00  0.00     0.001 A 
HETATM    9  C18 UNK     1      15.902   0.228  36.402  1.00  0.00     0.000 A 
HETATM   10  C15 UNK     1      17.072   0.265  37.162  1.00  0.00     0.001 A 
HETATM   11  C7  UNK     1      18.229  -0.357  36.691  1.00  0.00     0.009 A 
ENDBRANCH   5   6
BRANCH   5  12
HETATM   12  C3  UNK     1      19.654  -1.474  33.468  1.00  0.00    -0.031 A 
HETATM   13  C6  UNK     1      19.050  -0.395  32.852  1.00  0.00     0.009 A 
HETATM   14  C14 UNK     1      19.234  -0.207  31.482  1.00  0.00     0.001 A 
HETATM   15  C19 UNK     1      20.021  -1.100  30.755  1.00  0.00     0.000 A 
HETATM   16  C16 UNK     1      20.622  -2.183  31.396  1.00  0.00     0.001 A 
HETATM   17  C8  UNK     1      20.437  -2.371  32.767  1.00  0.00     0.009 A 
ENDBRANCH   5  12
ENDBRANCH   2   5
BRANCH   3  18
HETATM   18  C9  UNK     1      20.144  -4.981  36.607  1.00  0.00     0.108 A 
HETATM   19  C11 UNK     1      20.040  -5.416  37.867  1.00  0.00     0.037 A 
HETATM   20  C10 UNK     1      19.946  -6.842  38.146  1.00  0.00    -0.001 A 
HETATM   21  C12 UNK     1      19.965  -7.737  37.081  1.00  0.00     0.089 A 
HETATM   22  C20 UNK     1      19.835  -7.342  39.445  1.00  0.00     0.014 A 
HETATM   23  C21 UNK     1      19.879  -9.114  37.279  1.00  0.00     0.038 A 
HETATM   24  O1  UNK     1      20.075  -7.272  35.756  1.00  0.00    -0.274 OA
HETATM   25  C23 UNK     1      19.769  -9.604  38.578  1.00  0.00     0.003 A 
HETATM   26  C22 UNK     1      19.747  -8.719  39.660  1.00  0.00     0.001 A 
HETATM   27  C17 UNK     1      20.168  -5.916  35.459  1.00  0.00     0.304 A 
HETATM   28  O3  UNK     1      20.263  -5.519  34.302  1.00  0.00    -0.259 OA
ENDBRANCH   3  18
TORSDOF 4
ENDMDL
MODEL 4
REMARK VINA RESULT:      -9.1     12.264     15.060
REMARK  4 active torsions:
REMARK  status: ('A' for Active; 'I' for Inactive)
REMARK    1  A    between atoms: C1_5  and  N1_4 
REMARK       I    between atoms: C4_8  and  N1_4 
REMARK    2  A    between atoms: C1_5  and  C2_6 
REMARK    3  A    between atoms: C1_5  and  C3_7 
REMARK    4  A    between atoms: C4_8  and  C9_13 
ROOT
HETATM    1  O2  UNK     1      26.487  -8.978  39.481  1.00  0.00    -0.267 OA
HETATM    2  N1  UNK     1      26.829  -7.454  37.749  1.00  0.00    -0.344 N 
HETATM    3  C4  UNK     1      26.091  -8.083  38.736  1.00  0.00     0.258 C 
HETATM    4  H2  UNK     1      26.387  -6.759  37.155  1.00  0.00     0.163 HD
ENDROOT
BRANCH   2   5
HETATM    5  C1  UNK     1      28.206  -7.787  37.464  1.00  0.00     0.151 C 
BRANCH   5   6
HETATM    6  C2  UNK     1      29.164  -6.695  37.903  1.00  0.00    -0.031 A 
HETATM    7  C5  UNK     1      30.523  -6.947  37.885  1.00  0.00     0.009 A 
HETATM    8  C13 UNK     1      31.404  -5.943  38.289  1.00  0.00     0.001 A 
HETATM    9  C18 UNK     1      30.909  -4.707  38.704  1.00  0.00     0.000 A 
HETATM   10  C15 UNK     1      29.534  -4.474  38.715  1.00  0.00     0.001 A 
HETATM   11  C7  UNK     1      28.653  -5.477  38.311  1.00  0.00     0.009 A 
ENDBRANCH   5   6
BRANCH   5  12
HETATM   12  C3  UNK     1      28.414  -8.190  36.015  1.00  0.00    -0.031 A 
HETATM   13  C6  UNK     1      28.732  -9.502  35.723  1.00  0.00     0.009 A 
HETATM   14  C14 UNK     1      28.924  -9.872  34.391  1.00  0.00     0.001 A 
HETATM   15  C19 UNK     1      28.792  -8.922  33.378  1.00  0.00     0.000 A 
HETATM   16  C16 UNK     1      28.471  -7.603  33.695  1.00  0.00     0.001 A 
HETATM   17  C8  UNK     1      28.279  -7.233  35.027  1.00  0.00     0.009 A 
ENDBRANCH   5  12
ENDBRANCH   2   5
BRANCH   3  18
HETATM   18  C9  UNK     1      24.719  -7.570  38.837  1.00  0.00     0.108 A 
HETATM   19  C11 UNK     1      23.753  -8.487  38.962  1.00  0.00     0.037 A 
HETATM   20  C10 UNK     1      22.361  -8.077  39.069  1.00  0.00    -0.001 A 
HETATM   21  C12 UNK     1      22.056  -6.720  39.041  1.00  0.00     0.089 A 
HETATM   22  C20 UNK     1      21.320  -8.999  39.201  1.00  0.00     0.014 A 
HETATM   23  C21 UNK     1      20.744  -6.260  39.139  1.00  0.00     0.038 A 
HETATM   24  O1  UNK     1      23.078  -5.759  38.910  1.00  0.00    -0.274 OA
HETATM   25  C23 UNK     1      19.713  -7.187  39.269  1.00  0.00     0.003 A 
HETATM   26  C22 UNK     1      20.000  -8.554  39.301  1.00  0.00     0.001 A 
HETATM   27  C17 UNK     1      24.418  -6.121  38.804  1.00  0.00     0.304 A 
HETATM   28  O3  UNK     1      25.301  -5.278  38.690  1.00  0.00    -0.259 OA
ENDBRANCH   3  18
TORSDOF 4
ENDMDL
MODEL 5
REMARK VINA RESULT:      -8.8     14.808     16.809
REMARK  4 active torsions:
REMARK  status: ('A' for Active; 'I' for Inactive)
REMARK    1  A    between atoms: C1_5  and  N1_4 
REMARK       I    between atoms: C4_8  and  N1_4 
REMARK    2  A    between atoms: C1_5  and  C2_6 
REMARK    3  A    between atoms: C1_5  and  C3_7 
REMARK    4  A    between atoms: C4_8  and  C9_13 
ROOT
HETATM    1  O2  UNK     1      30.648  -4.536  32.356  1.00  0.00    -0.267 OA
HETATM    2  N1  UNK     1      30.419  -6.097  34.073  1.00  0.00    -0.344 N 
HETATM    3  C4  UNK     1      30.264  -5.623  32.783  1.00  0.00     0.258 C 
HETATM    4  H2  UNK     1      30.017  -6.993  34.333  1.00  0.00     0.163 HD
ENDROOT
BRANCH   2   5
HETATM    5  C1  UNK     1      31.077  -5.342  35.115  1.00  0.00     0.151 C 
BRANCH   5   6
HETATM    6  C2  UNK     1      32.564  -5.637  35.187  1.00  0.00    -0.031 A 
HETATM    7  C5  UNK     1      32.980  -6.921  35.486  1.00  0.00     0.009 A 
HETATM    8  C13 UNK     1      34.347  -7.192  35.552  1.00  0.00     0.001 A 
HETATM    9  C18 UNK     1      35.271  -6.175  35.320  1.00  0.00     0.000 A 
HETATM   10  C15 UNK     1      34.830  -4.885  35.021  1.00  0.00     0.001 A 
HETATM   11  C7  UNK     1      33.463  -4.615  34.954  1.00  0.00     0.009 A 
ENDBRANCH   5   6
BRANCH   5  12
HETATM   12  C3  UNK     1      30.391  -5.496  36.460  1.00  0.00    -0.031 A 
HETATM   13  C6  UNK     1      29.506  -6.540  36.647  1.00  0.00     0.009 A 
HETATM   14  C14 UNK     1      28.876  -6.681  37.884  1.00  0.00     0.001 A 
HETATM   15  C19 UNK     1      29.144  -5.775  38.910  1.00  0.00     0.000 A 
HETATM   16  C16 UNK     1      30.041  -4.728  38.700  1.00  0.00     0.001 A 
HETATM   17  C8  UNK     1      30.671  -4.587  37.463  1.00  0.00     0.009 A 
ENDBRANCH   5  12
ENDBRANCH   2   5
BRANCH   3  18
HETATM   18  C9  UNK     1      29.566  -6.573  31.906  1.00  0.00     0.108 A 
HETATM   19  C11 UNK     1      30.311  -7.165  30.966  1.00  0.00     0.037 A 
HETATM   20  C10 UNK     1      29.709  -8.122  30.048  1.00  0.00    -0.001 A 
HETATM   21  C12 UNK     1      28.353  -8.407  30.168  1.00  0.00     0.089 A 
HETATM   22  C20 UNK     1      30.447  -8.765  29.052  1.00  0.00     0.014 A 
HETATM   23  C21 UNK     1      27.715  -9.313  29.323  1.00  0.00     0.038 A 
HETATM   24  O1  UNK     1      27.574  -7.779  31.161  1.00  0.00    -0.274 OA
HETATM   25  C23 UNK     1      28.459  -9.949  28.332  1.00  0.00     0.003 A 
HETATM   26  C22 UNK     1      29.823  -9.676  28.197  1.00  0.00     0.001 A 
HETATM   27  C17 UNK     1      28.121  -6.860  32.051  1.00  0.00     0.304 A 
HETATM   28  O3  UNK     1      27.436  -6.318  32.912  1.00  0.00    -0.259 OA
ENDBRANCH   3  18
TORSDOF 4
ENDMDL
MODEL 6
REMARK VINA RESULT:      -8.8      2.621      7.092
REMARK  4 active torsions:
REMARK  status: ('A' for Active; 'I' for Inactive)
REMARK    1  A    between atoms: C1_5  and  N1_4 
REMARK       I    between atoms: C4_8  and  N1_4 
REMARK    2  A    between atoms: C1_5  and  C2_6 
REMARK    3  A    between atoms: C1_5  and  C3_7 
REMARK    4  A    between atoms: C4_8  and  C9_13 
ROOT
HETATM    1  O2  UNK     1      19.642   5.840  32.882  1.00  0.00    -0.267 OA
HETATM    2  N1  UNK     1      17.869   4.363  32.548  1.00  0.00    -0.344 N 
HETATM    3  C4  UNK     1      18.450   5.611  32.687  1.00  0.00     0.258 C 
HETATM    4  H2  UNK     1      16.862   4.285  32.440  1.00  0.00     0.163 HD
ENDROOT
BRANCH   2   5
HETATM    5  C1  UNK     1      18.623   3.132  32.618  1.00  0.00     0.151 C 
BRANCH   5   6
HETATM    6  C2  UNK     1      18.620   2.380  31.300  1.00  0.00    -0.031 A 
HETATM    7  C5  UNK     1      17.875   2.875  30.246  1.00  0.00     0.009 A 
HETATM    8  C13 UNK     1      17.872   2.184  29.034  1.00  0.00     0.001 A 
HETATM    9  C18 UNK     1      18.613   1.011  28.900  1.00  0.00     0.000 A 
HETATM   10  C15 UNK     1      19.358   0.528  29.976  1.00  0.00     0.001 A 
HETATM   11  C7  UNK     1      19.360   1.219  31.188  1.00  0.00     0.009 A 
ENDBRANCH   5   6
BRANCH   5  12
HETATM   12  C3  UNK     1      18.194   2.258  33.783  1.00  0.00    -0.031 A 
HETATM   13  C6  UNK     1      18.541   2.633  35.067  1.00  0.00     0.009 A 
HETATM   14  C14 UNK     1      18.147   1.829  36.137  1.00  0.00     0.001 A 
HETATM   15  C19 UNK     1      17.413   0.667  35.902  1.00  0.00     0.000 A 
HETATM   16  C16 UNK     1      17.073   0.307  34.598  1.00  0.00     0.001 A 
HETATM   17  C8  UNK     1      17.467   1.111  33.528  1.00  0.00     0.009 A 
ENDBRANCH   5  12
ENDBRANCH   2   5
BRANCH   3  18
HETATM   18  C9  UNK     1      17.480   6.708  32.575  1.00  0.00     0.108 A 
HETATM   19  C11 UNK     1      16.984   7.178  33.725  1.00  0.00     0.037 A 
HETATM   20  C10 UNK     1      16.016   8.265  33.718  1.00  0.00    -0.001 A 
HETATM   21  C12 UNK     1      15.620   8.803  32.497  1.00  0.00     0.089 A 
HETATM   22  C20 UNK     1      15.472   8.787  34.893  1.00  0.00     0.014 A 
HETATM   23  C21 UNK     1      14.697   9.844  32.419  1.00  0.00     0.038 A 
HETATM   24  O1  UNK     1      16.146   8.303  31.289  1.00  0.00    -0.274 OA
HETATM   25  C23 UNK     1      14.160  10.359  33.597  1.00  0.00     0.003 A 
HETATM   26  C22 UNK     1      14.547   9.831  34.832  1.00  0.00     0.001 A 
HETATM   27  C17 UNK     1      17.072   7.264  31.266  1.00  0.00     0.304 A 
HETATM   28  O3  UNK     1      17.525   6.836  30.209  1.00  0.00    -0.259 OA
ENDBRANCH   3  18
TORSDOF 4
ENDMDL
MODEL 7
REMARK VINA RESULT:      -8.7     15.207     17.079
REMARK  4 active torsions:
REMARK  status: ('A' for Active; 'I' for Inactive)
REMARK    1  A    between atoms: C1_5  and  N1_4 
REMARK       I    between atoms: C4_8  and  N1_4 
REMARK    2  A    between atoms: C1_5  and  C2_6 
REMARK    3  A    between atoms: C1_5  and  C3_7 
REMARK    4  A    between atoms: C4_8  and  C9_13 
ROOT
HETATM    1  O2  UNK     1      28.112  -6.149  34.003  1.00  0.00    -0.267 OA
HETATM    2  N1  UNK     1      28.949  -7.840  35.372  1.00  0.00    -0.344 N 
HETATM    3  C4  UNK     1      28.653  -7.241  34.161  1.00  0.00     0.258 C 
HETATM    4  H2  UNK     1      29.354  -8.771  35.389  1.00  0.00     0.163 HD
ENDROOT
BRANCH   2   5
HETATM    5  C1  UNK     1      28.645  -7.230  36.647  1.00  0.00     0.151 C 
BRANCH   5   6
HETATM    6  C2  UNK     1      29.838  -6.496  37.232  1.00  0.00    -0.031 A 
HETATM    7  C5  UNK     1      29.695  -5.173  37.606  1.00  0.00     0.009 A 
HETATM    8  C13 UNK     1      30.791  -4.499  38.144  1.00  0.00     0.001 A 
HETATM    9  C18 UNK     1      32.009  -5.159  38.297  1.00  0.00     0.000 A 
HETATM   10  C15 UNK     1      32.132  -6.494  37.913  1.00  0.00     0.001 A 
HETATM   11  C7  UNK     1      31.036  -7.169  37.375  1.00  0.00     0.009 A 
ENDBRANCH   5   6
BRANCH   5  12
HETATM   12  C3  UNK     1      28.034  -8.214  37.627  1.00  0.00    -0.031 A 
HETATM   13  C6  UNK     1      27.446  -9.367  37.143  1.00  0.00     0.009 A 
HETATM   14  C14 UNK     1      26.885 -10.271  38.045  1.00  0.00     0.001 A 
HETATM   15  C19 UNK     1      26.923 -10.006  39.414  1.00  0.00     0.000 A 
HETATM   16  C16 UNK     1      27.522  -8.837  39.881  1.00  0.00     0.001 A 
HETATM   17  C8  UNK     1      28.084  -7.932  38.979  1.00  0.00     0.009 A 
ENDBRANCH   5  12
ENDBRANCH   2   5
BRANCH   3  18
HETATM   18  C9  UNK     1      29.061  -8.054  33.008  1.00  0.00     0.108 A 
HETATM   19  C11 UNK     1      28.193  -8.115  31.992  1.00  0.00     0.037 A 
HETATM   20  C10 UNK     1      28.507  -8.895  30.804  1.00  0.00    -0.001 A 
HETATM   21  C12 UNK     1      29.721  -9.573  30.747  1.00  0.00     0.089 A 
HETATM   22  C20 UNK     1      27.633  -8.987  29.719  1.00  0.00     0.014 A 
HETATM   23  C21 UNK     1      30.084 -10.337  29.640  1.00  0.00     0.038 A 
HETATM   24  O1  UNK     1      30.631  -9.505  31.821  1.00  0.00    -0.274 OA
HETATM   25  C23 UNK     1      29.205 -10.423  28.562  1.00  0.00     0.003 A 
HETATM   26  C22 UNK     1      27.981  -9.749  28.602  1.00  0.00     0.001 A 
HETATM   27  C17 UNK     1      30.357  -8.767  32.969  1.00  0.00     0.304 A 
HETATM   28  O3  UNK     1      31.155  -8.713  33.899  1.00  0.00    -0.259 OA
ENDBRANCH   3  18
TORSDOF 4
ENDMDL
MODEL 8
REMARK VINA RESULT:      -8.7      9.667     14.155
REMARK  4 active torsions:
REMARK  status: ('A' for Active; 'I' for Inactive)
REMARK    1  A    between atoms: C1_5  and  N1_4 
REMARK       I    between atoms: C4_8  and  N1_4 
REMARK    2  A    between atoms: C1_5  and  C2_6 
REMARK    3  A    between atoms: C1_5  and  C3_7 
REMARK    4  A    between atoms: C4_8  and  C9_13 
ROOT
HETATM    1  O2  UNK     1      23.265  -8.572  40.255  1.00  0.00    -0.267 OA
HETATM    2  N1  UNK     1      22.734  -7.154  38.482  1.00  0.00    -0.344 N 
HETATM    3  C4  UNK     1      23.591  -7.835  39.327  1.00  0.00     0.258 C 
HETATM    4  H2  UNK     1      23.111  -6.530  37.775  1.00  0.00     0.163 HD
ENDROOT
BRANCH   2   5
HETATM    5  C1  UNK     1      21.295  -7.231  38.593  1.00  0.00     0.151 C 
BRANCH   5   6
HETATM    6  C2  UNK     1      20.759  -8.596  38.203  1.00  0.00    -0.031 A 
HETATM    7  C5  UNK     1      21.183  -9.171  37.019  1.00  0.00     0.009 A 
HETATM    8  C13 UNK     1      20.691 -10.426  36.661  1.00  0.00     0.001 A 
HETATM    9  C18 UNK     1      19.783 -11.082  37.491  1.00  0.00     0.000 A 
HETATM   10  C15 UNK     1      19.368 -10.484  38.681  1.00  0.00     0.001 A 
HETATM   11  C7  UNK     1      19.860  -9.229  39.040  1.00  0.00     0.009 A 
ENDBRANCH   5   6
BRANCH   5  12
HETATM   12  C3  UNK     1      20.597  -6.104  37.853  1.00  0.00    -0.031 A 
HETATM   13  C6  UNK     1      19.370  -6.344  37.266  1.00  0.00     0.009 A 
HETATM   14  C14 UNK     1      18.730  -5.308  36.585  1.00  0.00     0.001 A 
HETATM   15  C19 UNK     1      19.329  -4.051  36.507  1.00  0.00     0.000 A 
HETATM   16  C16 UNK     1      20.568  -3.829  37.108  1.00  0.00     0.001 A 
HETATM   17  C8  UNK     1      21.208  -4.865  37.788  1.00  0.00     0.009 A 
ENDBRANCH   5  12
ENDBRANCH   2   5
BRANCH   3  18
HETATM   18  C9  UNK     1      25.007  -7.601  39.012  1.00  0.00     0.108 A 
HETATM   19  C11 UNK     1      25.800  -8.678  39.019  1.00  0.00     0.037 A 
HETATM   20  C10 UNK     1      27.218  -8.548  38.720  1.00  0.00    -0.001 A 
HETATM   21  C12 UNK     1      27.730  -7.287  38.428  1.00  0.00     0.089 A 
HETATM   22  C20 UNK     1      28.083  -9.644  38.714  1.00  0.00     0.014 A 
HETATM   23  C21 UNK     1      29.078  -7.093  38.133  1.00  0.00     0.038 A 
HETATM   24  O1  UNK     1      26.889  -6.156  38.423  1.00  0.00    -0.274 OA
HETATM   25  C23 UNK     1      29.933  -8.192  38.130  1.00  0.00     0.003 A 
HETATM   26  C22 UNK     1      29.437  -9.465  38.420  1.00  0.00     0.001 A 
HETATM   27  C17 UNK     1      25.530  -6.250  38.706  1.00  0.00     0.304 A 
HETATM   28  O3  UNK     1      24.805  -5.261  38.699  1.00  0.00    -0.259 OA
ENDBRANCH   3  18
TORSDOF 4
ENDMDL
MODEL 9
REMARK VINA RESULT:      -8.7     14.921     17.564
REMARK  4 active torsions:
REMARK  status: ('A' for Active; 'I' for Inactive)
REMARK    1  A    between atoms: C1_5  and  N1_4 
REMARK       I    between atoms: C4_8  and  N1_4 
REMARK    2  A    between atoms: C1_5  and  C2_6 
REMARK    3  A    between atoms: C1_5  and  C3_7 
REMARK    4  A    between atoms: C4_8  and  C9_13 
ROOT
HETATM    1  O2  UNK     1      30.802  -9.604  35.182  1.00  0.00    -0.267 OA
HETATM    2  N1  UNK     1      30.686  -7.278  35.062  1.00  0.00    -0.344 N 
HETATM    3  C4  UNK     1      30.451  -8.568  34.621  1.00  0.00     0.258 C 
HETATM    4  H2  UNK     1      30.395  -6.489  34.492  1.00  0.00     0.163 HD
ENDROOT
BRANCH   2   5
HETATM    5  C1  UNK     1      31.401  -6.982  36.282  1.00  0.00     0.151 C 
BRANCH   5   6
HETATM    6  C2  UNK     1      30.588  -6.121  37.231  1.00  0.00    -0.031 A 
HETATM    7  C5  UNK     1      30.692  -4.745  37.146  1.00  0.00     0.009 A 
HETATM    8  C13 UNK     1      29.944  -3.954  38.019  1.00  0.00     0.001 A 
HETATM    9  C18 UNK     1      29.107  -4.553  38.959  1.00  0.00     0.000 A 
HETATM   10  C15 UNK     1      29.017  -5.943  39.028  1.00  0.00     0.001 A 
HETATM   11  C7  UNK     1      29.765  -6.735  38.156  1.00  0.00     0.009 A 
ENDBRANCH   5   6
BRANCH   5  12
HETATM   12  C3  UNK     1      32.781  -6.406  36.018  1.00  0.00    -0.031 A 
HETATM   13  C6  UNK     1      33.747  -6.500  37.001  1.00  0.00     0.009 A 
HETATM   14  C14 UNK     1      35.014  -5.970  36.758  1.00  0.00     0.001 A 
HETATM   15  C19 UNK     1      35.291  -5.357  35.536  1.00  0.00     0.000 A 
HETATM   16  C16 UNK     1      34.302  -5.274  34.557  1.00  0.00     0.001 A 
HETATM   17  C8  UNK     1      33.034  -5.804  34.800  1.00  0.00     0.009 A 
ENDBRANCH   5  12
ENDBRANCH   2   5
BRANCH   3  18
HETATM   18  C9  UNK     1      29.703  -8.612  33.358  1.00  0.00     0.108 A 
HETATM   19  C11 UNK     1      30.176  -9.439  32.419  1.00  0.00     0.037 A 
HETATM   20  C10 UNK     1      29.503  -9.552  31.134  1.00  0.00    -0.001 A 
HETATM   21  C12 UNK     1      28.364  -8.788  30.902  1.00  0.00     0.089 A 
HETATM   22  C20 UNK     1      29.960 -10.402  30.125  1.00  0.00     0.014 A 
HETATM   23  C21 UNK     1      27.672  -8.848  29.694  1.00  0.00     0.038 A 
HETATM   24  O1  UNK     1      27.870  -7.918  31.895  1.00  0.00    -0.274 OA
HETATM   25  C23 UNK     1      28.136  -9.699  28.693  1.00  0.00     0.003 A 
HETATM   26  C22 UNK     1      29.278 -10.475  28.908  1.00  0.00     0.001 A 
HETATM   27  C17 UNK     1      28.493  -7.788  33.133  1.00  0.00     0.304 A 
HETATM   28  O3  UNK     1      28.057  -7.029  33.992  1.00  0.00    -0.259 OA
ENDBRANCH   3  18
TORSDOF 4
ENDMDL
MODEL 10
REMARK VINA RESULT:      -8.7     12.809     15.740
REMARK  4 active torsions:
REMARK  status: ('A' for Active; 'I' for Inactive)
REMARK    1  A    between atoms: C1_5  and  N1_4 
REMARK       I    between atoms: C4_8  and  N1_4 
REMARK    2  A    between atoms: C1_5  and  C2_6 
REMARK    3  A    between atoms: C1_5  and  C3_7 
REMARK    4  A    between atoms: C4_8  and  C9_13 
ROOT
HETATM    1  O2  UNK     1      26.816  -9.113  39.788  1.00  0.00    -0.267 OA
HETATM    2  N1  UNK     1      27.352  -8.099  37.758  1.00  0.00    -0.344 N 
HETATM    3  C4  UNK     1      26.495  -8.635  38.701  1.00  0.00     0.258 C 
HETATM    4  H2  UNK     1      26.985  -7.776  36.867  1.00  0.00     0.163 HD
ENDROOT
BRANCH   2   5
HETATM    5  C1  UNK     1      28.784  -8.033  37.943  1.00  0.00     0.151 C 
BRANCH   5   6
HETATM    6  C2  UNK     1      29.297  -6.605  37.964  1.00  0.00    -0.031 A 
HETATM    7  C5  UNK     1      30.028  -6.138  36.888  1.00  0.00     0.009 A 
HETATM    8  C13 UNK     1      30.499  -4.825  36.908  1.00  0.00     0.001 A 
HETATM    9  C18 UNK     1      30.231  -4.004  38.002  1.00  0.00     0.000 A 
HETATM   10  C15 UNK     1      29.491  -4.495  39.078  1.00  0.00     0.001 A 
HETATM   11  C7  UNK     1      29.020  -5.808  39.058  1.00  0.00     0.009 A 
ENDBRANCH   5   6
BRANCH   5  12
HETATM   12  C3  UNK     1      29.535  -8.902  36.950  1.00  0.00    -0.031 A 
HETATM   13  C6  UNK     1      28.942  -9.204  35.739  1.00  0.00     0.009 A 
HETATM   14  C14 UNK     1      29.633 -10.002  34.827  1.00  0.00     0.001 A 
HETATM   15  C19 UNK     1      30.904 -10.482  35.143  1.00  0.00     0.000 A 
HETATM   16  C16 UNK     1      31.484 -10.165  36.371  1.00  0.00     0.001 A 
HETATM   17  C8  UNK     1      30.794  -9.366  37.283  1.00  0.00     0.009 A 
ENDBRANCH   5  12
ENDBRANCH   2   5
BRANCH   3  18
HETATM   18  C9  UNK     1      25.087  -8.586  38.286  1.00  0.00     0.108 A 
HETATM   19  C11 UNK     1      24.278  -7.824  39.030  1.00  0.00     0.037 A 
HETATM   20  C10 UNK     1      22.865  -7.712  38.698  1.00  0.00    -0.001 A 
HETATM   21  C12 UNK     1      22.376  -8.409  37.598  1.00  0.00     0.089 A 
HETATM   22  C20 UNK     1      21.984  -6.928  39.445  1.00  0.00     0.014 A 
HETATM   23  C21 UNK     1      21.035  -8.346  37.225  1.00  0.00     0.038 A 
HETATM   24  O1  UNK     1      23.234  -9.211  36.818  1.00  0.00    -0.274 OA
HETATM   25  C23 UNK     1      20.163  -7.561  37.976  1.00  0.00     0.003 A 
HETATM   26  C22 UNK     1      20.636  -6.853  39.084  1.00  0.00     0.001 A 
HETATM   27  C17 UNK     1      24.589  -9.338  37.112  1.00  0.00     0.304 A 
HETATM   28  O3  UNK     1      25.329 -10.037  36.428  1.00  0.00    -0.259 OA
ENDBRANCH   3  18
TORSDOF 4
ENDMDL
