MODEL 1
REMARK VINA RESULT:      -8.2      0.000      0.000
REMARK  3 active torsions:
REMARK  status: ('A' for Active; 'I' for Inactive)
REMARK    1  A    between atoms: C5_12  and  N1_5 
REMARK    2  A    between atoms: C7_14  and  N3_7 
REMARK    3  A    between atoms: C10_17  and  C12_19 
ROOT
HETATM    1  C5  UNK     1      17.919   7.910  32.902  1.00  0.00     0.063 A 
HETATM    2  C7  UNK     1      16.996   7.257  32.058  1.00  0.00     0.130 A 
HETATM    3  C8  UNK     1      19.173   7.295  33.104  1.00  0.00     0.033 A 
HETATM    4  C9  UNK     1      17.311   6.045  31.445  1.00  0.00     0.050 A 
HETATM    5  C10 UNK     1      18.558   5.457  31.663  1.00  0.00    -0.032 A 
HETATM    6  C11 UNK     1      19.489   6.083  32.492  1.00  0.00     0.014 A 
ENDROOT
BRANCH   5   7
HETATM    7  C12 UNK     1      18.888   4.192  31.025  1.00  0.00     0.034 C 
HETATM    8  C13 UNK     1      18.771   3.014  31.622  1.00  0.00     0.057 A 
HETATM    9  S1  UNK     1      19.155   1.488  30.895  1.00  0.00    -0.086 SA
HETATM   10  C15 UNK     1      18.285   2.868  33.021  1.00  0.00     0.200 A 
HETATM   11  C16 UNK     1      18.701   0.616  32.371  1.00  0.00     0.020 A 
HETATM   12  C14 UNK     1      18.268   1.450  33.399  1.00  0.00     0.032 A 
HETATM   13  C18 UNK     1      18.747  -0.758  32.562  1.00  0.00     0.020 A 
HETATM   14  C17 UNK     1      17.871   0.952  34.632  1.00  0.00     0.017 A 
HETATM   15  C19 UNK     1      17.917  -0.429  34.826  1.00  0.00     0.001 A 
HETATM   16  C20 UNK     1      18.351  -1.279  33.798  1.00  0.00     0.001 A 
HETATM   17  O3  UNK     1      17.948   3.777  33.758  1.00  0.00    -0.286 OA
ENDBRANCH   5   7
BRANCH   2  18
HETATM   18  N3  UNK     1      15.717   7.835  31.821  1.00  0.00    -0.113 N 
HETATM   19  O1  UNK     1      14.709   7.314  32.355  1.00  0.00    -0.532 OA
HETATM   20  O2  UNK     1      15.636   8.846  31.086  1.00  0.00    -0.532 OA
ENDBRANCH   2  18
BRANCH   1  21
HETATM   21  N1  UNK     1      17.627   9.127  33.527  1.00  0.00    -0.376 N 
HETATM   22  C1  UNK     1      18.702  10.092  33.781  1.00  0.00     0.153 C 
HETATM   23  C3  UNK     1      18.126  11.495  33.983  1.00  0.00     0.291 C 
HETATM   24  N2  UNK     1      17.096  11.498  35.029  1.00  0.00     0.087 N 
HETATM   25  C4  UNK     1      16.000  10.597  34.652  1.00  0.00     0.291 C 
HETATM   26  C6  UNK     1      16.593  12.853  35.250  1.00  0.00     0.310 C 
HETATM   27  C2  UNK     1      16.505   9.164  34.473  1.00  0.00     0.153 C 
ENDBRANCH   1  21
TORSDOF 3
ENDMDL
MODEL 2
REMARK VINA RESULT:      -7.8     14.867     17.432
REMARK  3 active torsions:
REMARK  status: ('A' for Active; 'I' for Inactive)
REMARK    1  A    between atoms: C5_12  and  N1_5 
REMARK    2  A    between atoms: C7_14  and  N3_7 
REMARK    3  A    between atoms: C10_17  and  C12_19 
ROOT
HETATM    1  C5  UNK     1      23.366  -8.796  37.282  1.00  0.00     0.063 A 
HETATM    2  C7  UNK     1      24.011  -8.073  38.309  1.00  0.00     0.130 A 
HETATM    3  C8  UNK     1      24.123  -9.760  36.582  1.00  0.00     0.033 A 
HETATM    4  C9  UNK     1      25.350  -8.304  38.621  1.00  0.00     0.050 A 
HETATM    5  C10 UNK     1      26.076  -9.262  37.913  1.00  0.00    -0.032 A 
HETATM    6  C11 UNK     1      25.462  -9.990  36.895  1.00  0.00     0.014 A 
ENDROOT
BRANCH   5   7
HETATM    7  C12 UNK     1      27.474  -9.503  38.237  1.00  0.00     0.034 C 
HETATM    8  C13 UNK     1      28.481  -8.830  37.699  1.00  0.00     0.057 A 
HETATM    9  S1  UNK     1      30.156  -9.090  38.060  1.00  0.00    -0.086 SA
HETATM   10  C15 UNK     1      28.279  -7.748  36.697  1.00  0.00     0.200 A 
HETATM   11  C16 UNK     1      30.648  -7.812  36.932  1.00  0.00     0.020 A 
HETATM   12  C14 UNK     1      29.576  -7.196  36.289  1.00  0.00     0.032 A 
HETATM   13  C18 UNK     1      31.947  -7.409  36.660  1.00  0.00     0.020 A 
HETATM   14  C17 UNK     1      29.761  -6.174  35.369  1.00  0.00     0.017 A 
HETATM   15  C19 UNK     1      31.066  -5.768  35.093  1.00  0.00     0.001 A 
HETATM   16  C20 UNK     1      32.153  -6.381  35.735  1.00  0.00     0.001 A 
HETATM   17  O3  UNK     1      27.206  -7.364  36.268  1.00  0.00    -0.286 OA
ENDBRANCH   5   7
BRANCH   2  18
HETATM   18  N3  UNK     1      23.293  -7.088  39.044  1.00  0.00    -0.113 N 
HETATM   19  O1  UNK     1      22.711  -7.429  40.101  1.00  0.00    -0.532 OA
HETATM   20  O2  UNK     1      23.266  -5.912  38.613  1.00  0.00    -0.532 OA
ENDBRANCH   2  18
BRANCH   1  21
HETATM   21  N1  UNK     1      22.025  -8.583  36.950  1.00  0.00    -0.376 N 
HETATM   22  C1  UNK     1      20.968  -9.076  37.840  1.00  0.00     0.153 C 
HETATM   23  C3  UNK     1      19.658  -8.327  37.583  1.00  0.00     0.291 C 
HETATM   24  N2  UNK     1      19.285  -8.385  36.164  1.00  0.00     0.087 N 
HETATM   25  C4  UNK     1      20.338  -7.771  35.346  1.00  0.00     0.291 C 
HETATM   26  C6  UNK     1      18.005  -7.714  35.942  1.00  0.00     0.310 C 
HETATM   27  C2  UNK     1      21.670  -8.503  35.527  1.00  0.00     0.153 C 
ENDBRANCH   1  21
TORSDOF 3
ENDMDL
MODEL 3
REMARK VINA RESULT:      -7.7      1.668      2.205
REMARK  3 active torsions:
REMARK  status: ('A' for Active; 'I' for Inactive)
REMARK    1  A    between atoms: C5_12  and  N1_5 
REMARK    2  A    between atoms: C7_14  and  N3_7 
REMARK    3  A    between atoms: C10_17  and  C12_19 
ROOT
HETATM    1  C5  UNK     1      17.490   8.385  32.899  1.00  0.00     0.063 A 
HETATM    2  C7  UNK     1      18.653   7.669  33.255  1.00  0.00     0.130 A 
HETATM    3  C8  UNK     1      16.755   7.931  31.784  1.00  0.00     0.033 A 
HETATM    4  C9  UNK     1      19.061   6.551  32.530  1.00  0.00     0.050 A 
HETATM    5  C10 UNK     1      18.317   6.122  31.430  1.00  0.00    -0.032 A 
HETATM    6  C11 UNK     1      17.163   6.812  31.058  1.00  0.00     0.014 A 
ENDROOT
BRANCH   5   7
HETATM    7  C12 UNK     1      18.742   4.956  30.672  1.00  0.00     0.034 C 
HETATM    8  C13 UNK     1      18.726   3.720  31.151  1.00  0.00     0.057 A 
HETATM    9  S1  UNK     1      19.226   2.309  30.278  1.00  0.00    -0.086 SA
HETATM   10  C15 UNK     1      18.266   3.400  32.529  1.00  0.00     0.200 A 
HETATM   11  C16 UNK     1      18.856   1.262  31.661  1.00  0.00     0.020 A 
HETATM   12  C14 UNK     1      18.366   1.955  32.767  1.00  0.00     0.032 A 
HETATM   13  C18 UNK     1      19.014  -0.115  31.717  1.00  0.00     0.020 A 
HETATM   14  C17 UNK     1      18.022   1.308  33.945  1.00  0.00     0.017 A 
HETATM   15  C19 UNK     1      18.180  -0.076  34.003  1.00  0.00     0.001 A 
HETATM   16  C20 UNK     1      18.673  -0.784  32.896  1.00  0.00     0.001 A 
HETATM   17  O3  UNK     1      17.862   4.202  33.352  1.00  0.00    -0.286 OA
ENDBRANCH   5   7
BRANCH   2  18
HETATM   18  N3  UNK     1      19.431   8.086  34.372  1.00  0.00    -0.113 N 
HETATM   19  O1  UNK     1      20.442   8.802  34.171  1.00  0.00    -0.532 OA
HETATM   20  O2  UNK     1      19.083   7.726  35.520  1.00  0.00    -0.532 OA
ENDBRANCH   2  18
BRANCH   1  21
HETATM   21  N1  UNK     1      17.059   9.509  33.611  1.00  0.00    -0.376 N 
HETATM   22  C1  UNK     1      17.969  10.644  33.800  1.00  0.00     0.153 C 
HETATM   23  C3  UNK     1      17.181  11.914  34.130  1.00  0.00     0.291 C 
HETATM   24  N2  UNK     1      16.288  11.700  35.275  1.00  0.00     0.087 N 
HETATM   25  C4  UNK     1      15.333  10.628  34.969  1.00  0.00     0.291 C 
HETATM   26  C6  UNK     1      15.583  12.934  35.614  1.00  0.00     0.310 C 
HETATM   27  C2  UNK     1      16.059   9.315  34.668  1.00  0.00     0.153 C 
ENDBRANCH   1  21
TORSDOF 3
ENDMDL
MODEL 4
REMARK VINA RESULT:      -7.6     23.086     25.135
REMARK  3 active torsions:
REMARK  status: ('A' for Active; 'I' for Inactive)
REMARK    1  A    between atoms: C5_12  and  N1_5 
REMARK    2  A    between atoms: C7_14  and  N3_7 
REMARK    3  A    between atoms: C10_17  and  C12_19 
ROOT
HETATM    1  C5  UNK     1       5.951   4.624  12.108  1.00  0.00     0.063 A 
HETATM    2  C7  UNK     1       6.097   3.837  10.945  1.00  0.00     0.130 A 
HETATM    3  C8  UNK     1       6.415   5.955  12.063  1.00  0.00     0.033 A 
HETATM    4  C9  UNK     1       6.680   4.359   9.791  1.00  0.00     0.050 A 
HETATM    5  C10 UNK     1       7.131   5.679   9.772  1.00  0.00    -0.032 A 
HETATM    6  C11 UNK     1       6.998   6.477  10.909  1.00  0.00     0.014 A 
ENDROOT
BRANCH   5   7
HETATM    7  C12 UNK     1       7.740   6.225   8.569  1.00  0.00     0.034 C 
HETATM    8  C13 UNK     1       9.039   6.163   8.308  1.00  0.00     0.057 A 
HETATM    9  S1  UNK     1       9.799   6.801   6.888  1.00  0.00    -0.086 SA
HETATM   10  C15 UNK     1      10.013   5.522   9.233  1.00  0.00     0.200 A 
HETATM   11  C16 UNK     1      11.396   6.262   7.441  1.00  0.00     0.020 A 
HETATM   12  C14 UNK     1      11.367   5.613   8.674  1.00  0.00     0.032 A 
HETATM   13  C18 UNK     1      12.600   6.434   6.772  1.00  0.00     0.020 A 
HETATM   14  C17 UNK     1      12.518   5.120   9.271  1.00  0.00     0.017 A 
HETATM   15  C19 UNK     1      13.730   5.292   8.601  1.00  0.00     0.001 A 
HETATM   16  C20 UNK     1      13.770   5.944   7.360  1.00  0.00     0.001 A 
HETATM   17  O3  UNK     1       9.747   4.996  10.298  1.00  0.00    -0.286 OA
ENDBRANCH   5   7
BRANCH   2  18
HETATM   18  N3  UNK     1       5.647   2.487  10.938  1.00  0.00    -0.113 N 
HETATM   19  O1  UNK     1       4.724   2.162  10.153  1.00  0.00    -0.532 OA
HETATM   20  O2  UNK     1       6.185   1.666  11.716  1.00  0.00    -0.532 OA
ENDBRANCH   2  18
BRANCH   1  21
HETATM   21  N1  UNK     1       5.370   4.124  13.278  1.00  0.00    -0.376 N 
HETATM   22  C1  UNK     1       3.952   3.751  13.284  1.00  0.00     0.153 C 
HETATM   23  C3  UNK     1       3.654   2.790  14.437  1.00  0.00     0.291 C 
HETATM   24  N2  UNK     1       4.106   3.346  15.719  1.00  0.00     0.087 N 
HETATM   25  C4  UNK     1       5.554   3.585  15.676  1.00  0.00     0.291 C 
HETATM   26  C6  UNK     1       3.767   2.443  16.817  1.00  0.00     0.310 C 
HETATM   27  C2  UNK     1       5.914   4.575  14.565  1.00  0.00     0.153 C 
ENDBRANCH   1  21
TORSDOF 3
ENDMDL
MODEL 5
REMARK VINA RESULT:      -7.5     14.614     16.978
REMARK  3 active torsions:
REMARK  status: ('A' for Active; 'I' for Inactive)
REMARK    1  A    between atoms: C5_12  and  N1_5 
REMARK    2  A    between atoms: C7_14  and  N3_7 
REMARK    3  A    between atoms: C10_17  and  C12_19 
ROOT
HETATM    1  C5  UNK     1      26.550  -7.104  38.428  1.00  0.00     0.063 A 
HETATM    2  C7  UNK     1      25.851  -8.315  38.619  1.00  0.00     0.130 A 
HETATM    3  C8  UNK     1      25.864  -5.900  38.693  1.00  0.00     0.033 A 
HETATM    4  C9  UNK     1      24.526  -8.321  39.054  1.00  0.00     0.050 A 
HETATM    5  C10 UNK     1      23.870  -7.116  39.309  1.00  0.00    -0.032 A 
HETATM    6  C11 UNK     1      24.540  -5.906  39.128  1.00  0.00     0.014 A 
ENDROOT
BRANCH   5   7
HETATM    7  C12 UNK     1      22.487  -7.121  39.762  1.00  0.00     0.034 C 
HETATM    8  C13 UNK     1      21.444  -7.138  38.944  1.00  0.00     0.057 A 
HETATM    9  S1  UNK     1      19.786  -7.143  39.447  1.00  0.00    -0.086 SA
HETATM   10  C15 UNK     1      21.587  -7.154  37.463  1.00  0.00     0.200 A 
HETATM   11  C16 UNK     1      19.225  -7.167  37.764  1.00  0.00     0.020 A 
HETATM   12  C14 UNK     1      20.261  -7.169  36.833  1.00  0.00     0.032 A 
HETATM   13  C18 UNK     1      17.905  -7.180  37.337  1.00  0.00     0.020 A 
HETATM   14  C17 UNK     1      20.020  -7.185  35.467  1.00  0.00     0.017 A 
HETATM   15  C19 UNK     1      18.694  -7.198  35.035  1.00  0.00     0.001 A 
HETATM   16  C20 UNK     1      17.643  -7.195  35.964  1.00  0.00     0.001 A 
HETATM   17  O3  UNK     1      22.637  -7.155  36.846  1.00  0.00    -0.286 OA
ENDBRANCH   5   7
BRANCH   2  18
HETATM   18  N3  UNK     1      26.496  -9.558  38.365  1.00  0.00    -0.113 N 
HETATM   19  O1  UNK     1      27.069 -10.146  39.312  1.00  0.00    -0.532 OA
HETATM   20  O2  UNK     1      26.473 -10.025  37.203  1.00  0.00    -0.532 OA
ENDBRANCH   2  18
BRANCH   1  21
HETATM   21  N1  UNK     1      27.879  -7.072  37.993  1.00  0.00    -0.376 N 
HETATM   22  C1  UNK     1      28.924  -6.551  38.880  1.00  0.00     0.153 C 
HETATM   23  C3  UNK     1      30.300  -7.059  38.446  1.00  0.00     0.291 C 
HETATM   24  N2  UNK     1      30.551  -6.760  37.030  1.00  0.00     0.087 N 
HETATM   25  C4  UNK     1      29.532  -7.409  36.195  1.00  0.00     0.291 C 
HETATM   26  C6  UNK     1      31.890  -7.201  36.642  1.00  0.00     0.310 C 
HETATM   27  C2  UNK     1      28.130  -6.911  36.555  1.00  0.00     0.153 C 
ENDBRANCH   1  21
TORSDOF 3
ENDMDL
MODEL 6
REMARK VINA RESULT:      -7.5     15.810     18.804
REMARK  3 active torsions:
REMARK  status: ('A' for Active; 'I' for Inactive)
REMARK    1  A    between atoms: C5_12  and  N1_5 
REMARK    2  A    between atoms: C7_14  and  N3_7 
REMARK    3  A    between atoms: C10_17  and  C12_19 
ROOT
HETATM    1  C5  UNK     1      28.648  -9.220  37.151  1.00  0.00     0.063 A 
HETATM    2  C7  UNK     1      27.829  -9.772  38.159  1.00  0.00     0.130 A 
HETATM    3  C8  UNK     1      28.187  -9.289  35.819  1.00  0.00     0.033 A 
HETATM    4  C9  UNK     1      26.606 -10.365  37.849  1.00  0.00     0.050 A 
HETATM    5  C10 UNK     1      26.173 -10.421  36.524  1.00  0.00    -0.032 A 
HETATM    6  C11 UNK     1      26.964  -9.882  35.510  1.00  0.00     0.014 A 
ENDROOT
BRANCH   5   7
HETATM    7  C12 UNK     1      24.898 -11.041  36.199  1.00  0.00     0.034 C 
HETATM    8  C13 UNK     1      23.725 -10.447  36.373  1.00  0.00     0.057 A 
HETATM    9  S1  UNK     1      22.188 -11.153  35.999  1.00  0.00    -0.086 SA
HETATM   10  C15 UNK     1      23.597  -9.071  36.924  1.00  0.00     0.200 A 
HETATM   11  C16 UNK     1      21.332  -9.697  36.540  1.00  0.00     0.020 A 
HETATM   12  C14 UNK     1      22.181  -8.692  36.998  1.00  0.00     0.032 A 
HETATM   13  C18 UNK     1      19.958  -9.503  36.542  1.00  0.00     0.020 A 
HETATM   14  C17 UNK     1      21.697  -7.478  37.465  1.00  0.00     0.017 A 
HETATM   15  C19 UNK     1      20.316  -7.280  37.468  1.00  0.00     0.001 A 
HETATM   16  C20 UNK     1      19.452  -8.286  37.010  1.00  0.00     0.001 A 
HETATM   17  O3  UNK     1      24.516  -8.350  37.268  1.00  0.00    -0.286 OA
ENDBRANCH   5   7
BRANCH   2  18
HETATM   18  N3  UNK     1      28.248  -9.730  39.519  1.00  0.00    -0.113 N 
HETATM   19  O1  UNK     1      27.866  -8.777  40.240  1.00  0.00    -0.532 OA
HETATM   20  O2  UNK     1      28.984 -10.645  39.954  1.00  0.00    -0.532 OA
ENDBRANCH   2  18
BRANCH   1  21
HETATM   21  N1  UNK     1      29.878  -8.619  37.436  1.00  0.00    -0.376 N 
HETATM   22  C1  UNK     1      31.058  -9.456  37.682  1.00  0.00     0.153 C 
HETATM   23  C3  UNK     1      32.341  -8.651  37.467  1.00  0.00     0.291 C 
HETATM   24  N2  UNK     1      32.334  -7.421  38.270  1.00  0.00     0.087 N 
HETATM   25  C4  UNK     1      31.191  -6.583  37.888  1.00  0.00     0.291 C 
HETATM   26  C6  UNK     1      33.588  -6.689  38.097  1.00  0.00     0.310 C 
HETATM   27  C2  UNK     1      29.870  -7.319  38.118  1.00  0.00     0.153 C 
ENDBRANCH   1  21
TORSDOF 3
ENDMDL
MODEL 7
REMARK VINA RESULT:      -7.4     23.443     24.894
REMARK  3 active torsions:
REMARK  status: ('A' for Active; 'I' for Inactive)
REMARK    1  A    between atoms: C5_12  and  N1_5 
REMARK    2  A    between atoms: C7_14  and  N3_7 
REMARK    3  A    between atoms: C10_17  and  C12_19 
ROOT
HETATM    1  C5  UNK     1      17.303  12.301   9.634  1.00  0.00     0.063 A 
HETATM    2  C7  UNK     1      17.944  11.260   8.928  1.00  0.00     0.130 A 
HETATM    3  C8  UNK     1      16.355  11.943  10.615  1.00  0.00     0.033 A 
HETATM    4  C9  UNK     1      17.649   9.923   9.192  1.00  0.00     0.050 A 
HETATM    5  C10 UNK     1      16.706   9.596  10.167  1.00  0.00    -0.032 A 
HETATM    6  C11 UNK     1      16.060  10.606  10.878  1.00  0.00     0.014 A 
ENDROOT
BRANCH   5   7
HETATM    7  C12 UNK     1      16.397   8.201  10.442  1.00  0.00     0.034 C 
HETATM    8  C13 UNK     1      15.432   7.527   9.833  1.00  0.00     0.057 A 
HETATM    9  S1  UNK     1      15.035   5.867  10.135  1.00  0.00    -0.086 SA
HETATM   10  C15 UNK     1      14.559   8.138   8.794  1.00  0.00     0.200 A 
HETATM   11  C16 UNK     1      13.732   5.909   8.932  1.00  0.00     0.020 A 
HETATM   12  C14 UNK     1      13.590   7.148   8.309  1.00  0.00     0.032 A 
HETATM   13  C18 UNK     1      12.893   4.858   8.591  1.00  0.00     0.020 A 
HETATM   14  C17 UNK     1      12.623   7.376   7.341  1.00  0.00     0.017 A 
HETATM   15  C19 UNK     1      11.779   6.321   6.996  1.00  0.00     0.001 A 
HETATM   16  C20 UNK     1      11.913   5.070   7.617  1.00  0.00     0.001 A 
HETATM   17  O3  UNK     1      14.623   9.286   8.392  1.00  0.00    -0.286 OA
ENDBRANCH   5   7
BRANCH   2  18
HETATM   18  N3  UNK     1      18.908  11.567   7.927  1.00  0.00    -0.113 N 
HETATM   19  O1  UNK     1      20.126  11.492   8.217  1.00  0.00    -0.532 OA
HETATM   20  O2  UNK     1      18.511  11.903   6.787  1.00  0.00    -0.532 OA
ENDBRANCH   2  18
BRANCH   1  21
HETATM   21  N1  UNK     1      17.582  13.650   9.388  1.00  0.00    -0.376 N 
HETATM   22  C1  UNK     1      18.326  14.432  10.381  1.00  0.00     0.153 C 
HETATM   23  C3  UNK     1      18.949  15.670   9.731  1.00  0.00     0.291 C 
HETATM   24  N2  UNK     1      17.936  16.461   9.021  1.00  0.00     0.087 N 
HETATM   25  C4  UNK     1      17.316  15.648   7.968  1.00  0.00     0.291 C 
HETATM   26  C6  UNK     1      18.534  17.668   8.452  1.00  0.00     0.310 C 
HETATM   27  C2  UNK     1      16.637  14.410   8.560  1.00  0.00     0.153 C 
ENDBRANCH   1  21
TORSDOF 3
ENDMDL
MODEL 8
REMARK VINA RESULT:      -7.3     15.855     18.453
REMARK  3 active torsions:
REMARK  status: ('A' for Active; 'I' for Inactive)
REMARK    1  A    between atoms: C5_12  and  N1_5 
REMARK    2  A    between atoms: C7_14  and  N3_7 
REMARK    3  A    between atoms: C10_17  and  C12_19 
ROOT
HETATM    1  C5  UNK     1      28.900  -8.816  37.212  1.00  0.00     0.063 A 
HETATM    2  C7  UNK     1      28.451  -8.962  35.882  1.00  0.00     0.130 A 
HETATM    3  C8  UNK     1      28.130  -9.410  38.234  1.00  0.00     0.033 A 
HETATM    4  C9  UNK     1      27.285  -9.668  35.589  1.00  0.00     0.050 A 
HETATM    5  C10 UNK     1      26.541 -10.245  36.618  1.00  0.00    -0.032 A 
HETATM    6  C11 UNK     1      26.964 -10.116  37.941  1.00  0.00     0.014 A 
ENDROOT
BRANCH   5   7
HETATM    7  C12 UNK     1      25.324 -10.982  36.314  1.00  0.00     0.034 C 
HETATM    8  C13 UNK     1      24.105 -10.481  36.457  1.00  0.00     0.057 A 
HETATM    9  S1  UNK     1      22.634 -11.327  36.106  1.00  0.00    -0.086 SA
HETATM   10  C15 UNK     1      23.858  -9.099  36.951  1.00  0.00     0.200 A 
HETATM   11  C16 UNK     1      21.656  -9.927  36.583  1.00  0.00     0.020 A 
HETATM   12  C14 UNK     1      22.415  -8.836  37.002  1.00  0.00     0.032 A 
HETATM   13  C18 UNK     1      20.271  -9.848  36.570  1.00  0.00     0.020 A 
HETATM   14  C17 UNK     1      21.828  -7.649  37.416  1.00  0.00     0.017 A 
HETATM   15  C19 UNK     1      20.436  -7.567  37.405  1.00  0.00     0.001 A 
HETATM   16  C20 UNK     1      19.662  -8.659  36.984  1.00  0.00     0.001 A 
HETATM   17  O3  UNK     1      24.712  -8.291  37.269  1.00  0.00    -0.286 OA
ENDBRANCH   5   7
BRANCH   2  18
HETATM   18  N3  UNK     1      29.190  -8.381  34.814  1.00  0.00    -0.113 N 
HETATM   19  O1  UNK     1      28.919  -7.210  34.457  1.00  0.00    -0.532 OA
HETATM   20  O2  UNK     1      30.089  -9.058  34.262  1.00  0.00    -0.532 OA
ENDBRANCH   2  18
BRANCH   1  21
HETATM   21  N1  UNK     1      30.066  -8.113  37.532  1.00  0.00    -0.376 N 
HETATM   22  C1  UNK     1      31.306  -8.846  37.807  1.00  0.00     0.153 C 
HETATM   23  C3  UNK     1      32.521  -7.932  37.630  1.00  0.00     0.291 C 
HETATM   24  N2  UNK     1      32.386  -6.712  38.436  1.00  0.00     0.087 N 
HETATM   25  C4  UNK     1      31.185  -5.973  38.026  1.00  0.00     0.291 C 
HETATM   26  C6  UNK     1      33.576  -5.873  38.300  1.00  0.00     0.310 C 
HETATM   27  C2  UNK     1      29.926  -6.822  38.218  1.00  0.00     0.153 C 
ENDBRANCH   1  21
TORSDOF 3
ENDMDL
MODEL 9
REMARK VINA RESULT:      -7.3     20.102     23.825
REMARK  3 active torsions:
REMARK  status: ('A' for Active; 'I' for Inactive)
REMARK    1  A    between atoms: C5_12  and  N1_5 
REMARK    2  A    between atoms: C7_14  and  N3_7 
REMARK    3  A    between atoms: C10_17  and  C12_19 
ROOT
HETATM    1  C5  UNK     1      36.913  -9.263  32.548  1.00  0.00     0.063 A 
HETATM    2  C7  UNK     1      35.960  -8.570  31.772  1.00  0.00     0.130 A 
HETATM    3  C8  UNK     1      37.279  -8.705  33.792  1.00  0.00     0.033 A 
HETATM    4  C9  UNK     1      35.399  -7.374  32.219  1.00  0.00     0.050 A 
HETATM    5  C10 UNK     1      35.778  -6.843  33.452  1.00  0.00    -0.032 A 
HETATM    6  C11 UNK     1      36.718  -7.509  34.238  1.00  0.00     0.014 A 
ENDROOT
BRANCH   5   7
HETATM    7  C12 UNK     1      35.194  -5.595  33.919  1.00  0.00     0.034 C 
HETATM    8  C13 UNK     1      34.248  -5.526  34.845  1.00  0.00     0.057 A 
HETATM    9  S1  UNK     1      33.529  -4.060  35.424  1.00  0.00    -0.086 SA
HETATM   10  C15 UNK     1      33.682  -6.734  35.506  1.00  0.00     0.200 A 
HETATM   11  C16 UNK     1      32.478  -4.957  36.537  1.00  0.00     0.020 A 
HETATM   12  C14 UNK     1      32.657  -6.337  36.479  1.00  0.00     0.032 A 
HETATM   13  C18 UNK     1      31.544  -4.412  37.406  1.00  0.00     0.020 A 
HETATM   14  C17 UNK     1      31.924  -7.207  37.273  1.00  0.00     0.017 A 
HETATM   15  C19 UNK     1      30.985  -6.661  38.148  1.00  0.00     0.001 A 
HETATM   16  C20 UNK     1      30.796  -5.273  38.215  1.00  0.00     0.001 A 
HETATM   17  O3  UNK     1      34.008  -7.886  35.287  1.00  0.00    -0.286 OA
ENDBRANCH   5   7
BRANCH   2  18
HETATM   18  N3  UNK     1      35.557  -9.089  30.510  1.00  0.00    -0.113 N 
HETATM   19  O1  UNK     1      34.548  -9.833  30.456  1.00  0.00    -0.532 OA
HETATM   20  O2  UNK     1      36.222  -8.788  29.492  1.00  0.00    -0.532 OA
ENDBRANCH   2  18
BRANCH   1  21
HETATM   21  N1  UNK     1      37.490 -10.464  32.123  1.00  0.00    -0.376 N 
HETATM   22  C1  UNK     1      36.824 -11.737  32.419  1.00  0.00     0.153 C 
HETATM   23  C3  UNK     1      37.313 -12.832  31.469  1.00  0.00     0.291 C 
HETATM   24  N2  UNK     1      38.778 -12.934  31.489  1.00  0.00     0.087 N 
HETATM   25  C4  UNK     1      39.372 -11.658  31.071  1.00  0.00     0.291 C 
HETATM   26  C6  UNK     1      39.228 -14.019  30.619  1.00  0.00     0.310 C 
HETATM   27  C2  UNK     1      38.953 -10.524  32.009  1.00  0.00     0.153 C 
ENDBRANCH   1  21
TORSDOF 3
ENDMDL
MODEL 10
REMARK VINA RESULT:      -7.3     16.365     18.251
REMARK  3 active torsions:
REMARK  status: ('A' for Active; 'I' for Inactive)
REMARK    1  A    between atoms: C5_12  and  N1_5 
REMARK    2  A    between atoms: C7_14  and  N3_7 
REMARK    3  A    between atoms: C10_17  and  C12_19 
ROOT
HETATM    1  C5  UNK     1      25.534  -7.459  38.747  1.00  0.00     0.063 A 
HETATM    2  C7  UNK     1      26.669  -8.270  38.964  1.00  0.00     0.130 A 
HETATM    3  C8  UNK     1      25.730  -6.066  38.650  1.00  0.00     0.033 A 
HETATM    4  C9  UNK     1      27.941  -7.711  39.078  1.00  0.00     0.050 A 
HETATM    5  C10 UNK     1      28.109  -6.330  38.979  1.00  0.00    -0.032 A 
HETATM    6  C11 UNK     1      27.003  -5.507  38.765  1.00  0.00     0.014 A 
ENDROOT
BRANCH   5   7
HETATM    7  C12 UNK     1      29.436  -5.746  39.099  1.00  0.00     0.034 C 
HETATM    8  C13 UNK     1      30.292  -5.651  38.091  1.00  0.00     0.057 A 
HETATM    9  S1  UNK     1      31.879  -4.964  38.197  1.00  0.00    -0.086 SA
HETATM   10  C15 UNK     1      29.977  -6.139  36.721  1.00  0.00     0.200 A 
HETATM   11  C16 UNK     1      32.185  -5.283  36.479  1.00  0.00     0.020 A 
HETATM   12  C14 UNK     1      31.117  -5.898  35.829  1.00  0.00     0.032 A 
HETATM   13  C18 UNK     1      33.346  -4.983  35.780  1.00  0.00     0.020 A 
HETATM   14  C17 UNK     1      31.169  -6.229  34.483  1.00  0.00     0.017 A 
HETATM   15  C19 UNK     1      32.334  -5.929  33.778  1.00  0.00     0.001 A 
HETATM   16  C20 UNK     1      33.416  -5.310  34.423  1.00  0.00     0.001 A 
HETATM   17  O3  UNK     1      28.934  -6.663  36.372  1.00  0.00    -0.286 OA
ENDBRANCH   5   7
BRANCH   2  18
HETATM   18  N3  UNK     1      26.525  -9.682  39.070  1.00  0.00    -0.113 N 
HETATM   19  O1  UNK     1      26.551 -10.373  38.024  1.00  0.00    -0.532 OA
HETATM   20  O2  UNK     1      26.378 -10.191  40.205  1.00  0.00    -0.532 OA
ENDBRANCH   2  18
BRANCH   1  21
HETATM   21  N1  UNK     1      24.247  -7.995  38.629  1.00  0.00    -0.376 N 
HETATM   22  C1  UNK     1      23.763  -8.444  37.319  1.00  0.00     0.153 C 
HETATM   23  C3  UNK     1      22.600  -9.426  37.484  1.00  0.00     0.291 C 
HETATM   24  N2  UNK     1      21.539  -8.851  38.321  1.00  0.00     0.087 N 
HETATM   25  C4  UNK     1      22.070  -8.533  39.652  1.00  0.00     0.291 C 
HETATM   26  C6  UNK     1      20.411  -9.776  38.426  1.00  0.00     0.310 C 
HETATM   27  C2  UNK     1      23.214  -7.521  39.559  1.00  0.00     0.153 C 
ENDBRANCH   1  21
TORSDOF 3
ENDMDL
