MODEL 1
REMARK VINA RESULT:      -9.4      0.000      0.000
REMARK  6 active torsions:
REMARK  status: ('A' for Active; 'I' for Inactive)
REMARK    1  A    between atoms: C5_8  and  O1_1 
REMARK    2  A    between atoms: C9_12  and  O1_1 
REMARK    3  A    between atoms: C1_4  and  C5_8 
REMARK    4  A    between atoms: C17_20  and  C7_10 
REMARK    5  A    between atoms: C13_16  and  C22_25 
REMARK    6  A    between atoms: C22_25  and  C24_27 
ROOT
HETATM    1  O3  UNK     1      17.892   2.417  28.365  1.00  0.00    -0.288 OA
HETATM    2  C22 UNK     1      18.588   2.438  29.374  1.00  0.00     0.182 C 
ENDROOT
BRANCH   2   3
HETATM    3  C13 UNK     1      18.675   3.678  30.182  1.00  0.00     0.014 A 
HETATM    4  C19 UNK     1      19.198   4.819  29.604  1.00  0.00     0.018 A 
HETATM    5  C14 UNK     1      19.279   5.985  30.364  1.00  0.00     0.038 A 
HETATM    6  C9  UNK     1      18.837   5.988  31.686  1.00  0.00     0.079 A 
HETATM    7  C15 UNK     1      18.312   4.824  32.250  1.00  0.00     0.038 A 
HETATM    8  C20 UNK     1      18.231   3.658  31.489  1.00  0.00     0.018 A 
BRANCH   6   9
HETATM    9  O1  UNK     1      18.917   7.126  32.429  1.00  0.00    -0.278 OA
BRANCH   9  10
HETATM   10  C5  UNK     1      17.694   7.804  32.594  1.00  0.00     0.271 C 
HETATM   11  O2  UNK     1      16.938   8.103  31.676  1.00  0.00    -0.264 OA
BRANCH  10  12
HETATM   12  C1  UNK     1      17.432   8.115  34.072  1.00  0.00     0.037 C 
HETATM   13  C2  UNK     1      18.711   7.866  34.882  1.00  0.00     0.025 C 
HETATM   14  C3  UNK     1      16.981   9.574  34.218  1.00  0.00     0.025 C 
HETATM   15  C4  UNK     1      16.320   7.194  34.599  1.00  0.00     0.025 C 
ENDBRANCH  10  12
ENDBRANCH   9  10
ENDBRANCH   6   9
ENDBRANCH   2   3
BRANCH   2  16
HETATM   16  C24 UNK     1      19.341   1.246  29.854  1.00  0.00     0.056 C 
HETATM   17  C17 UNK     1      18.842   0.490  30.852  1.00  0.00     0.016 C 
BRANCH  17  18
HETATM   18  C7  UNK     1      19.497  -0.690  31.416  1.00  0.00    -0.025 A 
HETATM   19  C11 UNK     1      20.218  -1.484  30.524  1.00  0.00     0.012 A 
HETATM   20  C18 UNK     1      20.871  -2.626  30.981  1.00  0.00     0.002 A 
HETATM   21  C12 UNK     1      20.806  -2.976  32.330  1.00  0.00     0.012 A 
HETATM   22  C8  UNK     1      20.085  -2.187  33.242  1.00  0.00    -0.025 A 
HETATM   23  C16 UNK     1      20.010  -2.523  34.602  1.00  0.00     0.012 A 
HETATM   24  C6  UNK     1      19.421  -1.026  32.778  1.00  0.00    -0.016 A 
HETATM   25  C23 UNK     1      19.289  -1.727  35.493  1.00  0.00     0.001 A 
HETATM   26  C21 UNK     1      18.636  -0.586  35.037  1.00  0.00     0.001 A 
HETATM   27  C10 UNK     1      18.700  -0.237  33.688  1.00  0.00     0.013 A 
ENDBRANCH  17  18
ENDBRANCH   2  16
TORSDOF 6
ENDMDL
MODEL 2
REMARK VINA RESULT:      -9.2      0.734      1.184
REMARK  6 active torsions:
REMARK  status: ('A' for Active; 'I' for Inactive)
REMARK    1  A    between atoms: C5_8  and  O1_1 
REMARK    2  A    between atoms: C9_12  and  O1_1 
REMARK    3  A    between atoms: C1_4  and  C5_8 
REMARK    4  A    between atoms: C17_20  and  C7_10 
REMARK    5  A    between atoms: C13_16  and  C22_25 
REMARK    6  A    between atoms: C22_25  and  C24_27 
ROOT
HETATM    1  O3  UNK     1      18.226   2.262  28.380  1.00  0.00    -0.288 OA
HETATM    2  C22 UNK     1      18.717   2.393  29.495  1.00  0.00     0.182 C 
ENDROOT
BRANCH   2   3
HETATM    3  C13 UNK     1      18.593   3.688  30.206  1.00  0.00     0.014 A 
HETATM    4  C19 UNK     1      19.091   4.830  29.610  1.00  0.00     0.018 A 
HETATM    5  C14 UNK     1      18.973   6.047  30.279  1.00  0.00     0.038 A 
HETATM    6  C9  UNK     1      18.360   6.100  31.531  1.00  0.00     0.079 A 
HETATM    7  C15 UNK     1      17.864   4.934  32.114  1.00  0.00     0.038 A 
HETATM    8  C20 UNK     1      17.982   3.715  31.445  1.00  0.00     0.018 A 
BRANCH   6   9
HETATM    9  O1  UNK     1      18.246   7.289  32.185  1.00  0.00    -0.278 OA
BRANCH   9  10
HETATM   10  C5  UNK     1      17.012   7.942  32.000  1.00  0.00     0.271 C 
HETATM   11  O2  UNK     1      16.512   8.180  30.906  1.00  0.00    -0.264 OA
BRANCH  10  12
HETATM   12  C1  UNK     1      16.378   8.311  33.346  1.00  0.00     0.037 C 
HETATM   13  C2  UNK     1      15.701   9.683  33.234  1.00  0.00     0.025 C 
HETATM   14  C3  UNK     1      15.355   7.238  33.742  1.00  0.00     0.025 C 
HETATM   15  C4  UNK     1      17.471   8.379  34.424  1.00  0.00     0.025 C 
ENDBRANCH  10  12
ENDBRANCH   9  10
ENDBRANCH   6   9
ENDBRANCH   2   3
BRANCH   2  16
HETATM   16  C24 UNK     1      19.420   1.283  30.198  1.00  0.00     0.056 C 
HETATM   17  C17 UNK     1      18.773   0.560  31.134  1.00  0.00     0.016 C 
BRANCH  17  18
HETATM   18  C7  UNK     1      19.363  -0.538  31.898  1.00  0.00    -0.025 A 
HETATM   19  C11 UNK     1      20.216  -1.393  31.199  1.00  0.00     0.012 A 
HETATM   20  C18 UNK     1      20.818  -2.464  31.854  1.00  0.00     0.002 A 
HETATM   21  C12 UNK     1      20.571  -2.682  33.209  1.00  0.00     0.012 A 
HETATM   22  C8  UNK     1      19.716  -1.831  33.928  1.00  0.00    -0.025 A 
HETATM   23  C16 UNK     1      19.457  -2.036  35.293  1.00  0.00     0.012 A 
HETATM   24  C6  UNK     1      19.103  -0.743  33.263  1.00  0.00    -0.016 A 
HETATM   25  C23 UNK     1      18.605  -1.180  35.991  1.00  0.00     0.001 A 
HETATM   26  C21 UNK     1      18.002  -0.110  35.337  1.00  0.00     0.001 A 
HETATM   27  C10 UNK     1      18.248   0.108  33.981  1.00  0.00     0.013 A 
ENDBRANCH  17  18
ENDBRANCH   2  16
TORSDOF 6
ENDMDL
MODEL 3
REMARK VINA RESULT:      -8.8      4.384      9.635
REMARK  6 active torsions:
REMARK  status: ('A' for Active; 'I' for Inactive)
REMARK    1  A    between atoms: C5_8  and  O1_1 
REMARK    2  A    between atoms: C9_12  and  O1_1 
REMARK    3  A    between atoms: C1_4  and  C5_8 
REMARK    4  A    between atoms: C17_20  and  C7_10 
REMARK    5  A    between atoms: C13_16  and  C22_25 
REMARK    6  A    between atoms: C22_25  and  C24_27 
ROOT
HETATM    1  O3  UNK     1      16.968   0.427  36.538  1.00  0.00    -0.288 OA
HETATM    2  C22 UNK     1      17.645  -0.101  35.663  1.00  0.00     0.182 C 
ENDROOT
BRANCH   2   3
HETATM    3  C13 UNK     1      18.557  -1.217  36.011  1.00  0.00     0.014 A 
HETATM    4  C19 UNK     1      19.397  -1.723  35.038  1.00  0.00     0.018 A 
HETATM    5  C14 UNK     1      20.254  -2.773  35.365  1.00  0.00     0.038 A 
HETATM    6  C9  UNK     1      20.256  -3.295  36.658  1.00  0.00     0.079 A 
HETATM    7  C15 UNK     1      19.399  -2.768  37.625  1.00  0.00     0.038 A 
HETATM    8  C20 UNK     1      18.541  -1.719  37.297  1.00  0.00     0.018 A 
BRANCH   6   9
HETATM    9  O1  UNK     1      21.092  -4.321  36.978  1.00  0.00    -0.278 OA
BRANCH   9  10
HETATM   10  C5  UNK     1      20.462  -5.576  37.089  1.00  0.00     0.271 C 
HETATM   11  O2  UNK     1      19.484  -5.921  36.435  1.00  0.00    -0.264 OA
BRANCH  10  12
HETATM   12  C1  UNK     1      21.164  -6.452  38.133  1.00  0.00     0.037 C 
HETATM   13  C2  UNK     1      22.398  -5.717  38.673  1.00  0.00     0.025 C 
HETATM   14  C3  UNK     1      20.189  -6.773  39.273  1.00  0.00     0.025 C 
HETATM   15  C4  UNK     1      21.614  -7.767  37.477  1.00  0.00     0.025 C 
ENDBRANCH  10  12
ENDBRANCH   9  10
ENDBRANCH   6   9
ENDBRANCH   2   3
BRANCH   2  16
HETATM   16  C24 UNK     1      17.570   0.311  34.233  1.00  0.00     0.056 C 
HETATM   17  C17 UNK     1      18.631   0.896  33.643  1.00  0.00     0.016 C 
BRANCH  17  18
HETATM   18  C7  UNK     1      18.669   1.356  32.255  1.00  0.00    -0.025 A 
HETATM   19  C11 UNK     1      18.158   2.631  32.011  1.00  0.00     0.012 A 
HETATM   20  C18 UNK     1      18.156   3.144  30.717  1.00  0.00     0.002 A 
HETATM   21  C12 UNK     1      18.665   2.384  29.664  1.00  0.00     0.012 A 
HETATM   22  C8  UNK     1      19.184   1.099  29.892  1.00  0.00    -0.025 A 
HETATM   23  C16 UNK     1      19.701   0.322  28.844  1.00  0.00     0.012 A 
HETATM   24  C6  UNK     1      19.185   0.577  31.207  1.00  0.00    -0.016 A 
HETATM   25  C23 UNK     1      20.212  -0.953  29.089  1.00  0.00     0.001 A 
HETATM   26  C21 UNK     1      20.214  -1.467  30.382  1.00  0.00     0.001 A 
HETATM   27  C10 UNK     1      19.703  -0.707  31.436  1.00  0.00     0.013 A 
ENDBRANCH  17  18
ENDBRANCH   2  16
TORSDOF 6
ENDMDL
MODEL 4
REMARK VINA RESULT:      -8.7      4.229      9.886
REMARK  6 active torsions:
REMARK  status: ('A' for Active; 'I' for Inactive)
REMARK    1  A    between atoms: C5_8  and  O1_1 
REMARK    2  A    between atoms: C9_12  and  O1_1 
REMARK    3  A    between atoms: C1_4  and  C5_8 
REMARK    4  A    between atoms: C17_20  and  C7_10 
REMARK    5  A    between atoms: C13_16  and  C22_25 
REMARK    6  A    between atoms: C22_25  and  C24_27 
ROOT
HETATM    1  O3  UNK     1      16.890   0.496  35.696  1.00  0.00    -0.288 OA
HETATM    2  C22 UNK     1      17.881   0.180  35.046  1.00  0.00     0.182 C 
ENDROOT
BRANCH   2   3
HETATM    3  C13 UNK     1      18.681  -1.000  35.452  1.00  0.00     0.014 A 
HETATM    4  C19 UNK     1      18.624  -1.428  36.764  1.00  0.00     0.018 A 
HETATM    5  C14 UNK     1      19.377  -2.539  37.145  1.00  0.00     0.038 A 
HETATM    6  C9  UNK     1      20.170  -3.199  36.207  1.00  0.00     0.079 A 
HETATM    7  C15 UNK     1      20.212  -2.749  34.887  1.00  0.00     0.038 A 
HETATM    8  C20 UNK     1      19.460  -1.638  34.506  1.00  0.00     0.018 A 
BRANCH   6   9
HETATM    9  O1  UNK     1      20.906  -4.283  36.580  1.00  0.00    -0.278 OA
BRANCH   9  10
HETATM   10  C5  UNK     1      20.146  -5.428  36.886  1.00  0.00     0.271 C 
HETATM   11  O2  UNK     1      19.027  -5.656  36.439  1.00  0.00    -0.264 OA
BRANCH  10  12
HETATM   12  C1  UNK     1      20.904  -6.351  37.847  1.00  0.00     0.037 C 
HETATM   13  C2  UNK     1      21.359  -7.610  37.097  1.00  0.00     0.025 C 
HETATM   14  C3  UNK     1      22.114  -5.605  38.426  1.00  0.00     0.025 C 
HETATM   15  C4  UNK     1      19.975  -6.763  38.999  1.00  0.00     0.025 C 
ENDBRANCH  10  12
ENDBRANCH   9  10
ENDBRANCH   6   9
ENDBRANCH   2   3
BRANCH   2  16
HETATM   16  C24 UNK     1      18.309   0.920  33.826  1.00  0.00     0.056 C 
HETATM   17  C17 UNK     1      17.927   2.199  33.643  1.00  0.00     0.016 C 
BRANCH  17  18
HETATM   18  C7  UNK     1      18.271   3.017  32.481  1.00  0.00    -0.025 A 
HETATM   19  C11 UNK     1      18.442   2.339  31.274  1.00  0.00     0.012 A 
HETATM   20  C18 UNK     1      18.771   3.045  30.120  1.00  0.00     0.002 A 
HETATM   21  C12 UNK     1      18.930   4.430  30.169  1.00  0.00     0.012 A 
HETATM   22  C8  UNK     1      18.761   5.129  31.376  1.00  0.00    -0.025 A 
HETATM   23  C16 UNK     1      18.917   6.522  31.443  1.00  0.00     0.012 A 
HETATM   24  C6  UNK     1      18.427   4.412  32.549  1.00  0.00    -0.016 A 
HETATM   25  C23 UNK     1      18.746   7.199  32.651  1.00  0.00     0.001 A 
HETATM   26  C21 UNK     1      18.417   6.494  33.805  1.00  0.00     0.001 A 
HETATM   27  C10 UNK     1      18.259   5.109  33.756  1.00  0.00     0.013 A 
ENDBRANCH  17  18
ENDBRANCH   2  16
TORSDOF 6
ENDMDL
MODEL 5
REMARK VINA RESULT:      -8.7      1.766      3.680
REMARK  6 active torsions:
REMARK  status: ('A' for Active; 'I' for Inactive)
REMARK    1  A    between atoms: C5_8  and  O1_1 
REMARK    2  A    between atoms: C9_12  and  O1_1 
REMARK    3  A    between atoms: C1_4  and  C5_8 
REMARK    4  A    between atoms: C17_20  and  C7_10 
REMARK    5  A    between atoms: C13_16  and  C22_25 
REMARK    6  A    between atoms: C22_25  and  C24_27 
ROOT
HETATM    1  O3  UNK     1      18.944   5.271  29.567  1.00  0.00    -0.288 OA
HETATM    2  C22 UNK     1      18.871   5.162  30.785  1.00  0.00     0.182 C 
ENDROOT
BRANCH   2   3
HETATM    3  C13 UNK     1      18.501   6.339  31.608  1.00  0.00     0.014 A 
HETATM    4  C19 UNK     1      19.331   6.719  32.644  1.00  0.00     0.018 A 
HETATM    5  C14 UNK     1      18.983   7.826  33.417  1.00  0.00     0.038 A 
HETATM    6  C9  UNK     1      17.812   8.531  33.140  1.00  0.00     0.079 A 
HETATM    7  C15 UNK     1      16.989   8.129  32.088  1.00  0.00     0.038 A 
HETATM    8  C20 UNK     1      17.336   7.022  31.315  1.00  0.00     0.018 A 
BRANCH   6   9
HETATM    9  O1  UNK     1      17.471   9.611  33.896  1.00  0.00    -0.278 OA
BRANCH   9  10
HETATM   10  C5  UNK     1      16.324   9.429  34.692  1.00  0.00     0.271 C 
HETATM   11  O2  UNK     1      16.168   8.504  35.481  1.00  0.00    -0.264 OA
BRANCH  10  12
HETATM   12  C1  UNK     1      15.299  10.541  34.441  1.00  0.00     0.037 C 
HETATM   13  C2  UNK     1      16.032  11.853  34.134  1.00  0.00     0.025 C 
HETATM   14  C3  UNK     1      14.390  10.147  33.270  1.00  0.00     0.025 C 
HETATM   15  C4  UNK     1      14.437  10.734  35.698  1.00  0.00     0.025 C 
ENDBRANCH  10  12
ENDBRANCH   9  10
ENDBRANCH   6   9
ENDBRANCH   2   3
BRANCH   2  16
HETATM   16  C24 UNK     1      19.109   3.872  31.491  1.00  0.00     0.056 C 
HETATM   17  C17 UNK     1      18.629   2.722  30.977  1.00  0.00     0.016 C 
BRANCH  17  18
HETATM   18  C7  UNK     1      18.785   1.403  31.588  1.00  0.00    -0.025 A 
HETATM   19  C11 UNK     1      18.321   1.267  32.896  1.00  0.00     0.012 A 
HETATM   20  C18 UNK     1      18.433   0.043  33.551  1.00  0.00     0.002 A 
HETATM   21  C12 UNK     1      19.008  -1.048  32.898  1.00  0.00     0.012 A 
HETATM   22  C8  UNK     1      19.479  -0.929  31.581  1.00  0.00    -0.025 A 
HETATM   23  C16 UNK     1      20.059  -2.016  30.909  1.00  0.00     0.012 A 
HETATM   24  C6  UNK     1      19.367   0.316  30.915  1.00  0.00    -0.016 A 
HETATM   25  C23 UNK     1      20.523  -1.879  29.600  1.00  0.00     0.001 A 
HETATM   26  C21 UNK     1      20.412  -0.656  28.946  1.00  0.00     0.001 A 
HETATM   27  C10 UNK     1      19.838   0.436  29.599  1.00  0.00     0.013 A 
ENDBRANCH  17  18
ENDBRANCH   2  16
TORSDOF 6
ENDMDL
MODEL 6
REMARK VINA RESULT:      -8.7      5.810     11.272
REMARK  6 active torsions:
REMARK  status: ('A' for Active; 'I' for Inactive)
REMARK    1  A    between atoms: C5_8  and  O1_1 
REMARK    2  A    between atoms: C9_12  and  O1_1 
REMARK    3  A    between atoms: C1_4  and  C5_8 
REMARK    4  A    between atoms: C17_20  and  C7_10 
REMARK    5  A    between atoms: C13_16  and  C22_25 
REMARK    6  A    between atoms: C22_25  and  C24_27 
ROOT
HETATM    1  O3  UNK     1      19.108  -1.796  36.323  1.00  0.00    -0.288 OA
HETATM    2  C22 UNK     1      19.795  -2.555  35.649  1.00  0.00     0.182 C 
ENDROOT
BRANCH   2   3
HETATM    3  C13 UNK     1      20.182  -3.878  36.195  1.00  0.00     0.014 A 
HETATM    4  C19 UNK     1      20.865  -3.934  37.394  1.00  0.00     0.018 A 
HETATM    5  C14 UNK     1      21.228  -5.178  37.907  1.00  0.00     0.038 A 
HETATM    6  C9  UNK     1      20.902  -6.342  37.211  1.00  0.00     0.079 A 
HETATM    7  C15 UNK     1      20.211  -6.262  36.002  1.00  0.00     0.038 A 
HETATM    8  C20 UNK     1      19.848  -5.017  35.488  1.00  0.00     0.018 A 
BRANCH   6   9
HETATM    9  O1  UNK     1      21.258  -7.557  37.712  1.00  0.00    -0.278 OA
BRANCH   9  10
HETATM   10  C5  UNK     1      20.247  -8.205  38.448  1.00  0.00     0.271 C 
HETATM   11  O2  UNK     1      19.731  -7.752  39.464  1.00  0.00    -0.264 OA
BRANCH  10  12
HETATM   12  C1  UNK     1      19.876  -9.548  37.808  1.00  0.00     0.037 C 
HETATM   13  C2  UNK     1      18.728  -9.340  36.810  1.00  0.00     0.025 C 
HETATM   14  C3  UNK     1      21.103 -10.135  37.100  1.00  0.00     0.025 C 
HETATM   15  C4  UNK     1      19.416 -10.525  38.901  1.00  0.00     0.025 C 
ENDBRANCH  10  12
ENDBRANCH   9  10
ENDBRANCH   6   9
ENDBRANCH   2   3
BRANCH   2  16
HETATM   16  C24 UNK     1      20.242  -2.218  34.268  1.00  0.00     0.056 C 
HETATM   17  C17 UNK     1      19.356  -1.757  33.364  1.00  0.00     0.016 C 
BRANCH  17  18
HETATM   18  C7  UNK     1      19.675  -1.411  31.980  1.00  0.00    -0.025 A 
HETATM   19  C11 UNK     1      20.309  -2.398  31.225  1.00  0.00     0.012 A 
HETATM   20  C18 UNK     1      20.648  -2.149  29.898  1.00  0.00     0.002 A 
HETATM   21  C12 UNK     1      20.352  -0.913  29.322  1.00  0.00     0.012 A 
HETATM   22  C8  UNK     1      19.714   0.091  30.067  1.00  0.00    -0.025 A 
HETATM   23  C16 UNK     1      19.408   1.340  29.503  1.00  0.00     0.012 A 
HETATM   24  C6  UNK     1      19.370  -0.161  31.416  1.00  0.00    -0.016 A 
HETATM   25  C23 UNK     1      18.774   2.326  30.259  1.00  0.00     0.001 A 
HETATM   26  C21 UNK     1      18.435   2.078  31.585  1.00  0.00     0.001 A 
HETATM   27  C10 UNK     1      18.732   0.842  32.162  1.00  0.00     0.013 A 
ENDBRANCH  17  18
ENDBRANCH   2  16
TORSDOF 6
ENDMDL
MODEL 7
REMARK VINA RESULT:      -8.5      2.179      3.740
REMARK  6 active torsions:
REMARK  status: ('A' for Active; 'I' for Inactive)
REMARK    1  A    between atoms: C5_8  and  O1_1 
REMARK    2  A    between atoms: C9_12  and  O1_1 
REMARK    3  A    between atoms: C1_4  and  C5_8 
REMARK    4  A    between atoms: C17_20  and  C7_10 
REMARK    5  A    between atoms: C13_16  and  C22_25 
REMARK    6  A    between atoms: C22_25  and  C24_27 
ROOT
HETATM    1  O3  UNK     1      18.363   2.231  31.570  1.00  0.00    -0.288 OA
HETATM    2  C22 UNK     1      18.314   2.856  32.624  1.00  0.00     0.182 C 
ENDROOT
BRANCH   2   3
HETATM    3  C13 UNK     1      18.101   4.323  32.599  1.00  0.00     0.014 A 
HETATM    4  C19 UNK     1      17.790   4.974  33.777  1.00  0.00     0.018 A 
HETATM    5  C14 UNK     1      17.589   6.353  33.753  1.00  0.00     0.038 A 
HETATM    6  C9  UNK     1      17.703   7.055  32.553  1.00  0.00     0.079 A 
HETATM    7  C15 UNK     1      18.018   6.376  31.376  1.00  0.00     0.038 A 
HETATM    8  C20 UNK     1      18.218   4.996  31.399  1.00  0.00     0.018 A 
BRANCH   6   9
HETATM    9  O1  UNK     1      17.506   8.402  32.530  1.00  0.00    -0.278 OA
BRANCH   9  10
HETATM   10  C5  UNK     1      16.194   8.795  32.201  1.00  0.00     0.271 C 
HETATM   11  O2  UNK     1      15.681   8.642  31.098  1.00  0.00    -0.264 OA
BRANCH  10  12
HETATM   12  C1  UNK     1      15.494   9.435  33.405  1.00  0.00     0.037 C 
HETATM   13  C2  UNK     1      14.635  10.615  32.932  1.00  0.00     0.025 C 
HETATM   14  C3  UNK     1      14.623   8.386  34.110  1.00  0.00     0.025 C 
HETATM   15  C4  UNK     1      16.550   9.951  34.395  1.00  0.00     0.025 C 
ENDBRANCH  10  12
ENDBRANCH   9  10
ENDBRANCH   6   9
ENDBRANCH   2   3
BRANCH   2  16
HETATM   16  C24 UNK     1      18.430   2.196  33.954  1.00  0.00     0.056 C 
HETATM   17  C17 UNK     1      17.936   0.955  34.138  1.00  0.00     0.016 C 
BRANCH  17  18
HETATM   18  C7  UNK     1      17.976   0.217  35.400  1.00  0.00    -0.025 A 
HETATM   19  C11 UNK     1      17.245   0.758  36.458  1.00  0.00     0.012 A 
HETATM   20  C18 UNK     1      17.232   0.117  37.694  1.00  0.00     0.002 A 
HETATM   21  C12 UNK     1      17.947  -1.067  37.874  1.00  0.00     0.012 A 
HETATM   22  C8  UNK     1      18.687  -1.626  36.820  1.00  0.00    -0.025 A 
HETATM   23  C16 UNK     1      19.412  -2.816  36.983  1.00  0.00     0.012 A 
HETATM   24  C6  UNK     1      18.702  -0.974  35.563  1.00  0.00    -0.016 A 
HETATM   25  C23 UNK     1      20.142  -3.357  35.924  1.00  0.00     0.001 A 
HETATM   26  C21 UNK     1      20.156  -2.716  34.689  1.00  0.00     0.001 A 
HETATM   27  C10 UNK     1      19.442  -1.531  34.509  1.00  0.00     0.013 A 
ENDBRANCH  17  18
ENDBRANCH   2  16
TORSDOF 6
ENDMDL
MODEL 8
REMARK VINA RESULT:      -8.4      2.422      4.374
REMARK  6 active torsions:
REMARK  status: ('A' for Active; 'I' for Inactive)
REMARK    1  A    between atoms: C5_8  and  O1_1 
REMARK    2  A    between atoms: C9_12  and  O1_1 
REMARK    3  A    between atoms: C1_4  and  C5_8 
REMARK    4  A    between atoms: C17_20  and  C7_10 
REMARK    5  A    between atoms: C13_16  and  C22_25 
REMARK    6  A    between atoms: C22_25  and  C24_27 
ROOT
HETATM    1  O3  UNK     1      18.494   3.964  34.276  1.00  0.00    -0.288 OA
HETATM    2  C22 UNK     1      18.259   4.576  33.240  1.00  0.00     0.182 C 
ENDROOT
BRANCH   2   3
HETATM    3  C13 UNK     1      17.988   6.033  33.292  1.00  0.00     0.014 A 
HETATM    4  C19 UNK     1      16.952   6.548  32.538  1.00  0.00     0.018 A 
HETATM    5  C14 UNK     1      16.697   7.918  32.587  1.00  0.00     0.038 A 
HETATM    6  C9  UNK     1      17.484   8.746  33.388  1.00  0.00     0.079 A 
HETATM    7  C15 UNK     1      18.525   8.203  34.141  1.00  0.00     0.038 A 
HETATM    8  C20 UNK     1      18.780   6.833  34.092  1.00  0.00     0.018 A 
BRANCH   6   9
HETATM    9  O1  UNK     1      17.236  10.084  33.434  1.00  0.00    -0.278 OA
BRANCH   9  10
HETATM   10  C5  UNK     1      16.358  10.480  34.462  1.00  0.00     0.271 C 
HETATM   11  O2  UNK     1      15.831   9.711  35.258  1.00  0.00    -0.264 OA
BRANCH  10  12
HETATM   12  C1  UNK     1      16.152  11.999  34.453  1.00  0.00     0.037 C 
HETATM   13  C2  UNK     1      15.816  12.479  35.872  1.00  0.00     0.025 C 
HETATM   14  C3  UNK     1      17.424  12.687  33.941  1.00  0.00     0.025 C 
HETATM   15  C4  UNK     1      14.985  12.351  33.518  1.00  0.00     0.025 C 
ENDBRANCH  10  12
ENDBRANCH   9  10
ENDBRANCH   6   9
ENDBRANCH   2   3
BRANCH   2  16
HETATM   16  C24 UNK     1      18.263   3.920  31.903  1.00  0.00     0.056 C 
HETATM   17  C17 UNK     1      18.523   2.602  31.797  1.00  0.00     0.016 C 
BRANCH  17  18
HETATM   18  C7  UNK     1      18.571   1.856  30.541  1.00  0.00    -0.025 A 
HETATM   19  C11 UNK     1      17.893   2.419  29.459  1.00  0.00     0.012 A 
HETATM   20  C18 UNK     1      17.889   1.771  28.227  1.00  0.00     0.002 A 
HETATM   21  C12 UNK     1      18.564   0.560  28.072  1.00  0.00     0.012 A 
HETATM   22  C8  UNK     1      19.253  -0.020  29.150  1.00  0.00    -0.025 A 
HETATM   23  C16 UNK     1      19.938  -1.237  29.012  1.00  0.00     0.012 A 
HETATM   24  C6  UNK     1      19.256   0.637  30.403  1.00  0.00    -0.016 A 
HETATM   25  C23 UNK     1      20.616  -1.799  30.093  1.00  0.00     0.001 A 
HETATM   26  C21 UNK     1      20.620  -1.152  31.326  1.00  0.00     0.001 A 
HETATM   27  C10 UNK     1      19.944   0.058  31.481  1.00  0.00     0.013 A 
ENDBRANCH  17  18
ENDBRANCH   2  16
TORSDOF 6
ENDMDL
MODEL 9
REMARK VINA RESULT:      -8.3     10.960     15.061
REMARK  6 active torsions:
REMARK  status: ('A' for Active; 'I' for Inactive)
REMARK    1  A    between atoms: C5_8  and  O1_1 
REMARK    2  A    between atoms: C9_12  and  O1_1 
REMARK    3  A    between atoms: C1_4  and  C5_8 
REMARK    4  A    between atoms: C17_20  and  C7_10 
REMARK    5  A    between atoms: C13_16  and  C22_25 
REMARK    6  A    between atoms: C22_25  and  C24_27 
ROOT
HETATM    1  O3  UNK     1      26.677 -10.266  37.885  1.00  0.00    -0.288 OA
HETATM    2  C22 UNK     1      26.355  -9.087  37.788  1.00  0.00     0.182 C 
ENDROOT
BRANCH   2   3
HETATM    3  C13 UNK     1      24.924  -8.707  37.866  1.00  0.00     0.014 A 
HETATM    4  C19 UNK     1      24.504  -7.886  38.895  1.00  0.00     0.018 A 
HETATM    5  C14 UNK     1      23.159  -7.529  38.967  1.00  0.00     0.038 A 
HETATM    6  C9  UNK     1      22.259  -7.999  38.011  1.00  0.00     0.079 A 
HETATM    7  C15 UNK     1      22.705  -8.827  36.981  1.00  0.00     0.038 A 
HETATM    8  C20 UNK     1      24.051  -9.185  36.908  1.00  0.00     0.018 A 
BRANCH   6   9
HETATM    9  O1  UNK     1      20.944  -7.651  38.083  1.00  0.00    -0.278 OA
BRANCH   9  10
HETATM   10  C5  UNK     1      20.541  -6.692  37.133  1.00  0.00     0.271 C 
HETATM   11  O2  UNK     1      21.099  -5.615  36.957  1.00  0.00    -0.264 OA
BRANCH  10  12
HETATM   12  C1  UNK     1      19.316  -7.177  36.350  1.00  0.00     0.037 C 
HETATM   13  C2  UNK     1      19.014  -8.635  36.720  1.00  0.00     0.025 C 
HETATM   14  C3  UNK     1      18.113  -6.281  36.673  1.00  0.00     0.025 C 
HETATM   15  C4  UNK     1      19.607  -7.094  34.843  1.00  0.00     0.025 C 
ENDBRANCH  10  12
ENDBRANCH   9  10
ENDBRANCH   6   9
ENDBRANCH   2   3
BRANCH   2  16
HETATM   16  C24 UNK     1      27.353  -7.994  37.625  1.00  0.00     0.056 C 
HETATM   17  C17 UNK     1      28.178  -7.675  38.643  1.00  0.00     0.016 C 
BRANCH  17  18
HETATM   18  C7  UNK     1      29.183  -6.613  38.605  1.00  0.00    -0.025 A 
HETATM   19  C11 UNK     1      28.730  -5.322  38.876  1.00  0.00     0.012 A 
HETATM   20  C18 UNK     1      29.623  -4.254  38.860  1.00  0.00     0.002 A 
HETATM   21  C12 UNK     1      30.970  -4.474  38.573  1.00  0.00     0.012 A 
HETATM   22  C8  UNK     1      31.443  -5.767  38.298  1.00  0.00    -0.025 A 
HETATM   23  C16 UNK     1      32.795  -6.007  38.008  1.00  0.00     0.012 A 
HETATM   24  C6  UNK     1      30.535  -6.853  38.313  1.00  0.00    -0.016 A 
HETATM   25  C23 UNK     1      33.247  -7.298  37.736  1.00  0.00     0.001 A 
HETATM   26  C21 UNK     1      32.355  -8.366  37.752  1.00  0.00     0.001 A 
HETATM   27  C10 UNK     1      31.007  -8.146  38.038  1.00  0.00     0.013 A 
ENDBRANCH  17  18
ENDBRANCH   2  16
TORSDOF 6
ENDMDL
MODEL 10
REMARK VINA RESULT:      -8.3      2.769      9.253
REMARK  6 active torsions:
REMARK  status: ('A' for Active; 'I' for Inactive)
REMARK    1  A    between atoms: C5_8  and  O1_1 
REMARK    2  A    between atoms: C9_12  and  O1_1 
REMARK    3  A    between atoms: C1_4  and  C5_8 
REMARK    4  A    between atoms: C17_20  and  C7_10 
REMARK    5  A    between atoms: C13_16  and  C22_25 
REMARK    6  A    between atoms: C22_25  and  C24_27 
ROOT
HETATM    1  O3  UNK     1      19.316   6.286  30.664  1.00  0.00    -0.288 OA
HETATM    2  C22 UNK     1      18.431   6.012  31.466  1.00  0.00     0.182 C 
ENDROOT
BRANCH   2   3
HETATM    3  C13 UNK     1      18.366   4.651  32.051  1.00  0.00     0.014 A 
HETATM    4  C19 UNK     1      18.315   4.514  33.425  1.00  0.00     0.018 A 
HETATM    5  C14 UNK     1      18.252   3.234  33.974  1.00  0.00     0.038 A 
HETATM    6  C9  UNK     1      18.243   2.116  33.141  1.00  0.00     0.079 A 
HETATM    7  C15 UNK     1      18.295   2.278  31.756  1.00  0.00     0.038 A 
HETATM    8  C20 UNK     1      18.358   3.558  31.206  1.00  0.00     0.018 A 
BRANCH   6   9
HETATM    9  O1  UNK     1      18.184   0.866  33.677  1.00  0.00    -0.278 OA
BRANCH   9  10
HETATM   10  C5  UNK     1      17.070   0.640  34.509  1.00  0.00     0.271 C 
HETATM   11  O2  UNK     1      15.903   0.782  34.158  1.00  0.00    -0.264 OA
BRANCH  10  12
HETATM   12  C1  UNK     1      17.510   0.188  35.906  1.00  0.00     0.037 C 
HETATM   13  C2  UNK     1      16.789   1.031  36.967  1.00  0.00     0.025 C 
HETATM   14  C3  UNK     1      17.186  -1.300  36.091  1.00  0.00     0.025 C 
HETATM   15  C4  UNK     1      19.026   0.390  36.055  1.00  0.00     0.025 C 
ENDBRANCH  10  12
ENDBRANCH   9  10
ENDBRANCH   6   9
ENDBRANCH   2   3
BRANCH   2  16
HETATM   16  C24 UNK     1      17.418   7.007  31.916  1.00  0.00     0.056 C 
HETATM   17  C17 UNK     1      17.570   7.639  33.097  1.00  0.00     0.016 C 
BRANCH  17  18
HETATM   18  C7  UNK     1      16.635   8.619  33.647  1.00  0.00    -0.025 A 
HETATM   19  C11 UNK     1      15.320   8.189  33.826  1.00  0.00     0.012 A 
HETATM   20  C18 UNK     1      14.367   9.062  34.345  1.00  0.00     0.002 A 
HETATM   21  C12 UNK     1      14.726  10.365  34.687  1.00  0.00     0.012 A 
HETATM   22  C8  UNK     1      16.046  10.814  34.515  1.00  0.00    -0.025 A 
HETATM   23  C16 UNK     1      16.425  12.122  34.855  1.00  0.00     0.012 A 
HETATM   24  C6  UNK     1      17.015   9.928  33.987  1.00  0.00    -0.016 A 
HETATM   25  C23 UNK     1      17.741  12.551  34.676  1.00  0.00     0.001 A 
HETATM   26  C21 UNK     1      18.693  11.679  34.158  1.00  0.00     0.001 A 
HETATM   27  C10 UNK     1      18.334  10.376  33.814  1.00  0.00     0.013 A 
ENDBRANCH  17  18
ENDBRANCH   2  16
TORSDOF 6
ENDMDL
