MODEL 1
REMARK VINA RESULT:      -8.5      0.000      0.000
REMARK  2 active torsions:
REMARK  status: ('A' for Active; 'I' for Inactive)
REMARK    1  A    between atoms: C7_9  and  O1_1 
REMARK    2  A    between atoms: C12_14  and  C9_11 
ROOT
HETATM    1  O2  UNK     1      18.023   3.908  33.169  1.00  0.00    -0.287 OA
HETATM    2  C1  UNK     1      19.455   1.160  30.403  1.00  0.00     0.047 C 
HETATM    3  C2  UNK     1      18.651   2.348  29.888  1.00  0.00     0.047 C 
HETATM    4  C3  UNK     1      18.955   0.714  31.751  1.00  0.00    -0.010 A 
HETATM    5  C4  UNK     1      18.617   3.449  30.904  1.00  0.00    -0.006 C 
HETATM    6  C5  UNK     1      18.424   1.637  32.668  1.00  0.00     0.024 A 
HETATM    7  C6  UNK     1      18.329   3.079  32.321  1.00  0.00     0.189 C 
HETATM    8  C7  UNK     1      19.070  -0.630  32.126  1.00  0.00     0.075 A 
HETATM    9  C8  UNK     1      17.997   1.210  33.930  1.00  0.00     0.016 A 
HETATM   10  C9  UNK     1      18.833   4.737  30.607  1.00  0.00     0.022 C 
HETATM   11  C10 UNK     1      18.640  -1.054  33.385  1.00  0.00     0.037 A 
HETATM   12  C11 UNK     1      18.103  -0.136  34.284  1.00  0.00     0.004 A 
ENDROOT
BRANCH  10  13
HETATM   13  C12 UNK     1      18.813   5.854  31.566  1.00  0.00    -0.036 A 
HETATM   14  C13 UNK     1      17.664   6.617  31.698  1.00  0.00     0.011 A 
HETATM   15  C16 UNK     1      17.645   7.675  32.606  1.00  0.00     0.001 A 
HETATM   16  C18 UNK     1      18.776   7.957  33.373  1.00  0.00     0.000 A 
HETATM   17  C17 UNK     1      19.926   7.180  33.229  1.00  0.00     0.001 A 
HETATM   18  C14 UNK     1      19.945   6.123  32.319  1.00  0.00     0.011 A 
ENDBRANCH  10  13
BRANCH   8  19
HETATM   19  O1  UNK     1      19.596  -1.559  31.276  1.00  0.00    -0.355 OA
HETATM   20  C15 UNK     1      20.709  -2.312  31.750  1.00  0.00     0.210 C 
ENDBRANCH   8  19
TORSDOF 2
ENDMDL
MODEL 2
REMARK VINA RESULT:      -7.8      3.533      8.552
REMARK  2 active torsions:
REMARK  status: ('A' for Active; 'I' for Inactive)
REMARK    1  A    between atoms: C7_9  and  O1_1 
REMARK    2  A    between atoms: C12_14  and  C9_11 
ROOT
HETATM    1  O2  UNK     1      17.222   7.064  32.578  1.00  0.00    -0.287 OA
HETATM    2  C1  UNK     1      19.449  10.166  34.211  1.00  0.00     0.047 C 
HETATM    3  C2  UNK     1      19.825   8.737  34.584  1.00  0.00     0.047 C 
HETATM    4  C3  UNK     1      17.962  10.299  34.014  1.00  0.00    -0.010 A 
HETATM    5  C4  UNK     1      19.267   7.764  33.589  1.00  0.00    -0.006 C 
HETATM    6  C5  UNK     1      17.201   9.232  33.509  1.00  0.00     0.024 A 
HETATM    7  C6  UNK     1      17.845   7.937  33.170  1.00  0.00     0.189 C 
HETATM    8  C7  UNK     1      17.331  11.520  34.284  1.00  0.00     0.075 A 
HETATM    9  C8  UNK     1      15.826   9.386  33.299  1.00  0.00     0.016 A 
HETATM   10  C9  UNK     1      19.975   6.757  33.061  1.00  0.00     0.022 C 
HETATM   11  C10 UNK     1      15.959  11.669  34.076  1.00  0.00     0.037 A 
HETATM   12  C11 UNK     1      15.208  10.603  33.587  1.00  0.00     0.004 A 
ENDROOT
BRANCH  10  13
HETATM   13  C12 UNK     1      19.476   5.778  32.082  1.00  0.00    -0.036 A 
HETATM   14  C13 UNK     1      18.793   4.657  32.528  1.00  0.00     0.011 A 
HETATM   15  C16 UNK     1      18.320   3.729  31.600  1.00  0.00     0.001 A 
HETATM   16  C18 UNK     1      18.536   3.933  30.237  1.00  0.00     0.000 A 
HETATM   17  C17 UNK     1      19.225   5.066  29.802  1.00  0.00     0.001 A 
HETATM   18  C14 UNK     1      19.699   5.994  30.731  1.00  0.00     0.011 A 
ENDBRANCH  10  13
BRANCH   8  19
HETATM   19  O1  UNK     1      18.033  12.589  34.759  1.00  0.00    -0.355 OA
HETATM   20  C15 UNK     1      18.195  13.699  33.879  1.00  0.00     0.210 C 
ENDBRANCH   8  19
TORSDOF 2
ENDMDL
MODEL 3
REMARK VINA RESULT:      -7.2     22.659     23.564
REMARK  2 active torsions:
REMARK  status: ('A' for Active; 'I' for Inactive)
REMARK    1  A    between atoms: C7_9  and  O1_1 
REMARK    2  A    between atoms: C12_14  and  C9_11 
ROOT
HETATM    1  O2  UNK     1      17.871   8.780   9.708  1.00  0.00    -0.287 OA
HETATM    2  C1  UNK     1      13.781   8.781  10.431  1.00  0.00     0.047 C 
HETATM    3  C2  UNK     1      14.649   9.768  11.204  1.00  0.00     0.047 C 
HETATM    4  C3  UNK     1      14.522   7.496  10.175  1.00  0.00    -0.010 A 
HETATM    5  C4  UNK     1      15.966   9.968  10.518  1.00  0.00    -0.006 C 
HETATM    6  C5  UNK     1      15.914   7.490   9.981  1.00  0.00     0.024 A 
HETATM    7  C6  UNK     1      16.692   8.755  10.038  1.00  0.00     0.189 C 
HETATM    8  C7  UNK     1      13.814   6.292  10.072  1.00  0.00     0.075 A 
HETATM    9  C8  UNK     1      16.582   6.291   9.708  1.00  0.00     0.016 A 
HETATM   10  C9  UNK     1      16.519  11.171  10.313  1.00  0.00     0.022 C 
HETATM   11  C10 UNK     1      14.484   5.097   9.804  1.00  0.00     0.037 A 
HETATM   12  C11 UNK     1      15.865   5.097   9.625  1.00  0.00     0.004 A 
ENDROOT
BRANCH  10  13
HETATM   13  C12 UNK     1      17.806  11.421   9.645  1.00  0.00    -0.036 A 
HETATM   14  C13 UNK     1      17.862  11.438   8.260  1.00  0.00     0.011 A 
HETATM   15  C16 UNK     1      19.082  11.676   7.627  1.00  0.00     0.001 A 
HETATM   16  C18 UNK     1      20.232  11.893   8.386  1.00  0.00     0.000 A 
HETATM   17  C17 UNK     1      20.161  11.873   9.779  1.00  0.00     0.001 A 
HETATM   18  C14 UNK     1      18.940  11.634  10.413  1.00  0.00     0.011 A 
ENDBRANCH  10  13
BRANCH   8  19
HETATM   19  O1  UNK     1      12.460   6.252  10.236  1.00  0.00    -0.355 OA
HETATM   20  C15 UNK     1      11.719   5.468   9.305  1.00  0.00     0.210 C 
ENDBRANCH   8  19
TORSDOF 2
ENDMDL
MODEL 4
REMARK VINA RESULT:      -7.1     22.886     25.033
REMARK  2 active torsions:
REMARK  status: ('A' for Active; 'I' for Inactive)
REMARK    1  A    between atoms: C7_9  and  O1_1 
REMARK    2  A    between atoms: C12_14  and  C9_11 
ROOT
HETATM    1  O2  UNK     1      11.858   7.999   8.560  1.00  0.00    -0.287 OA
HETATM    2  C1  UNK     1      15.433   6.045   9.368  1.00  0.00     0.047 C 
HETATM    3  C2  UNK     1      14.136   5.395   9.836  1.00  0.00     0.047 C 
HETATM    4  C3  UNK     1      15.338   7.546   9.432  1.00  0.00    -0.010 A 
HETATM    5  C4  UNK     1      12.963   5.950   9.086  1.00  0.00    -0.006 C 
HETATM    6  C5  UNK     1      14.118   8.204   9.209  1.00  0.00     0.024 A 
HETATM    7  C6  UNK     1      12.883   7.431   8.917  1.00  0.00     0.189 C 
HETATM    8  C7  UNK     1      16.492   8.307   9.662  1.00  0.00     0.075 A 
HETATM    9  C8  UNK     1      14.056   9.602   9.237  1.00  0.00     0.016 A 
HETATM   10  C9  UNK     1      11.992   5.189   8.564  1.00  0.00     0.022 C 
HETATM   11  C10 UNK     1      16.426   9.701   9.693  1.00  0.00     0.037 A 
HETATM   12  C11 UNK     1      15.210  10.346   9.483  1.00  0.00     0.004 A 
ENDROOT
BRANCH  10  13
HETATM   13  C12 UNK     1      10.822   5.683   7.819  1.00  0.00    -0.036 A 
HETATM   14  C13 UNK     1       9.629   5.900   8.491  1.00  0.00     0.011 A 
HETATM   15  C16 UNK     1       8.521   6.368   7.785  1.00  0.00     0.001 A 
HETATM   16  C18 UNK     1       8.619   6.615   6.416  1.00  0.00     0.000 A 
HETATM   17  C17 UNK     1       9.826   6.392   5.752  1.00  0.00     0.001 A 
HETATM   18  C14 UNK     1      10.934   5.923   6.458  1.00  0.00     0.011 A 
ENDBRANCH  10  13
BRANCH   8  19
HETATM   19  O1  UNK     1      17.702   7.712   9.868  1.00  0.00    -0.355 OA
HETATM   20  C15 UNK     1      18.057   7.415  11.216  1.00  0.00     0.210 C 
ENDBRANCH   8  19
TORSDOF 2
ENDMDL
MODEL 5
REMARK VINA RESULT:      -7.1      3.124      5.140
REMARK  2 active torsions:
REMARK  status: ('A' for Active; 'I' for Inactive)
REMARK    1  A    between atoms: C7_9  and  O1_1 
REMARK    2  A    between atoms: C12_14  and  C9_11 
ROOT
HETATM    1  O2  UNK     1      18.083  -0.101  32.222  1.00  0.00    -0.287 OA
HETATM    2  C1  UNK     1      21.196  -2.472  33.615  1.00  0.00     0.047 C 
HETATM    3  C2  UNK     1      20.772  -2.623  32.158  1.00  0.00     0.047 C 
HETATM    4  C3  UNK     1      20.014  -2.152  34.490  1.00  0.00    -0.010 A 
HETATM    5  C4  UNK     1      20.002  -1.422  31.701  1.00  0.00    -0.006 C 
HETATM    6  C5  UNK     1      18.937  -1.392  34.003  1.00  0.00     0.024 A 
HETATM    7  C6  UNK     1      18.933  -0.897  32.602  1.00  0.00     0.189 C 
HETATM    8  C7  UNK     1      20.006  -2.566  35.828  1.00  0.00     0.075 A 
HETATM    9  C8  UNK     1      17.863  -1.073  34.842  1.00  0.00     0.016 A 
HETATM   10  C9  UNK     1      20.224  -0.799  30.536  1.00  0.00     0.022 C 
HETATM   11  C10 UNK     1      18.932  -2.250  36.661  1.00  0.00     0.037 A 
HETATM   12  C11 UNK     1      17.862  -1.507  36.168  1.00  0.00     0.004 A 
ENDROOT
BRANCH  10  13
HETATM   13  C12 UNK     1      19.498   0.382  30.042  1.00  0.00    -0.036 A 
HETATM   14  C13 UNK     1      18.741   0.282  28.886  1.00  0.00     0.011 A 
HETATM   15  C16 UNK     1      18.053   1.402  28.418  1.00  0.00     0.001 A 
HETATM   16  C18 UNK     1      18.130   2.609  29.113  1.00  0.00     0.000 A 
HETATM   17  C17 UNK     1      18.896   2.695  30.276  1.00  0.00     0.001 A 
HETATM   18  C14 UNK     1      19.585   1.575  30.743  1.00  0.00     0.011 A 
ENDBRANCH  10  13
BRANCH   8  19
HETATM   19  O1  UNK     1      21.038  -3.291  36.350  1.00  0.00    -0.355 OA
HETATM   20  C15 UNK     1      20.711  -4.254  37.349  1.00  0.00     0.210 C 
ENDBRANCH   8  19
TORSDOF 2
ENDMDL
MODEL 6
REMARK VINA RESULT:      -7.1     13.848     16.342
REMARK  2 active torsions:
REMARK  status: ('A' for Active; 'I' for Inactive)
REMARK    1  A    between atoms: C7_9  and  O1_1 
REMARK    2  A    between atoms: C12_14  and  C9_11 
ROOT
HETATM    1  O2  UNK     1      31.071  -7.581  38.117  1.00  0.00    -0.287 OA
HETATM    2  C1  UNK     1      27.493  -5.483  38.342  1.00  0.00     0.047 C 
HETATM    3  C2  UNK     1      28.755  -4.813  38.874  1.00  0.00     0.047 C 
HETATM    4  C3  UNK     1      27.535  -6.971  38.570  1.00  0.00    -0.010 A 
HETATM    5  C4  UNK     1      29.981  -5.467  38.312  1.00  0.00    -0.006 C 
HETATM    6  C5  UNK     1      28.752  -7.673  38.544  1.00  0.00     0.024 A 
HETATM    7  C6  UNK     1      30.033  -6.959  38.305  1.00  0.00     0.189 C 
HETATM    8  C7  UNK     1      26.342  -7.680  38.755  1.00  0.00     0.075 A 
HETATM    9  C8  UNK     1      28.768  -9.061  38.722  1.00  0.00     0.016 A 
HETATM   10  C9  UNK     1      31.023  -4.785  37.818  1.00  0.00     0.022 C 
HETATM   11  C10 UNK     1      26.362  -9.064  38.936  1.00  0.00     0.037 A 
HETATM   12  C11 UNK     1      27.573  -9.752  38.922  1.00  0.00     0.004 A 
ENDROOT
BRANCH  10  13
HETATM   13  C12 UNK     1      32.247  -5.377  37.254  1.00  0.00    -0.036 A 
HETATM   14  C13 UNK     1      33.328  -5.626  38.085  1.00  0.00     0.011 A 
HETATM   15  C16 UNK     1      34.487  -6.188  37.551  1.00  0.00     0.001 A 
HETATM   16  C18 UNK     1      34.552  -6.494  36.192  1.00  0.00     0.000 A 
HETATM   17  C17 UNK     1      33.456  -6.238  35.367  1.00  0.00     0.001 A 
HETATM   18  C14 UNK     1      32.297  -5.676  35.902  1.00  0.00     0.011 A 
ENDBRANCH  10  13
BRANCH   8  19
HETATM   19  O1  UNK     1      25.136  -7.043  38.771  1.00  0.00    -0.355 OA
HETATM   20  C15 UNK     1      23.980  -7.852  38.978  1.00  0.00     0.210 C 
ENDBRANCH   8  19
TORSDOF 2
ENDMDL
MODEL 7
REMARK VINA RESULT:      -6.9     23.254     25.082
REMARK  2 active torsions:
REMARK  status: ('A' for Active; 'I' for Inactive)
REMARK    1  A    between atoms: C7_9  and  O1_1 
REMARK    2  A    between atoms: C12_14  and  C9_11 
ROOT
HETATM    1  O2  UNK     1      12.097   9.213   9.521  1.00  0.00    -0.287 OA
HETATM    2  C1  UNK     1      10.536   5.867   7.619  1.00  0.00     0.047 C 
HETATM    3  C2  UNK     1      11.636   6.649   6.911  1.00  0.00     0.047 C 
HETATM    4  C3  UNK     1       9.653   6.784   8.423  1.00  0.00    -0.010 A 
HETATM    5  C4  UNK     1      12.393   7.501   7.885  1.00  0.00    -0.006 C 
HETATM    6  C5  UNK     1      10.171   7.943   9.025  1.00  0.00     0.024 A 
HETATM    7  C6  UNK     1      11.605   8.301   8.869  1.00  0.00     0.189 C 
HETATM    8  C7  UNK     1       8.307   6.454   8.625  1.00  0.00     0.075 A 
HETATM    9  C8  UNK     1       9.343   8.765   9.798  1.00  0.00     0.016 A 
HETATM   10  C9  UNK     1      13.730   7.579   7.917  1.00  0.00     0.022 C 
HETATM   11  C10 UNK     1       7.483   7.278   9.394  1.00  0.00     0.037 A 
HETATM   12  C11 UNK     1       8.001   8.432   9.977  1.00  0.00     0.004 A 
ENDROOT
BRANCH  10  13
HETATM   13  C12 UNK     1      14.520   8.397   8.852  1.00  0.00    -0.036 A 
HETATM   14  C13 UNK     1      14.868   9.690   8.497  1.00  0.00     0.011 A 
HETATM   15  C16 UNK     1      15.616  10.466   9.382  1.00  0.00     0.001 A 
HETATM   16  C18 UNK     1      16.007   9.938  10.613  1.00  0.00     0.000 A 
HETATM   17  C17 UNK     1      15.649   8.634  10.957  1.00  0.00     0.001 A 
HETATM   18  C14 UNK     1      14.901   7.859  10.071  1.00  0.00     0.011 A 
ENDBRANCH  10  13
BRANCH   8  19
HETATM   19  O1  UNK     1       7.765   5.330   8.075  1.00  0.00    -0.355 OA
HETATM   20  C15 UNK     1       7.356   4.302   8.974  1.00  0.00     0.210 C 
ENDBRANCH   8  19
TORSDOF 2
ENDMDL
MODEL 8
REMARK VINA RESULT:      -6.9     14.305     16.013
REMARK  2 active torsions:
REMARK  status: ('A' for Active; 'I' for Inactive)
REMARK    1  A    between atoms: C7_9  and  O1_1 
REMARK    2  A    between atoms: C12_14  and  C9_11 
ROOT
HETATM    1  O2  UNK     1      28.402  -7.035  36.561  1.00  0.00    -0.287 OA
HETATM    2  C1  UNK     1      31.525  -4.412  37.343  1.00  0.00     0.047 C 
HETATM    3  C2  UNK     1      30.147  -4.078  37.904  1.00  0.00     0.047 C 
HETATM    4  C3  UNK     1      31.412  -5.108  36.013  1.00  0.00    -0.010 A 
HETATM    5  C4  UNK     1      29.280  -5.300  37.943  1.00  0.00    -0.006 C 
HETATM    6  C5  UNK     1      30.329  -5.957  35.730  1.00  0.00     0.024 A 
HETATM    7  C6  UNK     1      29.256  -6.176  36.735  1.00  0.00     0.189 C 
HETATM    8  C7  UNK     1      32.428  -4.957  35.060  1.00  0.00     0.075 A 
HETATM    9  C8  UNK     1      30.259  -6.624  34.502  1.00  0.00     0.016 A 
HETATM   10  C9  UNK     1      28.531  -5.642  39.000  1.00  0.00     0.022 C 
HETATM   11  C10 UNK     1      32.353  -5.622  33.835  1.00  0.00     0.037 A 
HETATM   12  C11 UNK     1      31.270  -6.451  33.556  1.00  0.00     0.004 A 
ENDROOT
BRANCH  10  13
HETATM   13  C12 UNK     1      27.665  -6.829  39.090  1.00  0.00    -0.036 A 
HETATM   14  C13 UNK     1      26.342  -6.737  38.689  1.00  0.00     0.011 A 
HETATM   15  C16 UNK     1      25.521  -7.862  38.775  1.00  0.00     0.001 A 
HETATM   16  C18 UNK     1      26.034  -9.065  39.259  1.00  0.00     0.000 A 
HETATM   17  C17 UNK     1      27.368  -9.143  39.659  1.00  0.00     0.001 A 
HETATM   18  C14 UNK     1      28.189  -8.017  39.575  1.00  0.00     0.011 A 
ENDBRANCH  10  13
BRANCH   8  19
HETATM   19  O1  UNK     1      33.507  -4.158  35.298  1.00  0.00    -0.355 OA
HETATM   20  C15 UNK     1      34.793  -4.768  35.223  1.00  0.00     0.210 C 
ENDBRANCH   8  19
TORSDOF 2
ENDMDL
MODEL 9
REMARK VINA RESULT:      -6.9      4.704      7.113
REMARK  2 active torsions:
REMARK  status: ('A' for Active; 'I' for Inactive)
REMARK    1  A    between atoms: C7_9  and  O1_1 
REMARK    2  A    between atoms: C12_14  and  C9_11 
ROOT
HETATM    1  O2  UNK     1      16.672   9.507  35.007  1.00  0.00    -0.287 OA
HETATM    2  C1  UNK     1      16.572   7.745  31.248  1.00  0.00     0.047 C 
HETATM    3  C2  UNK     1      15.249   7.981  31.967  1.00  0.00     0.047 C 
HETATM    4  C3  UNK     1      17.668   7.420  32.227  1.00  0.00    -0.010 A 
HETATM    5  C4  UNK     1      15.407   9.009  33.046  1.00  0.00    -0.006 C 
HETATM    6  C5  UNK     1      17.675   7.977  33.517  1.00  0.00     0.024 A 
HETATM    7  C6  UNK     1      16.588   8.892  33.952  1.00  0.00     0.189 C 
HETATM    8  C7  UNK     1      18.731   6.596  31.835  1.00  0.00     0.075 A 
HETATM    9  C8  UNK     1      18.721   7.692  34.402  1.00  0.00     0.016 A 
HETATM   10  C9  UNK     1      14.550  10.021  33.235  1.00  0.00     0.022 C 
HETATM   11  C10 UNK     1      19.771   6.311  32.721  1.00  0.00     0.037 A 
HETATM   12  C11 UNK     1      19.765   6.856  34.003  1.00  0.00     0.004 A 
ENDROOT
BRANCH  10  13
HETATM   13  C12 UNK     1      14.660  11.056  34.276  1.00  0.00    -0.036 A 
HETATM   14  C13 UNK     1      15.375  12.214  34.012  1.00  0.00     0.011 A 
HETATM   15  C16 UNK     1      15.480  13.194  34.998  1.00  0.00     0.001 A 
HETATM   16  C18 UNK     1      14.867  13.006  36.237  1.00  0.00     0.000 A 
HETATM   17  C17 UNK     1      14.151  11.836  36.489  1.00  0.00     0.001 A 
HETATM   18  C14 UNK     1      14.047  10.854  35.503  1.00  0.00     0.011 A 
ENDBRANCH  10  13
BRANCH   8  19
HETATM   19  O1  UNK     1      18.776   6.047  30.587  1.00  0.00    -0.355 OA
HETATM   20  C15 UNK     1      20.064   5.870  30.004  1.00  0.00     0.210 C 
ENDBRANCH   8  19
TORSDOF 2
ENDMDL
MODEL 10
REMARK VINA RESULT:      -6.9      4.767      9.663
REMARK  2 active torsions:
REMARK  status: ('A' for Active; 'I' for Inactive)
REMARK    1  A    between atoms: C7_9  and  O1_1 
REMARK    2  A    between atoms: C12_14  and  C9_11 
ROOT
HETATM    1  O2  UNK     1      17.913   9.275  33.088  1.00  0.00    -0.287 OA
HETATM    2  C1  UNK     1      14.366  10.202  35.040  1.00  0.00     0.047 C 
HETATM    3  C2  UNK     1      14.286   9.416  33.737  1.00  0.00     0.047 C 
HETATM    4  C3  UNK     1      15.514  11.176  35.014  1.00  0.00    -0.010 A 
HETATM    5  C4  UNK     1      15.603   8.775  33.420  1.00  0.00    -0.006 C 
HETATM    6  C5  UNK     1      16.695  10.884  34.311  1.00  0.00     0.024 A 
HETATM    7  C6  UNK     1      16.834   9.608  33.562  1.00  0.00     0.189 C 
HETATM    8  C7  UNK     1      15.432  12.368  35.744  1.00  0.00     0.075 A 
HETATM    9  C8  UNK     1      17.765  11.785  34.327  1.00  0.00     0.016 A 
HETATM   10  C9  UNK     1      15.730   7.503  33.022  1.00  0.00     0.022 C 
HETATM   11  C10 UNK     1      16.500  13.267  35.755  1.00  0.00     0.037 A 
HETATM   12  C11 UNK     1      17.663  12.977  35.045  1.00  0.00     0.004 A 
ENDROOT
BRANCH  10  13
HETATM   13  C12 UNK     1      16.997   6.826  32.701  1.00  0.00    -0.036 A 
HETATM   14  C13 UNK     1      17.494   6.889  31.409  1.00  0.00     0.011 A 
HETATM   15  C16 UNK     1      18.695   6.248  31.104  1.00  0.00     0.001 A 
HETATM   16  C18 UNK     1      19.385   5.552  32.097  1.00  0.00     0.000 A 
HETATM   17  C17 UNK     1      18.874   5.498  33.394  1.00  0.00     0.001 A 
HETATM   18  C14 UNK     1      17.672   6.138  33.697  1.00  0.00     0.011 A 
ENDBRANCH  10  13
BRANCH   8  19
HETATM   19  O1  UNK     1      14.312  12.686  36.456  1.00  0.00    -0.355 OA
HETATM   20  C15 UNK     1      14.466  12.853  37.863  1.00  0.00     0.210 C 
ENDBRANCH   8  19
TORSDOF 2
ENDMDL
