MODEL 1
REMARK VINA RESULT:     -10.4      0.000      0.000
REMARK  5 active torsions:
REMARK  status: ('A' for Active; 'I' for Inactive)
REMARK    1  A    between atoms: C5_11  and  N1_4 
REMARK    2  A    between atoms: C6_12  and  N2_5 
REMARK    3  A    between atoms: C17_23  and  N3_6 
REMARK       I    between atoms: C9_15  and  N3_6 
REMARK    4  A    between atoms: C5_11  and  C7_13 
REMARK    5  A    between atoms: C6_12  and  C9_15 
ROOT
HETATM    1  N1  UNK     1      19.272  -3.203  36.417  1.00  0.00     0.096 N 
HETATM    2  N2  UNK     1      18.295  -0.559  35.774  1.00  0.00     0.100 N 
HETATM    3  C1  UNK     1      19.996  -2.327  35.487  1.00  0.00     0.303 C 
HETATM    4  C2  UNK     1      18.531  -2.405  37.401  1.00  0.00     0.303 C 
HETATM    5  C3  UNK     1      19.035  -1.359  34.791  1.00  0.00     0.303 C 
HETATM    6  C4  UNK     1      17.570  -1.434  36.704  1.00  0.00     0.303 C 
ENDROOT
BRANCH   1   7
HETATM    7  C5  UNK     1      20.191  -4.125  37.083  1.00  0.00     0.312 C 
BRANCH   7   8
HETATM    8  C7  UNK     1      20.156  -5.486  36.481  1.00  0.00    -0.011 A 
HETATM    9  C10 UNK     1      20.254  -5.660  35.155  1.00  0.00     0.092 A 
HETATM   10  C13 UNK     1      20.224  -6.985  34.514  1.00  0.00     0.288 A 
HETATM   11  O1  UNK     1      20.089  -8.080  35.353  1.00  0.00    -0.275 OA
HETATM   12  O3  UNK     1      20.316  -7.105  33.298  1.00  0.00    -0.260 OA
HETATM   13  C11 UNK     1      19.984  -7.929  36.750  1.00  0.00     0.090 A 
HETATM   14  C8  UNK     1      20.013  -6.667  37.343  1.00  0.00     0.006 A 
HETATM   15  C14 UNK     1      19.851  -9.101  37.497  1.00  0.00     0.045 A 
HETATM   16  C12 UNK     1      19.903  -6.602  38.739  1.00  0.00     0.015 A 
HETATM   17  C16 UNK     1      19.769  -7.768  39.501  1.00  0.00     0.007 A 
HETATM   18  C15 UNK     1      19.743  -9.016  38.881  1.00  0.00    -0.059 A 
HETATM   19  C18 UNK     1      19.601 -10.254  39.699  1.00  0.00     0.048 C 
ENDBRANCH   7   8
ENDBRANCH   1   7
BRANCH   2  20
HETATM   20  C6  UNK     1      17.377   0.364  35.110  1.00  0.00     0.375 C 
BRANCH  20  21
HETATM   21  C9  UNK     1      18.160   1.538  34.548  1.00  0.00     0.250 C 
HETATM   22  O2  UNK     1      19.093   2.059  35.151  1.00  0.00    -0.271 OA
HETATM   23  N3  UNK     1      17.663   1.894  33.296  1.00  0.00    -0.326 N 
HETATM   24  H15 UNK     1      16.885   1.354  32.925  1.00  0.00     0.169 HD
BRANCH  23  25
HETATM   25  C17 UNK     1      18.118   2.932  32.450  1.00  0.00     0.034 A 
HETATM   26  C19 UNK     1      18.451   2.656  31.123  1.00  0.00     0.030 A 
HETATM   27  C21 UNK     1      18.899   3.680  30.289  1.00  0.00     0.009 A 
HETATM   28  C23 UNK     1      19.015   4.980  30.781  1.00  0.00    -0.062 A 
HETATM   29  C22 UNK     1      18.683   5.256  32.107  1.00  0.00     0.009 A 
HETATM   30  C24 UNK     1      19.494   6.074  29.888  1.00  0.00     0.048 C 
HETATM   31  C20 UNK     1      18.234   4.233  32.941  1.00  0.00     0.030 A 
ENDBRANCH  23  25
ENDBRANCH  20  21
ENDBRANCH   2  20
TORSDOF 5
ENDMDL
MODEL 2
REMARK VINA RESULT:      -9.3      5.962     12.958
REMARK  5 active torsions:
REMARK  status: ('A' for Active; 'I' for Inactive)
REMARK    1  A    between atoms: C5_11  and  N1_4 
REMARK    2  A    between atoms: C6_12  and  N2_5 
REMARK    3  A    between atoms: C17_23  and  N3_6 
REMARK       I    between atoms: C9_15  and  N3_6 
REMARK    4  A    between atoms: C5_11  and  C7_13 
REMARK    5  A    between atoms: C6_12  and  C9_15 
ROOT
HETATM    1  N1  UNK     1      18.249   6.043  32.114  1.00  0.00     0.096 N 
HETATM    2  N2  UNK     1      18.938   4.004  30.184  1.00  0.00     0.100 N 
HETATM    3  C1  UNK     1      18.093   4.617  32.423  1.00  0.00     0.303 C 
HETATM    4  C2  UNK     1      19.338   6.243  31.151  1.00  0.00     0.303 C 
HETATM    5  C3  UNK     1      17.848   3.806  31.147  1.00  0.00     0.303 C 
HETATM    6  C4  UNK     1      19.094   5.430  29.874  1.00  0.00     0.303 C 
ENDROOT
BRANCH   1   7
HETATM    7  C5  UNK     1      18.485   6.815  33.333  1.00  0.00     0.312 C 
BRANCH   7   8
HETATM    8  C7  UNK     1      17.331   7.690  33.676  1.00  0.00    -0.011 A 
HETATM    9  C10 UNK     1      16.088   7.195  33.768  1.00  0.00     0.092 A 
HETATM   10  C13 UNK     1      14.916   8.021  34.105  1.00  0.00     0.288 A 
HETATM   11  O1  UNK     1      15.148   9.368  34.331  1.00  0.00    -0.275 OA
HETATM   12  O3  UNK     1      13.795   7.532  34.179  1.00  0.00    -0.260 OA
HETATM   13  C11 UNK     1      16.443   9.918  34.242  1.00  0.00     0.090 A 
HETATM   14  C8  UNK     1      17.544   9.123  33.922  1.00  0.00     0.006 A 
HETATM   15  C14 UNK     1      16.558  11.288  34.490  1.00  0.00     0.045 A 
HETATM   16  C12 UNK     1      18.797   9.746  33.853  1.00  0.00     0.015 A 
HETATM   17  C16 UNK     1      18.929  11.118  34.098  1.00  0.00     0.007 A 
HETATM   18  C15 UNK     1      17.811  11.887  34.416  1.00  0.00    -0.059 A 
HETATM   19  C18 UNK     1      17.959  13.347  34.678  1.00  0.00     0.048 C 
ENDBRANCH   7   8
ENDBRANCH   1   7
BRANCH   2  20
HETATM   20  C6  UNK     1      18.704   3.231  28.966  1.00  0.00     0.375 C 
BRANCH  20  21
HETATM   21  C9  UNK     1      18.609   1.756  29.314  1.00  0.00     0.250 C 
HETATM   22  O2  UNK     1      17.590   1.097  29.124  1.00  0.00    -0.271 OA
HETATM   23  N3  UNK     1      19.814   1.307  29.848  1.00  0.00    -0.326 N 
HETATM   24  H15 UNK     1      20.574   1.979  29.933  1.00  0.00     0.169 HD
BRANCH  23  25
HETATM   25  C17 UNK     1      20.128   0.002  30.294  1.00  0.00     0.034 A 
HETATM   26  C19 UNK     1      20.601  -0.950  29.390  1.00  0.00     0.030 A 
HETATM   27  C21 UNK     1      20.911  -2.237  29.831  1.00  0.00     0.009 A 
HETATM   28  C23 UNK     1      20.748  -2.572  31.175  1.00  0.00    -0.062 A 
HETATM   29  C22 UNK     1      20.275  -1.621  32.079  1.00  0.00     0.009 A 
HETATM   30  C24 UNK     1      21.080  -3.948  31.645  1.00  0.00     0.048 C 
HETATM   31  C20 UNK     1      19.966  -0.334  31.639  1.00  0.00     0.030 A 
ENDBRANCH  23  25
ENDBRANCH  20  21
ENDBRANCH   2  20
TORSDOF 5
ENDMDL
MODEL 3
REMARK VINA RESULT:      -9.2      6.360      9.630
REMARK  5 active torsions:
REMARK  status: ('A' for Active; 'I' for Inactive)
REMARK    1  A    between atoms: C5_11  and  N1_4 
REMARK    2  A    between atoms: C6_12  and  N2_5 
REMARK    3  A    between atoms: C17_23  and  N3_6 
REMARK       I    between atoms: C9_15  and  N3_6 
REMARK    4  A    between atoms: C5_11  and  C7_13 
REMARK    5  A    between atoms: C6_12  and  C9_15 
ROOT
HETATM    1  N1  UNK     1      18.442   4.944  32.566  1.00  0.00     0.096 N 
HETATM    2  N2  UNK     1      18.615   7.745  33.260  1.00  0.00     0.100 N 
HETATM    3  C1  UNK     1      17.236   5.754  32.774  1.00  0.00     0.303 C 
HETATM    4  C2  UNK     1      19.545   5.782  32.082  1.00  0.00     0.303 C 
HETATM    5  C3  UNK     1      17.513   6.905  33.746  1.00  0.00     0.303 C 
HETATM    6  C4  UNK     1      19.822   6.935  33.053  1.00  0.00     0.303 C 
ENDROOT
BRANCH   1   7
HETATM    7  C5  UNK     1      18.177   3.847  31.636  1.00  0.00     0.312 C 
BRANCH   7   8
HETATM    8  C7  UNK     1      18.381   2.514  32.267  1.00  0.00    -0.011 A 
HETATM    9  C10 UNK     1      18.066   2.300  33.553  1.00  0.00     0.092 A 
HETATM   10  C13 UNK     1      18.250   1.000  34.220  1.00  0.00     0.288 A 
HETATM   11  O1  UNK     1      18.775  -0.026  33.450  1.00  0.00    -0.275 OA
HETATM   12  O3  UNK     1      17.951   0.841  35.398  1.00  0.00    -0.260 OA
HETATM   13  C11 UNK     1      19.116   0.168  32.097  1.00  0.00     0.090 A 
HETATM   14  C8  UNK     1      18.936   1.406  31.478  1.00  0.00     0.006 A 
HETATM   15  C14 UNK     1      19.637  -0.936  31.418  1.00  0.00     0.045 A 
HETATM   16  C12 UNK     1      19.300   1.517  30.129  1.00  0.00     0.015 A 
HETATM   17  C16 UNK     1      19.824   0.420  29.436  1.00  0.00     0.007 A 
HETATM   18  C15 UNK     1      19.992  -0.804  30.080  1.00  0.00    -0.059 A 
HETATM   19  C18 UNK     1      20.550  -1.969  29.335  1.00  0.00     0.048 C 
ENDBRANCH   7   8
ENDBRANCH   1   7
BRANCH   2  20
HETATM   20  C6  UNK     1      18.880   8.842  34.188  1.00  0.00     0.375 C 
BRANCH  20  21
HETATM   21  C9  UNK     1      17.895   9.970  33.932  1.00  0.00     0.250 C 
HETATM   22  O2  UNK     1      18.233  11.045  33.446  1.00  0.00    -0.271 OA
HETATM   23  N3  UNK     1      16.613   9.587  34.320  1.00  0.00    -0.326 N 
HETATM   24  H15 UNK     1      16.493   8.651  34.700  1.00  0.00     0.169 HD
BRANCH  23  25
HETATM   25  C17 UNK     1      15.424  10.350  34.244  1.00  0.00     0.034 A 
HETATM   26  C19 UNK     1      15.125  11.278  35.243  1.00  0.00     0.030 A 
HETATM   27  C21 UNK     1      13.953  12.029  35.168  1.00  0.00     0.009 A 
HETATM   28  C23 UNK     1      13.079  11.854  34.096  1.00  0.00    -0.062 A 
HETATM   29  C22 UNK     1      13.376  10.926  33.098  1.00  0.00     0.009 A 
HETATM   30  C24 UNK     1      11.825  12.659  34.016  1.00  0.00     0.048 C 
HETATM   31  C20 UNK     1      14.549  10.175  33.171  1.00  0.00     0.030 A 
ENDBRANCH  23  25
ENDBRANCH  20  21
ENDBRANCH   2  20
TORSDOF 5
ENDMDL
MODEL 4
REMARK VINA RESULT:      -9.1      4.835      8.368
REMARK  5 active torsions:
REMARK  status: ('A' for Active; 'I' for Inactive)
REMARK    1  A    between atoms: C5_11  and  N1_4 
REMARK    2  A    between atoms: C6_12  and  N2_5 
REMARK    3  A    between atoms: C17_23  and  N3_6 
REMARK       I    between atoms: C9_15  and  N3_6 
REMARK    4  A    between atoms: C5_11  and  C7_13 
REMARK    5  A    between atoms: C6_12  and  C9_15 
ROOT
HETATM    1  N1  UNK     1      18.825   3.637  31.375  1.00  0.00     0.096 N 
HETATM    2  N2  UNK     1      19.179   6.315  32.404  1.00  0.00     0.100 N 
HETATM    3  C1  UNK     1      17.981   4.156  32.458  1.00  0.00     0.303 C 
HETATM    4  C2  UNK     1      19.279   4.731  30.509  1.00  0.00     0.303 C 
HETATM    5  C3  UNK     1      18.727   5.219  33.270  1.00  0.00     0.303 C 
HETATM    6  C4  UNK     1      20.024   5.797  31.322  1.00  0.00     0.303 C 
ENDROOT
BRANCH   1   7
HETATM    7  C5  UNK     1      18.111   2.624  30.599  1.00  0.00     0.312 C 
BRANCH   7   8
HETATM    8  C7  UNK     1      18.854   1.335  30.539  1.00  0.00    -0.011 A 
HETATM    9  C10 UNK     1      19.458   0.935  29.411  1.00  0.00     0.092 A 
HETATM   10  C13 UNK     1      20.204  -0.330  29.304  1.00  0.00     0.288 A 
HETATM   11  O1  UNK     1      20.263  -1.117  30.444  1.00  0.00    -0.275 OA
HETATM   12  O3  UNK     1      20.744  -0.663  28.255  1.00  0.00    -0.260 OA
HETATM   13  C11 UNK     1      19.638  -0.723  31.644  1.00  0.00     0.090 A 
HETATM   14  C8  UNK     1      18.934   0.479  31.730  1.00  0.00     0.006 A 
HETATM   15  C14 UNK     1      19.762  -1.594  32.728  1.00  0.00     0.045 A 
HETATM   16  C12 UNK     1      18.341   0.798  32.959  1.00  0.00     0.015 A 
HETATM   17  C16 UNK     1      18.457  -0.065  34.055  1.00  0.00     0.007 A 
HETATM   18  C15 UNK     1      19.166  -1.259  33.940  1.00  0.00    -0.059 A 
HETATM   19  C18 UNK     1      19.287  -2.173  35.111  1.00  0.00     0.048 C 
ENDBRANCH   7   8
ENDBRANCH   1   7
BRANCH   2  20
HETATM   20  C6  UNK     1      19.892   7.329  33.179  1.00  0.00     0.375 C 
BRANCH  20  21
HETATM   21  C9  UNK     1      18.922   8.019  34.122  1.00  0.00     0.250 C 
HETATM   22  O2  UNK     1      19.042   7.973  35.343  1.00  0.00    -0.271 OA
HETATM   23  N3  UNK     1      17.934   8.681  33.398  1.00  0.00    -0.326 N 
HETATM   24  H15 UNK     1      17.978   8.632  32.382  1.00  0.00     0.169 HD
BRANCH  23  25
HETATM   25  C17 UNK     1      16.851   9.438  33.906  1.00  0.00     0.034 A 
HETATM   26  C19 UNK     1      15.609   8.834  34.101  1.00  0.00     0.030 A 
HETATM   27  C21 UNK     1      14.542   9.581  34.602  1.00  0.00     0.009 A 
HETATM   28  C23 UNK     1      14.717  10.931  34.906  1.00  0.00    -0.062 A 
HETATM   29  C22 UNK     1      15.959  11.535  34.709  1.00  0.00     0.009 A 
HETATM   30  C24 UNK     1      13.576  11.728  35.441  1.00  0.00     0.048 C 
HETATM   31  C20 UNK     1      17.026  10.788  34.210  1.00  0.00     0.030 A 
ENDBRANCH  23  25
ENDBRANCH  20  21
ENDBRANCH   2  20
TORSDOF 5
ENDMDL
MODEL 5
REMARK VINA RESULT:      -9.1      6.212     12.892
REMARK  5 active torsions:
REMARK  status: ('A' for Active; 'I' for Inactive)
REMARK    1  A    between atoms: C5_11  and  N1_4 
REMARK    2  A    between atoms: C6_12  and  N2_5 
REMARK    3  A    between atoms: C17_23  and  N3_6 
REMARK       I    between atoms: C9_15  and  N3_6 
REMARK    4  A    between atoms: C5_11  and  C7_13 
REMARK    5  A    between atoms: C6_12  and  C9_15 
ROOT
HETATM    1  N1  UNK     1      18.026   6.014  32.771  1.00  0.00     0.096 N 
HETATM    2  N2  UNK     1      18.777   4.314  30.557  1.00  0.00     0.100 N 
HETATM    3  C1  UNK     1      17.983   4.551  32.884  1.00  0.00     0.303 C 
HETATM    4  C2  UNK     1      19.059   6.424  31.812  1.00  0.00     0.303 C 
HETATM    5  C3  UNK     1      17.743   3.906  31.516  1.00  0.00     0.303 C 
HETATM    6  C4  UNK     1      18.821   5.777  30.443  1.00  0.00     0.303 C 
ENDROOT
BRANCH   1   7
HETATM    7  C5  UNK     1      18.258   6.629  34.078  1.00  0.00     0.312 C 
BRANCH   7   8
HETATM    8  C7  UNK     1      18.124   8.111  34.032  1.00  0.00    -0.011 A 
HETATM    9  C10 UNK     1      19.188   8.909  34.198  1.00  0.00     0.092 A 
HETATM   10  C13 UNK     1      19.104  10.379  34.161  1.00  0.00     0.288 A 
HETATM   11  O1  UNK     1      17.849  10.926  33.942  1.00  0.00    -0.275 OA
HETATM   12  O3  UNK     1      20.099  11.077  34.317  1.00  0.00    -0.260 OA
HETATM   13  C11 UNK     1      16.713  10.113  33.764  1.00  0.00     0.090 A 
HETATM   14  C8  UNK     1      16.807   8.721  33.801  1.00  0.00     0.006 A 
HETATM   15  C14 UNK     1      15.500  10.772  33.550  1.00  0.00     0.045 A 
HETATM   16  C12 UNK     1      15.630   7.984  33.616  1.00  0.00     0.015 A 
HETATM   17  C16 UNK     1      14.407   8.631  33.400  1.00  0.00     0.007 A 
HETATM   18  C15 UNK     1      14.343  10.023  33.368  1.00  0.00    -0.059 A 
HETATM   19  C18 UNK     1      13.037  10.705  33.137  1.00  0.00     0.048 C 
ENDBRANCH   7   8
ENDBRANCH   1   7
BRANCH   2  20
HETATM   20  C6  UNK     1      18.548   3.699  29.251  1.00  0.00     0.375 C 
BRANCH  20  21
HETATM   21  C9  UNK     1      18.480   2.190  29.408  1.00  0.00     0.250 C 
HETATM   22  O2  UNK     1      17.505   1.532  29.056  1.00  0.00    -0.271 OA
HETATM   23  N3  UNK     1      19.655   1.711  29.984  1.00  0.00    -0.326 N 
HETATM   24  H15 UNK     1      20.380   2.388  30.213  1.00  0.00     0.169 HD
BRANCH  23  25
HETATM   25  C17 UNK     1      19.981   0.369  30.293  1.00  0.00     0.034 A 
HETATM   26  C19 UNK     1      20.692  -0.405  29.376  1.00  0.00     0.030 A 
HETATM   27  C21 UNK     1      21.014  -1.728  29.682  1.00  0.00     0.009 A 
HETATM   28  C23 UNK     1      20.623  -2.276  30.904  1.00  0.00    -0.062 A 
HETATM   29  C22 UNK     1      19.911  -1.502  31.820  1.00  0.00     0.009 A 
HETATM   30  C24 UNK     1      20.967  -3.690  31.230  1.00  0.00     0.048 C 
HETATM   31  C20 UNK     1      19.590  -0.179  31.515  1.00  0.00     0.030 A 
ENDBRANCH  23  25
ENDBRANCH  20  21
ENDBRANCH   2  20
TORSDOF 5
ENDMDL
MODEL 6
REMARK VINA RESULT:      -9.1      3.589     10.626
REMARK  5 active torsions:
REMARK  status: ('A' for Active; 'I' for Inactive)
REMARK    1  A    between atoms: C5_11  and  N1_4 
REMARK    2  A    between atoms: C6_12  and  N2_5 
REMARK    3  A    between atoms: C17_23  and  N3_6 
REMARK       I    between atoms: C9_15  and  N3_6 
REMARK    4  A    between atoms: C5_11  and  C7_13 
REMARK    5  A    between atoms: C6_12  and  C9_15 
ROOT
HETATM    1  N1  UNK     1      19.941  -3.714  36.856  1.00  0.00     0.096 N 
HETATM    2  N2  UNK     1      19.682  -6.518  37.510  1.00  0.00     0.100 N 
HETATM    3  C1  UNK     1      20.893  -4.379  37.754  1.00  0.00     0.303 C 
HETATM    4  C2  UNK     1      19.391  -4.674  35.891  1.00  0.00     0.303 C 
HETATM    5  C3  UNK     1      20.230  -5.557  38.475  1.00  0.00     0.303 C 
HETATM    6  C4  UNK     1      18.730  -5.854  36.612  1.00  0.00     0.303 C 
ENDROOT
BRANCH   1   7
HETATM    7  C5  UNK     1      20.575  -2.591  36.167  1.00  0.00     0.312 C 
BRANCH   7   8
HETATM    8  C7  UNK     1      19.620  -1.858  35.291  1.00  0.00    -0.011 A 
HETATM    9  C10 UNK     1      18.579  -1.189  35.808  1.00  0.00     0.092 A 
HETATM   10  C13 UNK     1      17.609  -0.450  34.982  1.00  0.00     0.288 A 
HETATM   11  O1  UNK     1      17.816  -0.468  33.612  1.00  0.00    -0.275 OA
HETATM   12  O3  UNK     1      16.669   0.150  35.490  1.00  0.00    -0.260 OA
HETATM   13  C11 UNK     1      18.901  -1.162  33.040  1.00  0.00     0.090 A 
HETATM   14  C8  UNK     1      19.812  -1.858  33.835  1.00  0.00     0.006 A 
HETATM   15  C14 UNK     1      19.011  -1.112  31.648  1.00  0.00     0.045 A 
HETATM   16  C12 UNK     1      20.863  -2.522  33.188  1.00  0.00     0.015 A 
HETATM   17  C16 UNK     1      20.987  -2.481  31.795  1.00  0.00     0.007 A 
HETATM   18  C15 UNK     1      20.061  -1.777  31.026  1.00  0.00    -0.059 A 
HETATM   19  C18 UNK     1      20.199  -1.738  29.542  1.00  0.00     0.048 C 
ENDBRANCH   7   8
ENDBRANCH   1   7
BRANCH   2  20
HETATM   20  C6  UNK     1      19.049  -7.642  38.197  1.00  0.00     0.375 C 
BRANCH  20  21
HETATM   21  C9  UNK     1      19.979  -8.843  38.166  1.00  0.00     0.250 C 
HETATM   22  O2  UNK     1      19.915  -9.749  38.991  1.00  0.00    -0.271 OA
HETATM   23  N3  UNK     1      20.861  -8.742  37.093  1.00  0.00    -0.326 N 
HETATM   24  H15 UNK     1      20.780  -7.926  36.489  1.00  0.00     0.169 HD
BRANCH  23  25
HETATM   25  C17 UNK     1      21.878  -9.653  36.721  1.00  0.00     0.034 A 
HETATM   26  C19 UNK     1      21.540 -10.886  36.163  1.00  0.00     0.030 A 
HETATM   27  C21 UNK     1      22.542 -11.784  35.797  1.00  0.00     0.009 A 
HETATM   28  C23 UNK     1      23.882 -11.449  35.989  1.00  0.00    -0.062 A 
HETATM   29  C22 UNK     1      24.221 -10.218  36.548  1.00  0.00     0.009 A 
HETATM   30  C24 UNK     1      24.954 -12.411  35.597  1.00  0.00     0.048 C 
HETATM   31  C20 UNK     1      23.219  -9.319  36.914  1.00  0.00     0.030 A 
ENDBRANCH  23  25
ENDBRANCH  20  21
ENDBRANCH   2  20
TORSDOF 5
ENDMDL
MODEL 7
REMARK VINA RESULT:      -9.0      6.386      9.951
REMARK  5 active torsions:
REMARK  status: ('A' for Active; 'I' for Inactive)
REMARK    1  A    between atoms: C5_11  and  N1_4 
REMARK    2  A    between atoms: C6_12  and  N2_5 
REMARK    3  A    between atoms: C17_23  and  N3_6 
REMARK       I    between atoms: C9_15  and  N3_6 
REMARK    4  A    between atoms: C5_11  and  C7_13 
REMARK    5  A    between atoms: C6_12  and  C9_15 
ROOT
HETATM    1  N1  UNK     1      18.450   4.998  32.593  1.00  0.00     0.096 N 
HETATM    2  N2  UNK     1      18.715   7.801  33.252  1.00  0.00     0.100 N 
HETATM    3  C1  UNK     1      17.272   5.839  32.837  1.00  0.00     0.303 C 
HETATM    4  C2  UNK     1      19.554   5.805  32.060  1.00  0.00     0.303 C 
HETATM    5  C3  UNK     1      17.612   6.993  33.786  1.00  0.00     0.303 C 
HETATM    6  C4  UNK     1      19.894   6.960  33.009  1.00  0.00     0.303 C 
ENDROOT
BRANCH   1   7
HETATM    7  C5  UNK     1      18.125   3.899  31.685  1.00  0.00     0.312 C 
BRANCH   7   8
HETATM    8  C7  UNK     1      18.354   2.568  32.311  1.00  0.00    -0.011 A 
HETATM    9  C10 UNK     1      18.064   2.348  33.601  1.00  0.00     0.092 A 
HETATM   10  C13 UNK     1      18.274   1.049  34.263  1.00  0.00     0.288 A 
HETATM   11  O1  UNK     1      18.795   0.030  33.482  1.00  0.00    -0.275 OA
HETATM   12  O3  UNK     1      17.997   0.887  35.445  1.00  0.00    -0.260 OA
HETATM   13  C11 UNK     1      19.109   0.230  32.123  1.00  0.00     0.090 A 
HETATM   14  C8  UNK     1      18.905   1.466  31.510  1.00  0.00     0.006 A 
HETATM   15  C14 UNK     1      19.629  -0.868  31.433  1.00  0.00     0.045 A 
HETATM   16  C12 UNK     1      19.244   1.583  30.155  1.00  0.00     0.015 A 
HETATM   17  C16 UNK     1      19.766   0.492  29.450  1.00  0.00     0.007 A 
HETATM   18  C15 UNK     1      19.958  -0.731  30.089  1.00  0.00    -0.059 A 
HETATM   19  C18 UNK     1      20.514  -1.889  29.333  1.00  0.00     0.048 C 
ENDBRANCH   7   8
ENDBRANCH   1   7
BRANCH   2  20
HETATM   20  C6  UNK     1      19.040   8.901  34.157  1.00  0.00     0.375 C 
BRANCH  20  21
HETATM   21  C9  UNK     1      18.160  10.097  33.837  1.00  0.00     0.250 C 
HETATM   22  O2  UNK     1      17.011   9.979  33.423  1.00  0.00    -0.271 OA
HETATM   23  N3  UNK     1      18.847  11.282  34.089  1.00  0.00    -0.326 N 
HETATM   24  H15 UNK     1      19.799  11.211  34.442  1.00  0.00     0.169 HD
BRANCH  23  25
HETATM   25  C17 UNK     1      18.377  12.605  33.918  1.00  0.00     0.034 A 
HETATM   26  C19 UNK     1      18.903  13.407  32.905  1.00  0.00     0.030 A 
HETATM   27  C21 UNK     1      18.439  14.712  32.737  1.00  0.00     0.009 A 
HETATM   28  C23 UNK     1      17.452  15.216  33.583  1.00  0.00    -0.062 A 
HETATM   29  C22 UNK     1      16.927  14.415  34.597  1.00  0.00     0.009 A 
HETATM   30  C24 UNK     1      16.957  16.611  33.402  1.00  0.00     0.048 C 
HETATM   31  C20 UNK     1      17.389  13.110  34.765  1.00  0.00     0.030 A 
ENDBRANCH  23  25
ENDBRANCH  20  21
ENDBRANCH   2  20
TORSDOF 5
ENDMDL
MODEL 8
REMARK VINA RESULT:      -9.0      1.747      2.484
REMARK  5 active torsions:
REMARK  status: ('A' for Active; 'I' for Inactive)
REMARK    1  A    between atoms: C5_11  and  N1_4 
REMARK    2  A    between atoms: C6_12  and  N2_5 
REMARK    3  A    between atoms: C17_23  and  N3_6 
REMARK       I    between atoms: C9_15  and  N3_6 
REMARK    4  A    between atoms: C5_11  and  C7_13 
REMARK    5  A    between atoms: C6_12  and  C9_15 
ROOT
HETATM    1  N1  UNK     1      19.492  -3.440  36.573  1.00  0.00     0.096 N 
HETATM    2  N2  UNK     1      18.343  -0.799  36.325  1.00  0.00     0.100 N 
HETATM    3  C1  UNK     1      18.069  -3.200  36.840  1.00  0.00     0.303 C 
HETATM    4  C2  UNK     1      19.999  -2.479  35.587  1.00  0.00     0.303 C 
HETATM    5  C3  UNK     1      17.838  -1.761  37.313  1.00  0.00     0.303 C 
HETATM    6  C4  UNK     1      19.766  -1.039  36.058  1.00  0.00     0.303 C 
ENDROOT
BRANCH   1   7
HETATM    7  C5  UNK     1      19.710  -4.813  36.120  1.00  0.00     0.312 C 
BRANCH   7   8
HETATM    8  C7  UNK     1      20.561  -5.588  37.064  1.00  0.00    -0.011 A 
HETATM    9  C10 UNK     1      21.658  -5.046  37.614  1.00  0.00     0.092 A 
HETATM   10  C13 UNK     1      22.529  -5.773  38.553  1.00  0.00     0.288 A 
HETATM   11  O1  UNK     1      22.166  -7.075  38.859  1.00  0.00    -0.275 OA
HETATM   12  O3  UNK     1      23.524  -5.245  39.036  1.00  0.00    -0.260 OA
HETATM   13  C11 UNK     1      21.020  -7.671  38.297  1.00  0.00     0.090 A 
HETATM   14  C8  UNK     1      20.203  -6.971  37.409  1.00  0.00     0.006 A 
HETATM   15  C14 UNK     1      20.751  -8.989  38.677  1.00  0.00     0.045 A 
HETATM   16  C12 UNK     1      19.082  -7.635  36.894  1.00  0.00     0.015 A 
HETATM   17  C16 UNK     1      18.799  -8.955  37.265  1.00  0.00     0.007 A 
HETATM   18  C15 UNK     1      19.633  -9.630  38.155  1.00  0.00    -0.059 A 
HETATM   19  C18 UNK     1      19.325 -11.035  38.546  1.00  0.00     0.048 C 
ENDBRANCH   7   8
ENDBRANCH   1   7
BRANCH   2  20
HETATM   20  C6  UNK     1      18.124   0.573  36.776  1.00  0.00     0.375 C 
BRANCH  20  21
HETATM   21  C9  UNK     1      18.761   1.538  35.791  1.00  0.00     0.250 C 
HETATM   22  O2  UNK     1      19.850   2.065  35.994  1.00  0.00    -0.271 OA
HETATM   23  N3  UNK     1      17.940   1.703  34.678  1.00  0.00    -0.326 N 
HETATM   24  H15 UNK     1      17.064   1.184  34.655  1.00  0.00     0.169 HD
BRANCH  23  25
HETATM   25  C17 UNK     1      18.175   2.515  33.544  1.00  0.00     0.034 A 
HETATM   26  C19 UNK     1      18.214   3.903  33.675  1.00  0.00     0.030 A 
HETATM   27  C21 UNK     1      18.446   4.703  32.556  1.00  0.00     0.009 A 
HETATM   28  C23 UNK     1      18.638   4.115  31.306  1.00  0.00    -0.062 A 
HETATM   29  C22 UNK     1      18.598   2.728  31.174  1.00  0.00     0.009 A 
HETATM   30  C24 UNK     1      18.887   4.972  30.111  1.00  0.00     0.048 C 
HETATM   31  C20 UNK     1      18.367   1.927  32.293  1.00  0.00     0.030 A 
ENDBRANCH  23  25
ENDBRANCH  20  21
ENDBRANCH   2  20
TORSDOF 5
ENDMDL
MODEL 9
REMARK VINA RESULT:      -9.0     13.941     16.898
REMARK  5 active torsions:
REMARK  status: ('A' for Active; 'I' for Inactive)
REMARK    1  A    between atoms: C5_11  and  N1_4 
REMARK    2  A    between atoms: C6_12  and  N2_5 
REMARK    3  A    between atoms: C17_23  and  N3_6 
REMARK       I    between atoms: C9_15  and  N3_6 
REMARK    4  A    between atoms: C5_11  and  C7_13 
REMARK    5  A    between atoms: C6_12  and  C9_15 
ROOT
HETATM    1  N1  UNK     1      32.135  -6.010  35.933  1.00  0.00     0.096 N 
HETATM    2  N2  UNK     1      34.763  -6.496  34.832  1.00  0.00     0.100 N 
HETATM    3  C1  UNK     1      33.065  -4.907  35.665  1.00  0.00     0.303 C 
HETATM    4  C2  UNK     1      32.379  -7.123  35.009  1.00  0.00     0.303 C 
HETATM    5  C3  UNK     1      34.518  -5.384  35.758  1.00  0.00     0.303 C 
HETATM    6  C4  UNK     1      33.833  -7.600  35.100  1.00  0.00     0.303 C 
ENDROOT
BRANCH   1   7
HETATM    7  C5  UNK     1      30.748  -5.553  35.841  1.00  0.00     0.312 C 
BRANCH   7   8
HETATM    8  C7  UNK     1      30.068  -5.553  37.166  1.00  0.00    -0.011 A 
HETATM    9  C10 UNK     1      30.097  -4.473  37.960  1.00  0.00     0.092 A 
HETATM   10  C13 UNK     1      29.440  -4.426  39.277  1.00  0.00     0.288 A 
HETATM   11  O1  UNK     1      28.769  -5.570  39.679  1.00  0.00    -0.275 OA
HETATM   12  O3  UNK     1      29.488  -3.420  39.976  1.00  0.00    -0.260 OA
HETATM   13  C11 UNK     1      28.721  -6.720  38.866  1.00  0.00     0.090 A 
HETATM   14  C8  UNK     1      29.349  -6.750  37.621  1.00  0.00     0.006 A 
HETATM   15  C14 UNK     1      28.017  -7.815  39.373  1.00  0.00     0.045 A 
HETATM   16  C12 UNK     1      29.254  -7.932  36.874  1.00  0.00     0.015 A 
HETATM   17  C16 UNK     1      28.552  -9.037  37.368  1.00  0.00     0.007 A 
HETATM   18  C15 UNK     1      27.935  -8.978  38.616  1.00  0.00    -0.059 A 
HETATM   19  C18 UNK     1      27.188 -10.159  39.136  1.00  0.00     0.048 C 
ENDBRANCH   7   8
ENDBRANCH   1   7
BRANCH   2  20
HETATM   20  C6  UNK     1      36.148  -6.952  34.922  1.00  0.00     0.375 C 
BRANCH  20  21
HETATM   21  C9  UNK     1      36.616  -7.422  33.555  1.00  0.00     0.250 C 
HETATM   22  O2  UNK     1      36.674  -6.674  32.584  1.00  0.00    -0.271 OA
HETATM   23  N3  UNK     1      36.953  -8.773  33.599  1.00  0.00    -0.326 N 
HETATM   24  H15 UNK     1      36.858  -9.256  34.489  1.00  0.00     0.169 HD
BRANCH  23  25
HETATM   25  C17 UNK     1      37.430  -9.579  32.538  1.00  0.00     0.034 A 
HETATM   26  C19 UNK     1      38.657 -10.232  32.655  1.00  0.00     0.030 A 
HETATM   27  C21 UNK     1      39.126 -11.026  31.609  1.00  0.00     0.009 A 
HETATM   28  C23 UNK     1      38.369 -11.167  30.446  1.00  0.00    -0.062 A 
HETATM   29  C22 UNK     1      37.143 -10.514  30.328  1.00  0.00     0.009 A 
HETATM   30  C24 UNK     1      38.872 -12.018  29.328  1.00  0.00     0.048 C 
HETATM   31  C20 UNK     1      36.673  -9.720  31.374  1.00  0.00     0.030 A 
ENDBRANCH  23  25
ENDBRANCH  20  21
ENDBRANCH   2  20
TORSDOF 5
ENDMDL
MODEL 10
REMARK VINA RESULT:      -8.8      2.274     10.450
REMARK  5 active torsions:
REMARK  status: ('A' for Active; 'I' for Inactive)
REMARK    1  A    between atoms: C5_11  and  N1_4 
REMARK    2  A    between atoms: C6_12  and  N2_5 
REMARK    3  A    between atoms: C17_23  and  N3_6 
REMARK       I    between atoms: C9_15  and  N3_6 
REMARK    4  A    between atoms: C5_11  and  C7_13 
REMARK    5  A    between atoms: C6_12  and  C9_15 
ROOT
HETATM    1  N1  UNK     1      18.492  -1.178  35.456  1.00  0.00     0.096 N 
HETATM    2  N2  UNK     1      19.876  -3.118  37.092  1.00  0.00     0.100 N 
HETATM    3  C1  UNK     1      19.450  -2.124  34.871  1.00  0.00     0.303 C 
HETATM    4  C2  UNK     1      17.861  -1.757  36.648  1.00  0.00     0.303 C 
HETATM    5  C3  UNK     1      20.506  -2.537  35.900  1.00  0.00     0.303 C 
HETATM    6  C4  UNK     1      18.918  -2.172  37.678  1.00  0.00     0.303 C 
ENDROOT
BRANCH   1   7
HETATM    7  C5  UNK     1      17.483  -0.786  34.473  1.00  0.00     0.312 C 
BRANCH   7   8
HETATM    8  C7  UNK     1      17.966   0.297  33.573  1.00  0.00    -0.011 A 
HETATM    9  C10 UNK     1      17.724   1.587  33.848  1.00  0.00     0.092 A 
HETATM   10  C13 UNK     1      18.182   2.692  32.989  1.00  0.00     0.288 A 
HETATM   11  O1  UNK     1      18.893   2.342  31.852  1.00  0.00    -0.275 OA
HETATM   12  O3  UNK     1      17.942   3.859  33.273  1.00  0.00    -0.260 OA
HETATM   13  C11 UNK     1      19.163   0.996  31.536  1.00  0.00     0.090 A 
HETATM   14  C8  UNK     1      18.722  -0.041  32.360  1.00  0.00     0.006 A 
HETATM   15  C14 UNK     1      19.887   0.761  30.365  1.00  0.00     0.045 A 
HETATM   16  C12 UNK     1      19.031  -1.352  31.975  1.00  0.00     0.015 A 
HETATM   17  C16 UNK     1      19.757  -1.603  30.805  1.00  0.00     0.007 A 
HETATM   18  C15 UNK     1      20.183  -0.548  30.001  1.00  0.00    -0.059 A 
HETATM   19  C18 UNK     1      20.956  -0.822  28.756  1.00  0.00     0.048 C 
ENDBRANCH   7   8
ENDBRANCH   1   7
BRANCH   2  20
HETATM   20  C6  UNK     1      20.883  -3.511  38.074  1.00  0.00     0.375 C 
BRANCH  20  21
HETATM   21  C9  UNK     1      21.147  -5.003  37.960  1.00  0.00     0.250 C 
HETATM   22  O2  UNK     1      22.227  -5.457  37.595  1.00  0.00    -0.271 OA
HETATM   23  N3  UNK     1      20.013  -5.723  38.328  1.00  0.00    -0.326 N 
HETATM   24  H15 UNK     1      19.191  -5.196  38.618  1.00  0.00     0.169 HD
BRANCH  23  25
HETATM   25  C17 UNK     1      19.853  -7.128  38.356  1.00  0.00     0.034 A 
HETATM   26  C19 UNK     1      20.329  -7.863  39.443  1.00  0.00     0.030 A 
HETATM   27  C21 UNK     1      20.171  -9.248  39.470  1.00  0.00     0.009 A 
HETATM   28  C23 UNK     1      19.539  -9.900  38.412  1.00  0.00    -0.062 A 
HETATM   29  C22 UNK     1      19.064  -9.166  37.325  1.00  0.00     0.009 A 
HETATM   30  C24 UNK     1      19.371 -11.382  38.443  1.00  0.00     0.048 C 
HETATM   31  C20 UNK     1      19.220  -7.780  37.297  1.00  0.00     0.030 A 
ENDBRANCH  23  25
ENDBRANCH  20  21
ENDBRANCH   2  20
TORSDOF 5
ENDMDL
