MODEL 1
REMARK VINA RESULT:      -8.4      0.000      0.000
REMARK  3 active torsions:
REMARK  status: ('A' for Active; 'I' for Inactive)
REMARK    1  A    between atoms: C4_7  and  O1_1 
REMARK    2  A    between atoms: C5_8  and  O1_1 
REMARK    3  A    between atoms: C10_13  and  C3_6 
ROOT
HETATM    1  O2  UNK     1      17.904   3.395  33.164  1.00  0.00    -0.321 OA
HETATM    2  O3  UNK     1      19.097   4.264  29.360  1.00  0.00    -0.286 OA
HETATM    3  C1  UNK     1      18.377   5.054  31.458  1.00  0.00     0.049 A 
HETATM    4  C2  UNK     1      17.966   4.698  32.742  1.00  0.00     0.091 A 
HETATM    5  C3  UNK     1      18.697   2.597  31.012  1.00  0.00     0.048 A 
HETATM    6  C5  UNK     1      17.638   7.027  33.283  1.00  0.00     0.071 A 
HETATM    7  C6  UNK     1      18.759   3.996  30.506  1.00  0.00     0.197 A 
HETATM    8  C7  UNK     1      17.595   5.684  33.656  1.00  0.00     0.075 A 
HETATM    9  C8  UNK     1      18.420   6.400  31.082  1.00  0.00     0.021 A 
HETATM   10  C9  UNK     1      18.049   7.384  31.998  1.00  0.00     0.038 A 
HETATM   11  C11 UNK     1      18.283   2.418  32.275  1.00  0.00     0.159 A 
ENDROOT
BRANCH   5  12
HETATM   12  C10 UNK     1      19.088   1.448  30.178  1.00  0.00    -0.020 A 
HETATM   13  C15 UNK     1      20.093   0.579  30.609  1.00  0.00     0.012 A 
HETATM   14  C17 UNK     1      20.463  -0.509  29.819  1.00  0.00     0.001 A 
HETATM   15  C18 UNK     1      19.830  -0.730  28.595  1.00  0.00     0.000 A 
HETATM   16  C16 UNK     1      18.827   0.135  28.163  1.00  0.00     0.001 A 
HETATM   17  C14 UNK     1      18.456   1.224  28.953  1.00  0.00     0.012 A 
ENDBRANCH   5  12
BRANCH   6  18
HETATM   18  O1  UNK     1      17.278   7.992  34.174  1.00  0.00    -0.347 OA
BRANCH  18  19
HETATM   19  C4  UNK     1      16.407   9.019  33.701  1.00  0.00     0.120 C 
HETATM   20  C12 UNK     1      14.992   8.736  34.183  1.00  0.00     0.040 C 
HETATM   21  C13 UNK     1      16.913  10.368  34.190  1.00  0.00     0.040 C 
ENDBRANCH  18  19
ENDBRANCH   6  18
TORSDOF 3
ENDMDL
MODEL 2
REMARK VINA RESULT:      -8.2      1.318      2.574
REMARK  3 active torsions:
REMARK  status: ('A' for Active; 'I' for Inactive)
REMARK    1  A    between atoms: C4_7  and  O1_1 
REMARK    2  A    between atoms: C5_8  and  O1_1 
REMARK    3  A    between atoms: C10_13  and  C3_6 
ROOT
HETATM    1  O2  UNK     1      18.995   6.035  30.454  1.00  0.00    -0.321 OA
HETATM    2  O3  UNK     1      17.844   2.712  32.524  1.00  0.00    -0.286 OA
HETATM    3  C1  UNK     1      18.085   5.053  32.478  1.00  0.00     0.049 A 
HETATM    4  C2  UNK     1      18.503   6.152  31.728  1.00  0.00     0.091 A 
HETATM    5  C3  UNK     1      18.694   3.625  30.496  1.00  0.00     0.048 A 
HETATM    6  C5  UNK     1      17.940   7.617  33.562  1.00  0.00     0.071 A 
HETATM    7  C6  UNK     1      18.173   3.706  31.888  1.00  0.00     0.197 A 
HETATM    8  C7  UNK     1      18.432   7.436  32.270  1.00  0.00     0.075 A 
HETATM    9  C8  UNK     1      17.592   5.233  33.774  1.00  0.00     0.021 A 
HETATM   10  C9  UNK     1      17.522   6.518  34.313  1.00  0.00     0.038 A 
HETATM   11  C11 UNK     1      19.054   4.776  29.907  1.00  0.00     0.159 A 
ENDROOT
BRANCH   5  12
HETATM   12  C10 UNK     1      18.798   2.346  29.775  1.00  0.00    -0.020 A 
HETATM   13  C15 UNK     1      17.928   2.063  28.720  1.00  0.00     0.012 A 
HETATM   14  C17 UNK     1      18.027   0.851  28.037  1.00  0.00     0.001 A 
HETATM   15  C18 UNK     1      18.996  -0.082  28.407  1.00  0.00     0.000 A 
HETATM   16  C16 UNK     1      19.865   0.198  29.460  1.00  0.00     0.001 A 
HETATM   17  C14 UNK     1      19.767   1.411  30.144  1.00  0.00     0.012 A 
ENDBRANCH   5  12
BRANCH   6  18
HETATM   18  O1  UNK     1      17.868   8.869  34.093  1.00  0.00    -0.347 OA
BRANCH  18  19
HETATM   19  C4  UNK     1      18.937   9.765  33.791  1.00  0.00     0.120 C 
HETATM   20  C12 UNK     1      18.501  11.188  34.101  1.00  0.00     0.040 C 
HETATM   21  C13 UNK     1      20.167   9.362  34.591  1.00  0.00     0.040 C 
ENDBRANCH  18  19
ENDBRANCH   6  18
TORSDOF 3
ENDMDL
MODEL 3
REMARK VINA RESULT:      -8.0      1.474      7.654
REMARK  3 active torsions:
REMARK  status: ('A' for Active; 'I' for Inactive)
REMARK    1  A    between atoms: C4_7  and  O1_1 
REMARK    2  A    between atoms: C5_8  and  O1_1 
REMARK    3  A    between atoms: C10_13  and  C3_6 
ROOT
HETATM    1  O2  UNK     1      17.966   4.093  33.474  1.00  0.00    -0.321 OA
HETATM    2  O3  UNK     1      18.635   6.905  30.595  1.00  0.00    -0.286 OA
HETATM    3  C1  UNK     1      18.501   4.625  31.168  1.00  0.00     0.049 A 
HETATM    4  C2  UNK     1      18.273   3.709  32.194  1.00  0.00     0.091 A 
HETATM    5  C3  UNK     1      18.057   6.439  32.857  1.00  0.00     0.048 A 
HETATM    6  C5  UNK     1      18.665   1.890  30.657  1.00  0.00     0.071 A 
HETATM    7  C6  UNK     1      18.413   6.067  31.460  1.00  0.00     0.197 A 
HETATM    8  C7  UNK     1      18.355   2.340  31.940  1.00  0.00     0.075 A 
HETATM    9  C8  UNK     1      18.811   4.177  29.881  1.00  0.00     0.021 A 
HETATM   10  C9  UNK     1      18.893   2.807  29.630  1.00  0.00     0.038 A 
HETATM   11  C11 UNK     1      17.866   5.438  33.730  1.00  0.00     0.159 A 
ENDROOT
BRANCH   5  12
HETATM   12  C10 UNK     1      17.899   7.843  33.274  1.00  0.00    -0.020 A 
HETATM   13  C15 UNK     1      16.650   8.462  33.190  1.00  0.00     0.012 A 
HETATM   14  C17 UNK     1      16.500   9.791  33.585  1.00  0.00     0.001 A 
HETATM   15  C18 UNK     1      17.599  10.505  34.065  1.00  0.00     0.000 A 
HETATM   16  C16 UNK     1      18.846   9.888  34.150  1.00  0.00     0.001 A 
HETATM   17  C14 UNK     1      18.997   8.558  33.755  1.00  0.00     0.012 A 
ENDBRANCH   5  12
BRANCH   6  18
HETATM   18  O1  UNK     1      18.745   0.555  30.405  1.00  0.00    -0.347 OA
BRANCH  18  19
HETATM   19  C4  UNK     1      20.020  -0.063  30.575  1.00  0.00     0.120 C 
HETATM   20  C12 UNK     1      19.878  -1.260  31.502  1.00  0.00     0.040 C 
HETATM   21  C13 UNK     1      20.568  -0.463  29.213  1.00  0.00     0.040 C 
ENDBRANCH  18  19
ENDBRANCH   6  18
TORSDOF 3
ENDMDL
MODEL 4
REMARK VINA RESULT:      -7.5      1.359      7.798
REMARK  3 active torsions:
REMARK  status: ('A' for Active; 'I' for Inactive)
REMARK    1  A    between atoms: C4_7  and  O1_1 
REMARK    2  A    between atoms: C5_8  and  O1_1 
REMARK    3  A    between atoms: C10_13  and  C3_6 
ROOT
HETATM    1  O2  UNK     1      18.697   5.300  30.127  1.00  0.00    -0.321 OA
HETATM    2  O3  UNK     1      17.663   5.144  34.071  1.00  0.00    -0.286 OA
HETATM    3  C1  UNK     1      18.285   3.981  32.121  1.00  0.00     0.049 A 
HETATM    4  C2  UNK     1      18.623   4.093  30.773  1.00  0.00     0.091 A 
HETATM    5  C3  UNK     1      18.104   6.492  32.158  1.00  0.00     0.048 A 
HETATM    6  C5  UNK     1      18.840   1.694  30.627  1.00  0.00     0.071 A 
HETATM    7  C6  UNK     1      17.992   5.202  32.893  1.00  0.00     0.197 A 
HETATM    8  C7  UNK     1      18.900   2.950  30.024  1.00  0.00     0.075 A 
HETATM    9  C8  UNK     1      18.225   2.723  32.728  1.00  0.00     0.021 A 
HETATM   10  C9  UNK     1      18.502   1.581  31.976  1.00  0.00     0.038 A 
HETATM   11  C11 UNK     1      18.442   6.433  30.861  1.00  0.00     0.159 A 
ENDROOT
BRANCH   5  12
HETATM   12  C10 UNK     1      17.875   7.788  32.819  1.00  0.00    -0.020 A 
HETATM   13  C15 UNK     1      18.918   8.423  33.496  1.00  0.00     0.012 A 
HETATM   14  C17 UNK     1      18.701   9.650  34.121  1.00  0.00     0.001 A 
HETATM   15  C18 UNK     1      17.440  10.246  34.072  1.00  0.00     0.000 A 
HETATM   16  C16 UNK     1      16.398   9.613  33.397  1.00  0.00     0.001 A 
HETATM   17  C14 UNK     1      16.614   8.386  32.770  1.00  0.00     0.012 A 
ENDBRANCH   5  12
BRANCH   6  18
HETATM   18  O1  UNK     1      19.112   0.576  29.899  1.00  0.00    -0.347 OA
BRANCH  18  19
HETATM   19  C4  UNK     1      20.324  -0.116  30.199  1.00  0.00     0.120 C 
HETATM   20  C12 UNK     1      20.035  -1.221  31.203  1.00  0.00     0.040 C 
HETATM   21  C13 UNK     1      20.919  -0.661  28.910  1.00  0.00     0.040 C 
ENDBRANCH  18  19
ENDBRANCH   6  18
TORSDOF 3
ENDMDL
MODEL 5
REMARK VINA RESULT:      -7.2      2.889      5.414
REMARK  3 active torsions:
REMARK  status: ('A' for Active; 'I' for Inactive)
REMARK    1  A    between atoms: C4_7  and  O1_1 
REMARK    2  A    between atoms: C5_8  and  O1_1 
REMARK    3  A    between atoms: C10_13  and  C3_6 
ROOT
HETATM    1  O2  UNK     1      17.976   9.344  34.045  1.00  0.00    -0.321 OA
HETATM    2  O3  UNK     1      15.354   7.552  31.483  1.00  0.00    -0.286 OA
HETATM    3  C1  UNK     1      15.804   9.327  32.963  1.00  0.00     0.049 A 
HETATM    4  C2  UNK     1      16.736   9.891  33.834  1.00  0.00     0.091 A 
HETATM    5  C3  UNK     1      17.517   7.547  32.478  1.00  0.00     0.048 A 
HETATM    6  C5  UNK     1      15.177  11.655  34.362  1.00  0.00     0.071 A 
HETATM    7  C6  UNK     1      16.154   8.094  32.235  1.00  0.00     0.197 A 
HETATM    8  C7  UNK     1      16.423  11.055  34.535  1.00  0.00     0.075 A 
HETATM    9  C8  UNK     1      14.554   9.928  32.787  1.00  0.00     0.021 A 
HETATM   10  C9  UNK     1      14.244  11.092  33.490  1.00  0.00     0.038 A 
HETATM   11  C11 UNK     1      18.299   8.207  33.346  1.00  0.00     0.159 A 
ENDROOT
BRANCH   5  12
HETATM   12  C10 UNK     1      18.008   6.343  31.788  1.00  0.00    -0.020 A 
HETATM   13  C15 UNK     1      17.778   5.078  32.334  1.00  0.00     0.012 A 
HETATM   14  C17 UNK     1      18.243   3.938  31.679  1.00  0.00     0.001 A 
HETATM   15  C18 UNK     1      18.940   4.059  30.477  1.00  0.00     0.000 A 
HETATM   16  C16 UNK     1      19.171   5.320  29.930  1.00  0.00     0.001 A 
HETATM   17  C14 UNK     1      18.705   6.461  30.584  1.00  0.00     0.012 A 
ENDBRANCH   5  12
BRANCH   6  18
HETATM   18  O1  UNK     1      14.868  12.793  35.044  1.00  0.00    -0.347 OA
BRANCH  18  19
HETATM   19  C4  UNK     1      15.085  12.783  36.454  1.00  0.00     0.120 C 
HETATM   20  C12 UNK     1      15.309  14.208  36.937  1.00  0.00     0.040 C 
HETATM   21  C13 UNK     1      13.892  12.134  37.139  1.00  0.00     0.040 C 
ENDBRANCH  18  19
ENDBRANCH   6  18
TORSDOF 3
ENDMDL
MODEL 6
REMARK VINA RESULT:      -7.1     14.656     16.546
REMARK  3 active torsions:
REMARK  status: ('A' for Active; 'I' for Inactive)
REMARK    1  A    between atoms: C4_7  and  O1_1 
REMARK    2  A    between atoms: C5_8  and  O1_1 
REMARK    3  A    between atoms: C10_13  and  C3_6 
ROOT
HETATM    1  O2  UNK     1      25.868  -5.139  38.832  1.00  0.00    -0.321 OA
HETATM    2  O3  UNK     1      26.023  -9.202  38.480  1.00  0.00    -0.286 OA
HETATM    3  C1  UNK     1      27.192  -7.164  38.639  1.00  0.00     0.049 A 
HETATM    4  C2  UNK     1      27.078  -5.779  38.750  1.00  0.00     0.091 A 
HETATM    5  C3  UNK     1      24.676  -7.252  38.718  1.00  0.00     0.048 A 
HETATM    6  C5  UNK     1      29.483  -5.578  38.699  1.00  0.00     0.071 A 
HETATM    7  C6  UNK     1      25.968  -7.984  38.606  1.00  0.00     0.197 A 
HETATM    8  C7  UNK     1      28.224  -4.983  38.779  1.00  0.00     0.075 A 
HETATM    9  C8  UNK     1      28.452  -7.762  38.559  1.00  0.00     0.021 A 
HETATM   10  C9  UNK     1      29.597  -6.964  38.588  1.00  0.00     0.038 A 
HETATM   11  C11 UNK     1      24.735  -5.916  38.821  1.00  0.00     0.159 A 
ENDROOT
BRANCH   5  12
HETATM   12  C10 UNK     1      23.382  -7.953  38.736  1.00  0.00    -0.020 A 
HETATM   13  C15 UNK     1      22.681  -8.099  39.935  1.00  0.00     0.012 A 
HETATM   14  C17 UNK     1      21.454  -8.762  39.952  1.00  0.00     0.001 A 
HETATM   15  C18 UNK     1      20.925  -9.282  38.771  1.00  0.00     0.000 A 
HETATM   16  C16 UNK     1      21.623  -9.138  37.573  1.00  0.00     0.001 A 
HETATM   17  C14 UNK     1      22.850  -8.474  37.555  1.00  0.00     0.012 A 
ENDBRANCH   5  12
BRANCH   6  18
HETATM   18  O1  UNK     1      30.603  -4.805  38.728  1.00  0.00    -0.347 OA
BRANCH  18  19
HETATM   19  C4  UNK     1      31.555  -5.001  37.683  1.00  0.00     0.120 C 
HETATM   20  C12 UNK     1      31.651  -3.733  36.848  1.00  0.00     0.040 C 
HETATM   21  C13 UNK     1      32.896  -5.382  38.293  1.00  0.00     0.040 C 
ENDBRANCH  18  19
ENDBRANCH   6  18
TORSDOF 3
ENDMDL
MODEL 7
REMARK VINA RESULT:      -7.1      8.816     11.176
REMARK  3 active torsions:
REMARK  status: ('A' for Active; 'I' for Inactive)
REMARK    1  A    between atoms: C4_7  and  O1_1 
REMARK    2  A    between atoms: C5_8  and  O1_1 
REMARK    3  A    between atoms: C10_13  and  C3_6 
ROOT
HETATM    1  O2  UNK     1      20.247  -5.337  34.497  1.00  0.00    -0.321 OA
HETATM    2  O3  UNK     1      20.045  -6.170  38.486  1.00  0.00    -0.286 OA
HETATM    3  C1  UNK     1      19.996  -4.550  36.779  1.00  0.00     0.049 A 
HETATM    4  C2  UNK     1      20.082  -4.323  35.406  1.00  0.00     0.091 A 
HETATM    5  C3  UNK     1      20.245  -7.002  36.264  1.00  0.00     0.048 A 
HETATM    6  C5  UNK     1      19.835  -1.952  35.782  1.00  0.00     0.071 A 
HETATM    7  C6  UNK     1      20.087  -5.931  37.286  1.00  0.00     0.197 A 
HETATM    8  C7  UNK     1      20.003  -3.024  34.905  1.00  0.00     0.075 A 
HETATM    9  C8  UNK     1      19.828  -3.478  37.659  1.00  0.00     0.021 A 
HETATM   10  C9  UNK     1      19.749  -2.179  37.156  1.00  0.00     0.038 A 
HETATM   11  C11 UNK     1      20.310  -6.622  34.979  1.00  0.00     0.159 A 
ENDROOT
BRANCH   5  12
HETATM   12  C10 UNK     1      20.310  -8.427  36.632  1.00  0.00    -0.020 A 
HETATM   13  C15 UNK     1      21.495  -9.144  36.450  1.00  0.00     0.012 A 
HETATM   14  C17 UNK     1      21.556 -10.493  36.799  1.00  0.00     0.001 A 
HETATM   15  C18 UNK     1      20.433 -11.129  37.329  1.00  0.00     0.000 A 
HETATM   16  C16 UNK     1      19.250 -10.414  37.512  1.00  0.00     0.001 A 
HETATM   17  C14 UNK     1      19.188  -9.065  37.164  1.00  0.00     0.012 A 
ENDBRANCH   5  12
BRANCH   6  18
HETATM   18  O1  UNK     1      19.756  -0.682  35.297  1.00  0.00    -0.347 OA
BRANCH  18  19
HETATM   19  C4  UNK     1      18.602   0.078  35.655  1.00  0.00     0.120 C 
HETATM   20  C12 UNK     1      18.999   1.535  35.837  1.00  0.00     0.040 C 
HETATM   21  C13 UNK     1      17.540  -0.090  34.579  1.00  0.00     0.040 C 
ENDBRANCH  18  19
ENDBRANCH   6  18
TORSDOF 3
ENDMDL
MODEL 8
REMARK VINA RESULT:      -7.0     15.001     16.648
REMARK  3 active torsions:
REMARK  status: ('A' for Active; 'I' for Inactive)
REMARK    1  A    between atoms: C4_7  and  O1_1 
REMARK    2  A    between atoms: C5_8  and  O1_1 
REMARK    3  A    between atoms: C10_13  and  C3_6 
ROOT
HETATM    1  O2  UNK     1      27.743  -8.300  38.640  1.00  0.00    -0.321 OA
HETATM    2  O3  UNK     1      24.974  -5.306  38.769  1.00  0.00    -0.286 OA
HETATM    3  C1  UNK     1      27.244  -5.926  38.697  1.00  0.00     0.049 A 
HETATM    4  C2  UNK     1      28.146  -6.989  38.663  1.00  0.00     0.091 A 
HETATM    5  C3  UNK     1      25.405  -7.646  38.663  1.00  0.00     0.048 A 
HETATM    6  C5  UNK     1      29.987  -5.429  38.680  1.00  0.00     0.071 A 
HETATM    7  C6  UNK     1      25.798  -6.210  38.710  1.00  0.00     0.197 A 
HETATM    8  C7  UNK     1      29.518  -6.742  38.656  1.00  0.00     0.075 A 
HETATM    9  C8  UNK     1      27.711  -4.609  38.721  1.00  0.00     0.021 A 
HETATM   10  C9  UNK     1      29.085  -4.364  38.713  1.00  0.00     0.038 A 
HETATM   11  C11 UNK     1      26.393  -8.553  38.631  1.00  0.00     0.159 A 
ENDROOT
BRANCH   5  12
HETATM   12  C10 UNK     1      23.995  -8.067  38.631  1.00  0.00    -0.020 A 
HETATM   13  C15 UNK     1      23.435  -8.554  37.448  1.00  0.00     0.012 A 
HETATM   14  C17 UNK     1      22.099  -8.954  37.419  1.00  0.00     0.001 A 
HETATM   15  C18 UNK     1      21.319  -8.867  38.573  1.00  0.00     0.000 A 
HETATM   16  C16 UNK     1      21.876  -8.382  39.755  1.00  0.00     0.001 A 
HETATM   17  C14 UNK     1      23.213  -7.982  39.785  1.00  0.00     0.012 A 
ENDBRANCH   5  12
BRANCH   6  18
HETATM   18  O1  UNK     1      31.326  -5.184  38.670  1.00  0.00    -0.347 OA
BRANCH  18  19
HETATM   19  C4  UNK     1      32.002  -5.319  37.420  1.00  0.00     0.120 C 
HETATM   20  C12 UNK     1      32.082  -3.959  36.744  1.00  0.00     0.040 C 
HETATM   21  C13 UNK     1      33.380  -5.915  37.660  1.00  0.00     0.040 C 
ENDBRANCH  18  19
ENDBRANCH   6  18
TORSDOF 3
ENDMDL
MODEL 9
REMARK VINA RESULT:      -7.0     22.262     24.277
REMARK  3 active torsions:
REMARK  status: ('A' for Active; 'I' for Inactive)
REMARK    1  A    between atoms: C4_7  and  O1_1 
REMARK    2  A    between atoms: C5_8  and  O1_1 
REMARK    3  A    between atoms: C10_13  and  C3_6 
ROOT
HETATM    1  O2  UNK     1       6.446   3.907   9.888  1.00  0.00    -0.321 OA
HETATM    2  O3  UNK     1       8.154   7.600  10.195  1.00  0.00    -0.286 OA
HETATM    3  C1  UNK     1       6.649   6.016  11.071  1.00  0.00     0.049 A 
HETATM    4  C2  UNK     1       6.091   4.748  10.911  1.00  0.00     0.091 A 
HETATM    5  C3  UNK     1       8.033   5.530   9.025  1.00  0.00     0.048 A 
HETATM    6  C5  UNK     1       4.725   5.102  12.870  1.00  0.00     0.071 A 
HETATM    7  C6  UNK     1       7.661   6.482  10.107  1.00  0.00     0.197 A 
HETATM    8  C7  UNK     1       5.127   4.290  11.810  1.00  0.00     0.075 A 
HETATM    9  C8  UNK     1       6.247   6.832  12.133  1.00  0.00     0.021 A 
HETATM   10  C9  UNK     1       5.284   6.371  13.031  1.00  0.00     0.038 A 
HETATM   11  C11 UNK     1       7.406   4.344   9.008  1.00  0.00     0.159 A 
ENDROOT
BRANCH   5  12
HETATM   12  C10 UNK     1       9.058   5.854   8.019  1.00  0.00    -0.020 A 
HETATM   13  C15 UNK     1      10.412   5.791   8.353  1.00  0.00     0.012 A 
HETATM   14  C17 UNK     1      11.383   6.098   7.400  1.00  0.00     0.001 A 
HETATM   15  C18 UNK     1      11.002   6.469   6.111  1.00  0.00     0.000 A 
HETATM   16  C16 UNK     1       9.651   6.533   5.775  1.00  0.00     0.001 A 
HETATM   17  C14 UNK     1       8.679   6.225   6.727  1.00  0.00     0.012 A 
ENDBRANCH   5  12
BRANCH   6  18
HETATM   18  O1  UNK     1       3.787   4.657  13.750  1.00  0.00    -0.347 OA
BRANCH  18  19
HETATM   19  C4  UNK     1       4.237   3.809  14.806  1.00  0.00     0.120 C 
HETATM   20  C12 UNK     1       3.831   4.412  16.141  1.00  0.00     0.040 C 
HETATM   21  C13 UNK     1       3.654   2.417  14.612  1.00  0.00     0.040 C 
ENDBRANCH  18  19
ENDBRANCH   6  18
TORSDOF 3
ENDMDL
MODEL 10
REMARK VINA RESULT:      -6.9      2.547      9.098
REMARK  3 active torsions:
REMARK  status: ('A' for Active; 'I' for Inactive)
REMARK    1  A    between atoms: C4_7  and  O1_1 
REMARK    2  A    between atoms: C5_8  and  O1_1 
REMARK    3  A    between atoms: C10_13  and  C3_6 
ROOT
HETATM    1  O2  UNK     1      14.830   7.465  33.029  1.00  0.00    -0.321 OA
HETATM    2  O3  UNK     1      16.746  10.728  34.556  1.00  0.00    -0.286 OA
HETATM    3  C1  UNK     1      16.907   8.595  33.573  1.00  0.00     0.049 A 
HETATM    4  C2  UNK     1      16.200   7.503  33.072  1.00  0.00     0.091 A 
HETATM    5  C3  UNK     1      14.679   9.687  33.998  1.00  0.00     0.048 A 
HETATM    6  C5  UNK     1      18.279   6.368  32.608  1.00  0.00     0.071 A 
HETATM    7  C6  UNK     1      16.163   9.761  34.081  1.00  0.00     0.197 A 
HETATM    8  C7  UNK     1      16.885   6.388  32.590  1.00  0.00     0.075 A 
HETATM    9  C8  UNK     1      18.305   8.578  33.592  1.00  0.00     0.021 A 
HETATM   10  C9  UNK     1      18.988   7.461  33.109  1.00  0.00     0.038 A 
HETATM   11  C11 UNK     1      14.147   8.565  33.487  1.00  0.00     0.159 A 
ENDROOT
BRANCH   5  12
HETATM   12  C10 UNK     1      13.816  10.797  34.435  1.00  0.00    -0.020 A 
HETATM   13  C15 UNK     1      13.830  11.211  35.769  1.00  0.00     0.012 A 
HETATM   14  C17 UNK     1      13.013  12.264  36.183  1.00  0.00     0.001 A 
HETATM   15  C18 UNK     1      12.181  12.904  35.265  1.00  0.00     0.000 A 
HETATM   16  C16 UNK     1      12.166  12.492  33.933  1.00  0.00     0.001 A 
HETATM   17  C14 UNK     1      12.983  11.440  33.518  1.00  0.00     0.012 A 
ENDBRANCH   5  12
BRANCH   6  18
HETATM   18  O1  UNK     1      18.951   5.282  32.137  1.00  0.00    -0.347 OA
BRANCH  18  19
HETATM   19  C4  UNK     1      18.871   5.028  30.734  1.00  0.00     0.120 C 
HETATM   20  C12 UNK     1      20.010   5.747  30.029  1.00  0.00     0.040 C 
HETATM   21  C13 UNK     1      18.915   3.526  30.496  1.00  0.00     0.040 C 
ENDBRANCH  18  19
ENDBRANCH   6  18
TORSDOF 3
ENDMDL
