MODEL 1
REMARK VINA RESULT:      -8.8      0.000      0.000
REMARK  5 active torsions:
REMARK  status: ('A' for Active; 'I' for Inactive)
REMARK    1  A    between atoms: C17_26  and  O2_3 
REMARK    2  A    between atoms: C9_18  and  O2_3 
REMARK    3  A    between atoms: C2_11  and  N1_8 
REMARK       I    between atoms: C7_16  and  N1_8 
REMARK    4  A    between atoms: C6_15  and  N2_9 
REMARK    5  A    between atoms: C3_12  and  C7_16 
ROOT
HETATM    1  O3  UNK     1      20.936  -4.225  37.950  1.00  0.00    -0.267 OA
HETATM    2  N1  UNK     1      19.024  -4.051  36.586  1.00  0.00    -0.321 N 
HETATM    3  C7  UNK     1      20.037  -4.712  37.267  1.00  0.00     0.262 C 
HETATM    4  H2  UNK     1      18.375  -4.641  36.077  1.00  0.00     0.169 HD
ENDROOT
BRANCH   2   5
HETATM    5  C2  UNK     1      18.796  -2.655  36.520  1.00  0.00     0.068 A 
HETATM    6  C6  UNK     1      19.595  -1.847  35.727  1.00  0.00     0.132 A 
HETATM    7  C10 UNK     1      19.347  -0.475  35.681  1.00  0.00     0.075 A 
HETATM    8  C9  UNK     1      18.303   0.071  36.427  1.00  0.00     0.071 A 
HETATM    9  C13 UNK     1      17.507  -0.754  37.221  1.00  0.00     0.039 A 
HETATM   10  C8  UNK     1      17.755  -2.126  37.268  1.00  0.00     0.035 A 
BRANCH   6  11
HETATM   11  N2  UNK     1      20.667  -2.376  34.955  1.00  0.00    -0.113 N 
HETATM   12  O5  UNK     1      21.832  -1.978  35.184  1.00  0.00    -0.532 OA
HETATM   13  O6  UNK     1      20.411  -3.224  34.068  1.00  0.00    -0.532 OA
ENDBRANCH   6  11
BRANCH   8  14
HETATM   14  O2  UNK     1      18.061   1.410  36.383  1.00  0.00    -0.351 OA
BRANCH  14  15
HETATM   15  C17 UNK     1      18.990   2.213  35.655  1.00  0.00     0.171 C 
HETATM   16  C18 UNK     1      18.281   2.836  34.471  1.00  0.00     0.034 C 
ENDBRANCH  14  15
ENDBRANCH   8  14
ENDBRANCH   2   5
BRANCH   3  17
HETATM   17  C3  UNK     1      19.952  -6.170  37.106  1.00  0.00     0.108 A 
HETATM   18  C12 UNK     1      18.667  -6.897  37.201  1.00  0.00     0.304 A 
HETATM   19  O1  UNK     1      18.717  -8.278  37.029  1.00  0.00    -0.274 OA
HETATM   20  O4  UNK     1      17.608  -6.318  37.419  1.00  0.00    -0.259 OA
HETATM   21  C4  UNK     1      19.927  -8.952  36.778  1.00  0.00     0.089 A 
HETATM   22  C1  UNK     1      21.124  -8.249  36.693  1.00  0.00     0.000 A 
HETATM   23  C14 UNK     1      19.876 -10.336  36.619  1.00  0.00     0.039 A 
HETATM   24  C5  UNK     1      21.106  -6.805  36.867  1.00  0.00     0.037 A 
HETATM   25  C11 UNK     1      22.304  -8.954  36.442  1.00  0.00     0.033 A 
HETATM   26  C15 UNK     1      22.268 -10.342  36.281  1.00  0.00     0.011 A 
HETATM   27 Br1  UNK     1      23.869 -11.291  35.941  1.00  0.00    -0.051 Br
HETATM   28  C16 UNK     1      21.057 -11.032  36.370  1.00  0.00     0.022 A 
ENDBRANCH   3  17
TORSDOF 5
ENDMDL
MODEL 2
REMARK VINA RESULT:      -8.6      4.836     10.418
REMARK  5 active torsions:
REMARK  status: ('A' for Active; 'I' for Inactive)
REMARK    1  A    between atoms: C17_26  and  O2_3 
REMARK    2  A    between atoms: C9_18  and  O2_3 
REMARK    3  A    between atoms: C2_11  and  N1_8 
REMARK       I    between atoms: C7_16  and  N1_8 
REMARK    4  A    between atoms: C6_15  and  N2_9 
REMARK    5  A    between atoms: C3_12  and  C7_16 
ROOT
HETATM    1  O3  UNK     1      16.714   0.461  34.277  1.00  0.00    -0.267 OA
HETATM    2  N1  UNK     1      19.049   0.201  34.434  1.00  0.00    -0.321 N 
HETATM    3  C7  UNK     1      17.868   0.811  34.035  1.00  0.00     0.262 C 
HETATM    4  H2  UNK     1      19.904   0.652  34.129  1.00  0.00     0.169 HD
ENDROOT
BRANCH   2   5
HETATM    5  C2  UNK     1      19.195  -0.972  35.214  1.00  0.00     0.068 A 
HETATM    6  C6  UNK     1      19.856  -2.078  34.707  1.00  0.00     0.132 A 
HETATM    7  C10 UNK     1      19.985  -3.220  35.498  1.00  0.00     0.075 A 
HETATM    8  C9  UNK     1      19.452  -3.240  36.786  1.00  0.00     0.071 A 
HETATM    9  C13 UNK     1      18.789  -2.119  37.284  1.00  0.00     0.039 A 
HETATM   10  C8  UNK     1      18.659  -0.977  36.494  1.00  0.00     0.035 A 
BRANCH   6  11
HETATM   11  N2  UNK     1      20.410  -2.086  33.396  1.00  0.00    -0.113 N 
HETATM   12  O5  UNK     1      19.653  -1.888  32.418  1.00  0.00    -0.532 OA
HETATM   13  O6  UNK     1      21.639  -2.291  33.261  1.00  0.00    -0.532 OA
ENDBRANCH   6  11
BRANCH   8  14
HETATM   14  O2  UNK     1      19.578  -4.355  37.559  1.00  0.00    -0.351 OA
BRANCH  14  15
HETATM   15  C17 UNK     1      20.486  -5.358  37.106  1.00  0.00     0.171 C 
HETATM   16  C18 UNK     1      21.665  -5.418  38.053  1.00  0.00     0.034 C 
ENDBRANCH  14  15
ENDBRANCH   8  14
ENDBRANCH   2   5
BRANCH   3  17
HETATM   17  C3  UNK     1      18.111   2.017  33.233  1.00  0.00     0.108 A 
HETATM   18  C12 UNK     1      18.408   1.949  31.784  1.00  0.00     0.304 A 
HETATM   19  O1  UNK     1      18.620   3.161  31.134  1.00  0.00    -0.274 OA
HETATM   20  O4  UNK     1      18.466   0.882  31.183  1.00  0.00    -0.259 OA
HETATM   21  C4  UNK     1      18.555   4.392  31.814  1.00  0.00     0.089 A 
HETATM   22  C1  UNK     1      18.274   4.433  33.176  1.00  0.00     0.000 A 
HETATM   23  C14 UNK     1      18.781   5.553  31.076  1.00  0.00     0.039 A 
HETATM   24  C5  UNK     1      18.048   3.184  33.885  1.00  0.00     0.037 A 
HETATM   25  C11 UNK     1      18.219   5.674  33.817  1.00  0.00     0.033 A 
HETATM   26  C15 UNK     1      18.443   6.846  33.090  1.00  0.00     0.011 A 
HETATM   27 Br1  UNK     1      18.366   8.523  33.962  1.00  0.00    -0.051 Br
HETATM   28  C16 UNK     1      18.724   6.786  31.723  1.00  0.00     0.022 A 
ENDBRANCH   3  17
TORSDOF 5
ENDMDL
MODEL 3
REMARK VINA RESULT:      -8.4      3.304      8.329
REMARK  5 active torsions:
REMARK  status: ('A' for Active; 'I' for Inactive)
REMARK    1  A    between atoms: C17_26  and  O2_3 
REMARK    2  A    between atoms: C9_18  and  O2_3 
REMARK    3  A    between atoms: C2_11  and  N1_8 
REMARK       I    between atoms: C7_16  and  N1_8 
REMARK    4  A    between atoms: C6_15  and  N2_9 
REMARK    5  A    between atoms: C3_12  and  C7_16 
ROOT
HETATM    1  O3  UNK     1      20.445  -3.383  37.514  1.00  0.00    -0.267 OA
HETATM    2  N1  UNK     1      19.702  -4.924  35.896  1.00  0.00    -0.321 N 
HETATM    3  C7  UNK     1      19.966  -3.665  36.417  1.00  0.00     0.262 C 
HETATM    4  H2  UNK     1      19.304  -4.942  34.964  1.00  0.00     0.169 HD
ENDROOT
BRANCH   2   5
HETATM    5  C2  UNK     1      19.924  -6.179  36.514  1.00  0.00     0.068 A 
HETATM    6  C6  UNK     1      18.923  -7.136  36.544  1.00  0.00     0.132 A 
HETATM    7  C10 UNK     1      19.171  -8.364  37.160  1.00  0.00     0.075 A 
HETATM    8  C9  UNK     1      20.415  -8.618  37.734  1.00  0.00     0.071 A 
HETATM    9  C13 UNK     1      21.413  -7.645  37.696  1.00  0.00     0.039 A 
HETATM   10  C8  UNK     1      21.166  -6.417  37.082  1.00  0.00     0.035 A 
BRANCH   6  11
HETATM   11  N2  UNK     1      17.645  -6.905  35.965  1.00  0.00    -0.113 N 
HETATM   12  O5  UNK     1      17.361  -7.463  34.881  1.00  0.00    -0.532 OA
HETATM   13  O6  UNK     1      16.841  -6.148  36.558  1.00  0.00    -0.532 OA
ENDBRANCH   6  11
BRANCH   8  14
HETATM   14  O2  UNK     1      20.656  -9.816  38.335  1.00  0.00    -0.351 OA
BRANCH  14  15
HETATM   15  C17 UNK     1      20.519 -10.985  37.528  1.00  0.00     0.171 C 
HETATM   16  C18 UNK     1      21.635 -11.012  36.506  1.00  0.00     0.034 C 
ENDBRANCH  14  15
ENDBRANCH   8  14
ENDBRANCH   2   5
BRANCH   3  17
HETATM   17  C3  UNK     1      19.604  -2.592  35.483  1.00  0.00     0.108 A 
HETATM   18  C12 UNK     1      18.755  -1.450  35.889  1.00  0.00     0.304 A 
HETATM   19  O1  UNK     1      18.482  -0.496  34.912  1.00  0.00    -0.274 OA
HETATM   20  O4  UNK     1      18.311  -1.344  37.028  1.00  0.00    -0.259 OA
HETATM   21  C4  UNK     1      18.987  -0.608  33.603  1.00  0.00     0.089 A 
HETATM   22  C1  UNK     1      19.783  -1.690  33.242  1.00  0.00     0.000 A 
HETATM   23  C14 UNK     1      18.660   0.399  32.695  1.00  0.00     0.039 A 
HETATM   24  C5  UNK     1      20.086  -2.703  34.239  1.00  0.00     0.037 A 
HETATM   25  C11 UNK     1      20.265  -1.765  31.932  1.00  0.00     0.033 A 
HETATM   26  C15 UNK     1      19.946  -0.764  31.011  1.00  0.00     0.011 A 
HETATM   27 Br1  UNK     1      20.601  -0.870  29.240  1.00  0.00    -0.051 Br
HETATM   28  C16 UNK     1      19.144   0.316  31.391  1.00  0.00     0.022 A 
ENDBRANCH   3  17
TORSDOF 5
ENDMDL
MODEL 4
REMARK VINA RESULT:      -8.4     20.692     23.170
REMARK  5 active torsions:
REMARK  status: ('A' for Active; 'I' for Inactive)
REMARK    1  A    between atoms: C17_26  and  O2_3 
REMARK    2  A    between atoms: C9_18  and  O2_3 
REMARK    3  A    between atoms: C2_11  and  N1_8 
REMARK       I    between atoms: C7_16  and  N1_8 
REMARK    4  A    between atoms: C6_15  and  N2_9 
REMARK    5  A    between atoms: C3_12  and  C7_16 
ROOT
HETATM    1  O3  UNK     1      17.856  -3.505  15.353  1.00  0.00    -0.267 OA
HETATM    2  N1  UNK     1      20.029  -3.302  14.471  1.00  0.00    -0.321 N 
HETATM    3  C7  UNK     1      18.883  -2.870  15.123  1.00  0.00     0.262 C 
HETATM    4  H2  UNK     1      20.773  -2.619  14.384  1.00  0.00     0.169 HD
ENDROOT
BRANCH   2   5
HETATM    5  C2  UNK     1      20.278  -4.582  13.918  1.00  0.00     0.068 A 
HETATM    6  C6  UNK     1      20.118  -4.807  12.561  1.00  0.00     0.132 A 
HETATM    7  C10 UNK     1      20.370  -6.078  12.044  1.00  0.00     0.075 A 
HETATM    8  C9  UNK     1      20.780  -7.107  12.891  1.00  0.00     0.071 A 
HETATM    9  C13 UNK     1      20.937  -6.867  14.255  1.00  0.00     0.039 A 
HETATM   10  C8  UNK     1      20.684  -5.596  14.773  1.00  0.00     0.035 A 
BRANCH   6  11
HETATM   11  N2  UNK     1      19.702  -3.776  11.673  1.00  0.00    -0.113 N 
HETATM   12  O5  UNK     1      20.519  -2.879  11.361  1.00  0.00    -0.532 OA
HETATM   13  O6  UNK     1      18.529  -3.796  11.231  1.00  0.00    -0.532 OA
ENDBRANCH   6  11
BRANCH   8  14
HETATM   14  O2  UNK     1      21.026  -8.348  12.386  1.00  0.00    -0.351 OA
BRANCH  14  15
HETATM   15  C17 UNK     1      22.290  -8.934  12.694  1.00  0.00     0.171 C 
HETATM   16  C18 UNK     1      23.223  -8.740  11.517  1.00  0.00     0.034 C 
ENDBRANCH  14  15
ENDBRANCH   8  14
ENDBRANCH   2   5
BRANCH   3  17
HETATM   17  C3  UNK     1      18.990  -1.473  15.563  1.00  0.00     0.108 A 
HETATM   18  C12 UNK     1      19.142  -0.357  14.602  1.00  0.00     0.304 A 
HETATM   19  O1  UNK     1      19.233   0.923  15.142  1.00  0.00    -0.274 OA
HETATM   20  O4  UNK     1      19.186  -0.544  13.391  1.00  0.00    -0.259 OA
HETATM   21  C4  UNK     1      19.182   1.150  16.531  1.00  0.00     0.089 A 
HETATM   22  C1  UNK     1      19.039   0.086  17.416  1.00  0.00     0.000 A 
HETATM   23  C14 UNK     1      19.280   2.467  16.976  1.00  0.00     0.039 A 
HETATM   24  C5  UNK     1      18.942  -1.264  16.884  1.00  0.00     0.037 A 
HETATM   25  C11 UNK     1      18.994   0.351  18.787  1.00  0.00     0.033 A 
HETATM   26  C15 UNK     1      19.091   1.667  19.248  1.00  0.00     0.011 A 
HETATM   27 Br1  UNK     1      19.027   2.020  21.106  1.00  0.00    -0.051 Br
HETATM   28  C16 UNK     1      19.234   2.723  18.345  1.00  0.00     0.022 A 
ENDBRANCH   3  17
TORSDOF 5
ENDMDL
MODEL 5
REMARK VINA RESULT:      -8.4      5.003     10.635
REMARK  5 active torsions:
REMARK  status: ('A' for Active; 'I' for Inactive)
REMARK    1  A    between atoms: C17_26  and  O2_3 
REMARK    2  A    between atoms: C9_18  and  O2_3 
REMARK    3  A    between atoms: C2_11  and  N1_8 
REMARK       I    between atoms: C7_16  and  N1_8 
REMARK    4  A    between atoms: C6_15  and  N2_9 
REMARK    5  A    between atoms: C3_12  and  C7_16 
ROOT
HETATM    1  O3  UNK     1      16.687   0.516  34.138  1.00  0.00    -0.267 OA
HETATM    2  N1  UNK     1      19.006   0.389  34.524  1.00  0.00    -0.321 N 
HETATM    3  C7  UNK     1      17.837   0.930  34.008  1.00  0.00     0.262 C 
HETATM    4  H2  UNK     1      19.860   0.888  34.301  1.00  0.00     0.169 HD
ENDROOT
BRANCH   2   5
HETATM    5  C2  UNK     1      19.142  -0.773  35.322  1.00  0.00     0.068 A 
HETATM    6  C6  UNK     1      18.610  -0.816  36.600  1.00  0.00     0.132 A 
HETATM    7  C10 UNK     1      18.758  -1.975  37.364  1.00  0.00     0.075 A 
HETATM    8  C9  UNK     1      19.435  -3.075  36.838  1.00  0.00     0.071 A 
HETATM    9  C13 UNK     1      19.965  -3.017  35.550  1.00  0.00     0.039 A 
HETATM   10  C8  UNK     1      19.818  -1.859  34.787  1.00  0.00     0.035 A 
BRANCH   6  11
HETATM   11  N2  UNK     1      17.914   0.291  37.162  1.00  0.00    -0.113 N 
HETATM   12  O5  UNK     1      18.518   1.380  37.298  1.00  0.00    -0.532 OA
HETATM   13  O6  UNK     1      16.718   0.142  37.504  1.00  0.00    -0.532 OA
ENDBRANCH   6  11
BRANCH   8  14
HETATM   14  O2  UNK     1      19.579  -4.205  37.584  1.00  0.00    -0.351 OA
BRANCH  14  15
HETATM   15  C17 UNK     1      20.487  -5.192  37.095  1.00  0.00     0.171 C 
HETATM   16  C18 UNK     1      21.676  -5.273  38.028  1.00  0.00     0.034 C 
ENDBRANCH  14  15
ENDBRANCH   8  14
ENDBRANCH   2   5
BRANCH   3  17
HETATM   17  C3  UNK     1      18.089   2.147  33.225  1.00  0.00     0.108 A 
HETATM   18  C12 UNK     1      18.405   2.100  31.780  1.00  0.00     0.304 A 
HETATM   19  O1  UNK     1      18.623   3.321  31.149  1.00  0.00    -0.274 OA
HETATM   20  O4  UNK     1      18.472   1.041  31.165  1.00  0.00    -0.259 OA
HETATM   21  C4  UNK     1      18.548   4.543  31.846  1.00  0.00     0.089 A 
HETATM   22  C1  UNK     1      18.249   4.564  33.204  1.00  0.00     0.000 A 
HETATM   23  C14 UNK     1      18.781   5.714  31.127  1.00  0.00     0.039 A 
HETATM   24  C5  UNK     1      18.016   3.305  33.893  1.00  0.00     0.037 A 
HETATM   25  C11 UNK     1      18.184   5.796  33.861  1.00  0.00     0.033 A 
HETATM   26  C15 UNK     1      18.415   6.978  33.153  1.00  0.00     0.011 A 
HETATM   27 Br1  UNK     1      18.324   8.643  34.047  1.00  0.00    -0.051 Br
HETATM   28  C16 UNK     1      18.714   6.938  31.789  1.00  0.00     0.022 A 
ENDBRANCH   3  17
TORSDOF 5
ENDMDL
MODEL 6
REMARK VINA RESULT:      -8.4      8.458     13.947
REMARK  5 active torsions:
REMARK  status: ('A' for Active; 'I' for Inactive)
REMARK    1  A    between atoms: C17_26  and  O2_3 
REMARK    2  A    between atoms: C9_18  and  O2_3 
REMARK    3  A    between atoms: C2_11  and  N1_8 
REMARK       I    between atoms: C7_16  and  N1_8 
REMARK    4  A    between atoms: C6_15  and  N2_9 
REMARK    5  A    between atoms: C3_12  and  C7_16 
ROOT
HETATM    1  O3  UNK     1      19.239   5.787  33.196  1.00  0.00    -0.267 OA
HETATM    2  N1  UNK     1      17.501   4.559  32.189  1.00  0.00    -0.321 N 
HETATM    3  C7  UNK     1      18.114   5.690  32.709  1.00  0.00     0.262 C 
HETATM    4  H2  UNK     1      16.561   4.690  31.832  1.00  0.00     0.169 HD
ENDROOT
BRANCH   2   5
HETATM    5  C2  UNK     1      18.034   3.250  32.101  1.00  0.00     0.068 A 
HETATM    6  C6  UNK     1      18.572   2.786  30.912  1.00  0.00     0.132 A 
HETATM    7  C10 UNK     1      19.090   1.492  30.855  1.00  0.00     0.075 A 
HETATM    8  C9  UNK     1      19.065   0.680  31.988  1.00  0.00     0.071 A 
HETATM    9  C13 UNK     1      18.521   1.159  33.178  1.00  0.00     0.039 A 
HETATM   10  C8  UNK     1      18.002   2.453  33.236  1.00  0.00     0.035 A 
BRANCH   6  11
HETATM   11  N2  UNK     1      18.611   3.593  29.741  1.00  0.00    -0.113 N 
HETATM   12  O5  UNK     1      18.035   3.186  28.706  1.00  0.00    -0.532 OA
HETATM   13  O6  UNK     1      19.222   4.686  29.781  1.00  0.00    -0.532 OA
ENDBRANCH   6  11
BRANCH   8  14
HETATM   14  O2  UNK     1      19.572  -0.583  31.931  1.00  0.00    -0.351 OA
BRANCH  14  15
HETATM   15  C17 UNK     1      20.547  -0.846  30.924  1.00  0.00     0.171 C 
HETATM   16  C18 UNK     1      20.457  -2.302  30.518  1.00  0.00     0.034 C 
ENDBRANCH  14  15
ENDBRANCH   8  14
ENDBRANCH   2   5
BRANCH   3  17
HETATM   17  C3  UNK     1      17.250   6.874  32.630  1.00  0.00     0.108 A 
HETATM   18  C12 UNK     1      16.856   7.473  31.335  1.00  0.00     0.304 A 
HETATM   19  O1  UNK     1      16.033   8.595  31.390  1.00  0.00    -0.274 OA
HETATM   20  O4  UNK     1      17.232   7.008  30.264  1.00  0.00    -0.259 OA
HETATM   21  C4  UNK     1      15.595   9.135  32.615  1.00  0.00     0.089 A 
HETATM   22  C1  UNK     1      15.977   8.557  33.820  1.00  0.00     0.000 A 
HETATM   23  C14 UNK     1      14.772  10.260  32.568  1.00  0.00     0.039 A 
HETATM   24  C5  UNK     1      16.837   7.384  33.796  1.00  0.00     0.037 A 
HETATM   25  C11 UNK     1      15.522   9.123  35.014  1.00  0.00     0.033 A 
HETATM   26  C15 UNK     1      14.697  10.250  34.983  1.00  0.00     0.011 A 
HETATM   27 Br1  UNK     1      14.083  11.012  36.603  1.00  0.00    -0.051 Br
HETATM   28  C16 UNK     1      14.323  10.818  33.763  1.00  0.00     0.022 A 
ENDBRANCH   3  17
TORSDOF 5
ENDMDL
MODEL 7
REMARK VINA RESULT:      -8.3      2.546      3.902
REMARK  5 active torsions:
REMARK  status: ('A' for Active; 'I' for Inactive)
REMARK    1  A    between atoms: C17_26  and  O2_3 
REMARK    2  A    between atoms: C9_18  and  O2_3 
REMARK    3  A    between atoms: C2_11  and  N1_8 
REMARK       I    between atoms: C7_16  and  N1_8 
REMARK    4  A    between atoms: C6_15  and  N2_9 
REMARK    5  A    between atoms: C3_12  and  C7_16 
ROOT
HETATM    1  O3  UNK     1      20.755  -3.521  33.906  1.00  0.00    -0.267 OA
HETATM    2  N1  UNK     1      19.194  -2.218  35.093  1.00  0.00    -0.321 N 
HETATM    3  C7  UNK     1      20.048  -3.292  34.885  1.00  0.00     0.262 C 
HETATM    4  H2  UNK     1      18.697  -2.213  35.977  1.00  0.00     0.169 HD
ENDROOT
BRANCH   2   5
HETATM    5  C2  UNK     1      18.940  -1.134  34.218  1.00  0.00     0.068 A 
HETATM    6  C6  UNK     1      18.450   0.066  34.705  1.00  0.00     0.132 A 
HETATM    7  C10 UNK     1      18.209   1.117  33.819  1.00  0.00     0.075 A 
HETATM    8  C9  UNK     1      18.463   0.954  32.458  1.00  0.00     0.071 A 
HETATM    9  C13 UNK     1      18.956  -0.260  31.981  1.00  0.00     0.039 A 
HETATM   10  C8  UNK     1      19.196  -1.311  32.866  1.00  0.00     0.035 A 
BRANCH   6  11
HETATM   11  N2  UNK     1      18.182   0.262  36.089  1.00  0.00    -0.113 N 
HETATM   12  O5  UNK     1      17.403  -0.527  36.672  1.00  0.00    -0.532 OA
HETATM   13  O6  UNK     1      18.735   1.218  36.682  1.00  0.00    -0.532 OA
ENDBRANCH   6  11
BRANCH   8  14
HETATM   14  O2  UNK     1      18.228   1.979  31.594  1.00  0.00    -0.351 OA
BRANCH  14  15
HETATM   15  C17 UNK     1      18.951   1.969  30.364  1.00  0.00     0.171 C 
HETATM   16  C18 UNK     1      17.968   2.029  29.214  1.00  0.00     0.034 C 
ENDBRANCH  14  15
ENDBRANCH   8  14
ENDBRANCH   2   5
BRANCH   3  17
HETATM   17  C3  UNK     1      20.053  -4.223  36.021  1.00  0.00     0.108 A 
HETATM   18  C12 UNK     1      20.191  -3.755  37.419  1.00  0.00     0.304 A 
HETATM   19  O1  UNK     1      20.182  -4.734  38.408  1.00  0.00    -0.274 OA
HETATM   20  O4  UNK     1      20.307  -2.566  37.697  1.00  0.00    -0.259 OA
HETATM   21  C4  UNK     1      20.048  -6.102  38.100  1.00  0.00     0.089 A 
HETATM   22  C1  UNK     1      19.920  -6.519  36.779  1.00  0.00     0.000 A 
HETATM   23  C14 UNK     1      20.049  -7.008  39.160  1.00  0.00     0.039 A 
HETATM   24  C5  UNK     1      19.926  -5.521  35.722  1.00  0.00     0.037 A 
HETATM   25  C11 UNK     1      19.790  -7.885  36.514  1.00  0.00     0.033 A 
HETATM   26  C15 UNK     1      19.789  -8.805  37.565  1.00  0.00     0.011 A 
HETATM   27 Br1  UNK     1      19.612 -10.653  37.200  1.00  0.00    -0.051 Br
HETATM   28  C16 UNK     1      19.919  -8.367  38.886  1.00  0.00     0.022 A 
ENDBRANCH   3  17
TORSDOF 5
ENDMDL
MODEL 8
REMARK VINA RESULT:      -8.2      3.515      8.665
REMARK  5 active torsions:
REMARK  status: ('A' for Active; 'I' for Inactive)
REMARK    1  A    between atoms: C17_26  and  O2_3 
REMARK    2  A    between atoms: C9_18  and  O2_3 
REMARK    3  A    between atoms: C2_11  and  N1_8 
REMARK       I    between atoms: C7_16  and  N1_8 
REMARK    4  A    between atoms: C6_15  and  N2_9 
REMARK    5  A    between atoms: C3_12  and  C7_16 
ROOT
HETATM    1  O3  UNK     1      21.328  -4.335  36.926  1.00  0.00    -0.267 OA
HETATM    2  N1  UNK     1      19.110  -5.104  36.749  1.00  0.00    -0.321 N 
HETATM    3  C7  UNK     1      20.146  -4.190  36.620  1.00  0.00     0.262 C 
HETATM    4  H2  UNK     1      18.200  -4.789  36.434  1.00  0.00     0.169 HD
ENDROOT
BRANCH   2   5
HETATM    5  C2  UNK     1      19.178  -6.420  37.269  1.00  0.00     0.068 A 
HETATM    6  C6  UNK     1      18.826  -7.507  36.486  1.00  0.00     0.132 A 
HETATM    7  C10 UNK     1      18.904  -8.792  37.025  1.00  0.00     0.075 A 
HETATM    8  C9  UNK     1      19.333  -8.972  38.339  1.00  0.00     0.071 A 
HETATM    9  C13 UNK     1      19.685  -7.869  39.116  1.00  0.00     0.039 A 
HETATM   10  C8  UNK     1      19.607  -6.585  38.578  1.00  0.00     0.035 A 
BRANCH   6  11
HETATM   11  N2  UNK     1      18.385  -7.352  35.142  1.00  0.00    -0.113 N 
HETATM   12  O5  UNK     1      19.222  -7.043  34.262  1.00  0.00    -0.532 OA
HETATM   13  O6  UNK     1      17.173  -7.530  34.880  1.00  0.00    -0.532 OA
ENDBRANCH   6  11
BRANCH   8  14
HETATM   14  O2  UNK     1      19.409 -10.227  38.864  1.00  0.00    -0.351 OA
BRANCH  14  15
HETATM   15  C17 UNK     1      19.717 -11.289  37.963  1.00  0.00     0.171 C 
HETATM   16  C18 UNK     1      21.023 -10.979  37.264  1.00  0.00     0.034 C 
ENDBRANCH  14  15
ENDBRANCH   8  14
ENDBRANCH   2   5
BRANCH   3  17
HETATM   17  C3  UNK     1      19.695  -2.921  36.034  1.00  0.00     0.108 A 
HETATM   18  C12 UNK     1      20.079  -2.507  34.666  1.00  0.00     0.304 A 
HETATM   19  O1  UNK     1      19.588  -1.282  34.224  1.00  0.00    -0.274 OA
HETATM   20  O4  UNK     1      20.794  -3.204  33.954  1.00  0.00    -0.259 OA
HETATM   21  C4  UNK     1      18.766  -0.475  35.033  1.00  0.00     0.089 A 
HETATM   22  C1  UNK     1      18.417  -0.883  36.317  1.00  0.00     0.000 A 
HETATM   23  C14 UNK     1      18.322   0.735  34.502  1.00  0.00     0.039 A 
HETATM   24  C5  UNK     1      18.914  -2.158  36.808  1.00  0.00     0.037 A 
HETATM   25  C11 UNK     1      17.600  -0.054  37.089  1.00  0.00     0.033 A 
HETATM   26  C15 UNK     1      17.147   1.162  36.570  1.00  0.00     0.011 A 
HETATM   27 Br1  UNK     1      16.040   2.280  37.620  1.00  0.00    -0.051 Br
HETATM   28  C16 UNK     1      17.508   1.556  35.279  1.00  0.00     0.022 A 
ENDBRANCH   3  17
TORSDOF 5
ENDMDL
MODEL 9
REMARK VINA RESULT:      -8.2      7.708     10.647
REMARK  5 active torsions:
REMARK  status: ('A' for Active; 'I' for Inactive)
REMARK    1  A    between atoms: C17_26  and  O2_3 
REMARK    2  A    between atoms: C9_18  and  O2_3 
REMARK    3  A    between atoms: C2_11  and  N1_8 
REMARK       I    between atoms: C7_16  and  N1_8 
REMARK    4  A    between atoms: C6_15  and  N2_9 
REMARK    5  A    between atoms: C3_12  and  C7_16 
ROOT
HETATM    1  O3  UNK     1      27.582  -8.494  39.895  1.00  0.00    -0.267 OA
HETATM    2  N1  UNK     1      28.190  -6.802  38.374  1.00  0.00    -0.321 N 
HETATM    3  C7  UNK     1      27.317  -7.551  39.152  1.00  0.00     0.262 C 
HETATM    4  H2  UNK     1      27.769  -6.060  37.828  1.00  0.00     0.169 HD
ENDROOT
BRANCH   2   5
HETATM    5  C2  UNK     1      29.593  -6.957  38.257  1.00  0.00     0.068 A 
HETATM    6  C6  UNK     1      30.436  -5.866  38.390  1.00  0.00     0.132 A 
HETATM    7  C10 UNK     1      31.814  -6.048  38.271  1.00  0.00     0.075 A 
HETATM    8  C9  UNK     1      32.331  -7.319  38.022  1.00  0.00     0.071 A 
HETATM    9  C13 UNK     1      31.470  -8.408  37.891  1.00  0.00     0.039 A 
HETATM   10  C8  UNK     1      30.093  -8.227  38.009  1.00  0.00     0.035 A 
BRANCH   6  11
HETATM   11  N2  UNK     1      29.936  -4.558  38.645  1.00  0.00    -0.113 N 
HETATM   12  O5  UNK     1      29.964  -3.709  37.724  1.00  0.00    -0.532 OA
HETATM   13  O6  UNK     1      29.485  -4.295  39.784  1.00  0.00    -0.532 OA
ENDBRANCH   6  11
BRANCH   8  14
HETATM   14  O2  UNK     1      33.676  -7.496  37.905  1.00  0.00    -0.351 OA
BRANCH  14  15
HETATM   15  C17 UNK     1      34.453  -6.351  37.556  1.00  0.00     0.171 C 
HETATM   16  C18 UNK     1      34.879  -6.469  36.108  1.00  0.00     0.034 C 
ENDBRANCH  14  15
ENDBRANCH   8  14
ENDBRANCH   2   5
BRANCH   3  17
HETATM   17  C3  UNK     1      25.927  -7.096  39.017  1.00  0.00     0.108 A 
HETATM   18  C12 UNK     1      25.576  -5.662  38.923  1.00  0.00     0.304 A 
HETATM   19  O1  UNK     1      24.223  -5.357  38.798  1.00  0.00    -0.274 OA
HETATM   20  O4  UNK     1      26.429  -4.781  38.952  1.00  0.00    -0.259 OA
HETATM   21  C4  UNK     1      23.236  -6.361  38.763  1.00  0.00     0.089 A 
HETATM   22  C1  UNK     1      23.588  -7.703  38.853  1.00  0.00     0.000 A 
HETATM   23  C14 UNK     1      21.907  -5.957  38.635  1.00  0.00     0.039 A 
HETATM   24  C5  UNK     1      24.993  -8.054  38.985  1.00  0.00     0.037 A 
HETATM   25  C11 UNK     1      22.579  -8.669  38.815  1.00  0.00     0.033 A 
HETATM   26  C15 UNK     1      21.243  -8.280  38.687  1.00  0.00     0.011 A 
HETATM   27 Br1  UNK     1      19.881  -9.592  38.635  1.00  0.00    -0.051 Br
HETATM   28  C16 UNK     1      20.908  -6.927  38.597  1.00  0.00     0.022 A 
ENDBRANCH   3  17
TORSDOF 5
ENDMDL
MODEL 10
REMARK VINA RESULT:      -8.2     10.259     14.933
REMARK  5 active torsions:
REMARK  status: ('A' for Active; 'I' for Inactive)
REMARK    1  A    between atoms: C17_26  and  O2_3 
REMARK    2  A    between atoms: C9_18  and  O2_3 
REMARK    3  A    between atoms: C2_11  and  N1_8 
REMARK       I    between atoms: C7_16  and  N1_8 
REMARK    4  A    between atoms: C6_15  and  N2_9 
REMARK    5  A    between atoms: C3_12  and  C7_16 
ROOT
HETATM    1  O3  UNK     1      19.578   6.715  34.097  1.00  0.00    -0.267 OA
HETATM    2  N1  UNK     1      17.753   6.142  32.725  1.00  0.00    -0.321 N 
HETATM    3  C7  UNK     1      18.473   6.936  33.607  1.00  0.00     0.262 C 
HETATM    4  H2  UNK     1      16.852   6.507  32.436  1.00  0.00     0.169 HD
ENDROOT
BRANCH   2   5
HETATM    5  C2  UNK     1      18.130   4.888  32.187  1.00  0.00     0.068 A 
HETATM    6  C6  UNK     1      18.684   4.802  30.920  1.00  0.00     0.132 A 
HETATM    7  C10 UNK     1      19.047   3.553  30.416  1.00  0.00     0.075 A 
HETATM    8  C9  UNK     1      18.851   2.406  31.185  1.00  0.00     0.071 A 
HETATM    9  C13 UNK     1      18.292   2.507  32.458  1.00  0.00     0.039 A 
HETATM   10  C8  UNK     1      17.929   3.756  32.963  1.00  0.00     0.035 A 
BRANCH   6  11
HETATM   11  N2  UNK     1      18.896   5.955  30.114  1.00  0.00    -0.113 N 
HETATM   12  O5  UNK     1      17.933   6.724  29.893  1.00  0.00    -0.532 OA
HETATM   13  O6  UNK     1      20.041   6.165  29.649  1.00  0.00    -0.532 OA
ENDBRANCH   6  11
BRANCH   8  14
HETATM   14  O2  UNK     1      19.205   1.187  30.692  1.00  0.00    -0.351 OA
BRANCH  14  15
HETATM   15  C17 UNK     1      19.200   1.035  29.273  1.00  0.00     0.171 C 
HETATM   16  C18 UNK     1      20.000  -0.197  28.907  1.00  0.00     0.034 C 
ENDBRANCH  14  15
ENDBRANCH   8  14
ENDBRANCH   2   5
BRANCH   3  17
HETATM   17  C3  UNK     1      17.760   8.175  33.945  1.00  0.00     0.108 A 
HETATM   18  C12 UNK     1      16.373   8.167  34.463  1.00  0.00     0.304 A 
HETATM   19  O1  UNK     1      15.806   9.406  34.746  1.00  0.00    -0.274 OA
HETATM   20  O4  UNK     1      15.751   7.124  34.636  1.00  0.00    -0.259 OA
HETATM   21  C4  UNK     1      16.512  10.609  34.553  1.00  0.00     0.089 A 
HETATM   22  C1  UNK     1      17.814  10.593  34.064  1.00  0.00     0.000 A 
HETATM   23  C14 UNK     1      15.859  11.800  34.866  1.00  0.00     0.039 A 
HETATM   24  C5  UNK     1      18.435   9.315  33.758  1.00  0.00     0.037 A 
HETATM   25  C11 UNK     1      18.481  11.808  33.885  1.00  0.00     0.033 A 
HETATM   26  C15 UNK     1      17.840  13.010  34.195  1.00  0.00     0.011 A 
HETATM   27 Br1  UNK     1      18.748  14.652  33.952  1.00  0.00    -0.051 Br
HETATM   28  C16 UNK     1      16.532  13.007  34.685  1.00  0.00     0.022 A 
ENDBRANCH   3  17
TORSDOF 5
ENDMDL
