MODEL 1
REMARK VINA RESULT:      -8.1      0.000      0.000
REMARK  1 active torsions:
REMARK  status: ('A' for Active; 'I' for Inactive)
REMARK    1  A    between atoms: C3_5  and  C7_9 
ROOT
HETATM    1  O1  UNK     1      19.187   2.733  30.491  1.00  0.00    -0.309 OA
HETATM    2  O2  UNK     1      17.662   2.943  34.263  1.00  0.00    -0.287 OA
HETATM    3  C1  UNK     1      18.254   4.085  32.281  1.00  0.00     0.048 A 
HETATM    4  C2  UNK     1      18.783   3.942  30.999  1.00  0.00     0.090 A 
HETATM    5  C3  UNK     1      19.072   1.608  31.294  1.00  0.00     0.090 A 
HETATM    6  C4  UNK     1      17.858   5.341  32.746  1.00  0.00     0.025 A 
HETATM    7  C5  UNK     1      17.995   6.456  31.917  1.00  0.00    -0.061 A 
HETATM    8  C6  UNK     1      18.120   2.892  33.131  1.00  0.00     0.187 A 
HETATM    9  C8  UNK     1      18.919   5.058  30.172  1.00  0.00     0.039 A 
HETATM   10  C9  UNK     1      18.573   1.616  32.540  1.00  0.00     0.093 A 
HETATM   11  C10 UNK     1      18.525   6.314  30.633  1.00  0.00     0.009 A 
HETATM   12  C11 UNK     1      17.576   7.802  32.404  1.00  0.00     0.048 C 
ENDROOT
BRANCH   5  13
HETATM   13  C7  UNK     1      19.530   0.362  30.648  1.00  0.00    -0.002 A 
HETATM   14  C12 UNK     1      19.718  -0.795  31.408  1.00  0.00     0.014 A 
HETATM   15  C14 UNK     1      20.151  -1.973  30.798  1.00  0.00     0.001 A 
HETATM   16  C16 UNK     1      20.397  -1.997  29.426  1.00  0.00     0.000 A 
HETATM   17  C15 UNK     1      20.208  -0.845  28.663  1.00  0.00     0.001 A 
HETATM   18  C13 UNK     1      19.776   0.333  29.273  1.00  0.00     0.014 A 
ENDBRANCH   5  13
TORSDOF 1
ENDMDL
MODEL 2
REMARK VINA RESULT:      -7.8      3.353      4.891
REMARK  1 active torsions:
REMARK  status: ('A' for Active; 'I' for Inactive)
REMARK    1  A    between atoms: C3_5  and  C7_9 
ROOT
HETATM    1  O1  UNK     1      18.842   0.553  33.231  1.00  0.00    -0.309 OA
HETATM    2  O2  UNK     1      19.373  -2.607  35.748  1.00  0.00    -0.287 OA
HETATM    3  C1  UNK     1      18.705  -0.356  35.480  1.00  0.00     0.048 A 
HETATM    4  C2  UNK     1      18.545   0.683  34.565  1.00  0.00     0.090 A 
HETATM    5  C3  UNK     1      19.329  -0.664  32.779  1.00  0.00     0.090 A 
HETATM    6  C4  UNK     1      18.387  -0.166  36.827  1.00  0.00     0.025 A 
HETATM    7  C5  UNK     1      17.907   1.073  37.252  1.00  0.00    -0.061 A 
HETATM    8  C6  UNK     1      19.212  -1.651  35.002  1.00  0.00     0.187 A 
HETATM    9  C8  UNK     1      18.065   1.921  34.992  1.00  0.00     0.039 A 
HETATM   10  C9  UNK     1      19.519  -1.739  33.560  1.00  0.00     0.093 A 
HETATM   11  C10 UNK     1      17.747   2.115  36.336  1.00  0.00     0.009 A 
HETATM   12  C11 UNK     1      17.565   1.287  38.688  1.00  0.00     0.048 C 
ENDROOT
BRANCH   5  13
HETATM   13  C7  UNK     1      19.609  -0.696  31.330  1.00  0.00    -0.002 A 
HETATM   14  C12 UNK     1      20.102  -1.860  30.735  1.00  0.00     0.014 A 
HETATM   15  C14 UNK     1      20.367  -1.892  29.366  1.00  0.00     0.001 A 
HETATM   16  C16 UNK     1      20.139  -0.758  28.587  1.00  0.00     0.000 A 
HETATM   17  C15 UNK     1      19.645   0.406  29.176  1.00  0.00     0.001 A 
HETATM   18  C13 UNK     1      19.381   0.437  30.545  1.00  0.00     0.014 A 
ENDBRANCH   5  13
TORSDOF 1
ENDMDL
MODEL 3
REMARK VINA RESULT:      -7.7      2.691      4.688
REMARK  1 active torsions:
REMARK  status: ('A' for Active; 'I' for Inactive)
REMARK    1  A    between atoms: C3_5  and  C7_9 
ROOT
HETATM    1  O1  UNK     1      18.926  -0.236  33.328  1.00  0.00    -0.309 OA
HETATM    2  O2  UNK     1      17.896   3.657  33.945  1.00  0.00    -0.287 OA
HETATM    3  C1  UNK     1      18.212   1.504  34.865  1.00  0.00     0.048 A 
HETATM    4  C2  UNK     1      18.576   0.188  34.585  1.00  0.00     0.090 A 
HETATM    5  C3  UNK     1      18.907   0.685  32.292  1.00  0.00     0.090 A 
HETATM    6  C4  UNK     1      17.865   1.879  36.165  1.00  0.00     0.025 A 
HETATM    7  C5  UNK     1      17.885   0.927  37.185  1.00  0.00    -0.061 A 
HETATM    8  C6  UNK     1      18.201   2.486  33.770  1.00  0.00     0.187 A 
HETATM    9  C8  UNK     1      18.596  -0.763  35.606  1.00  0.00     0.039 A 
HETATM   10  C9  UNK     1      18.581   1.979  32.436  1.00  0.00     0.093 A 
HETATM   11  C10 UNK     1      18.250  -0.391  36.906  1.00  0.00     0.009 A 
HETATM   12  C11 UNK     1      17.516   1.317  38.576  1.00  0.00     0.048 C 
ENDROOT
BRANCH   5  13
HETATM   13  C7  UNK     1      19.306   0.125  30.985  1.00  0.00    -0.002 A 
HETATM   14  C12 UNK     1      18.975   0.793  29.804  1.00  0.00     0.014 A 
HETATM   15  C14 UNK     1      19.351   0.265  28.569  1.00  0.00     0.001 A 
HETATM   16  C16 UNK     1      20.060  -0.935  28.512  1.00  0.00     0.000 A 
HETATM   17  C15 UNK     1      20.393  -1.605  29.689  1.00  0.00     0.001 A 
HETATM   18  C13 UNK     1      20.017  -1.076  30.923  1.00  0.00     0.014 A 
ENDBRANCH   5  13
TORSDOF 1
ENDMDL
MODEL 4
REMARK VINA RESULT:      -7.6      2.258      7.011
REMARK  1 active torsions:
REMARK  status: ('A' for Active; 'I' for Inactive)
REMARK    1  A    between atoms: C3_5  and  C7_9 
ROOT
HETATM    1  O1  UNK     1      18.927   6.404  31.654  1.00  0.00    -0.309 OA
HETATM    2  O2  UNK     1      17.909   3.244  34.015  1.00  0.00    -0.287 OA
HETATM    3  C1  UNK     1      18.409   4.039  31.847  1.00  0.00     0.048 A 
HETATM    4  C2  UNK     1      18.759   5.161  31.098  1.00  0.00     0.090 A 
HETATM    5  C3  UNK     1      18.733   6.549  33.020  1.00  0.00     0.090 A 
HETATM    6  C4  UNK     1      18.251   2.797  31.227  1.00  0.00     0.025 A 
HETATM    7  C5  UNK     1      18.446   2.687  29.850  1.00  0.00    -0.061 A 
HETATM    8  C6  UNK     1      18.212   4.186  33.297  1.00  0.00     0.187 A 
HETATM    9  C8  UNK     1      18.953   5.048  29.721  1.00  0.00     0.039 A 
HETATM   10  C9  UNK     1      18.402   5.544  33.846  1.00  0.00     0.093 A 
HETATM   11  C10 UNK     1      18.795   3.810  29.098  1.00  0.00     0.009 A 
HETATM   12  C11 UNK     1      18.278   1.366  29.178  1.00  0.00     0.048 C 
ENDROOT
BRANCH   5  13
HETATM   13  C7  UNK     1      18.945   7.923  33.513  1.00  0.00    -0.002 A 
HETATM   14  C12 UNK     1      20.166   8.282  34.090  1.00  0.00     0.014 A 
HETATM   15  C14 UNK     1      20.367   9.582  34.557  1.00  0.00     0.001 A 
HETATM   16  C16 UNK     1      19.348  10.527  34.447  1.00  0.00     0.000 A 
HETATM   17  C15 UNK     1      18.127  10.173  33.871  1.00  0.00     0.001 A 
HETATM   18  C13 UNK     1      17.927   8.874  33.404  1.00  0.00     0.014 A 
ENDBRANCH   5  13
TORSDOF 1
ENDMDL
MODEL 5
REMARK VINA RESULT:      -7.6      4.900      6.723
REMARK  1 active torsions:
REMARK  status: ('A' for Active; 'I' for Inactive)
REMARK    1  A    between atoms: C3_5  and  C7_9 
ROOT
HETATM    1  O1  UNK     1      17.545   8.798  33.056  1.00  0.00    -0.309 OA
HETATM    2  O2  UNK     1      13.785   7.243  32.861  1.00  0.00    -0.287 OA
HETATM    3  C1  UNK     1      15.180   9.013  33.568  1.00  0.00     0.048 A 
HETATM    4  C2  UNK     1      16.491   9.488  33.598  1.00  0.00     0.090 A 
HETATM    5  C3  UNK     1      17.295   7.571  32.459  1.00  0.00     0.090 A 
HETATM    6  C4  UNK     1      14.146   9.759  34.137  1.00  0.00     0.025 A 
HETATM    7  C5  UNK     1      14.432  10.986  34.737  1.00  0.00    -0.061 A 
HETATM    8  C6  UNK     1      14.910   7.718  32.927  1.00  0.00     0.187 A 
HETATM    9  C8  UNK     1      16.774  10.714  34.200  1.00  0.00     0.039 A 
HETATM   10  C9  UNK     1      16.078   7.013  32.362  1.00  0.00     0.093 A 
HETATM   11  C10 UNK     1      15.744  11.462  34.769  1.00  0.00     0.009 A 
HETATM   12  C11 UNK     1      13.334  11.790  35.348  1.00  0.00     0.048 C 
ENDROOT
BRANCH   5  13
HETATM   13  C7  UNK     1      18.496   6.918  31.904  1.00  0.00    -0.002 A 
HETATM   14  C12 UNK     1      19.648   6.785  32.684  1.00  0.00     0.014 A 
HETATM   15  C14 UNK     1      20.784   6.168  32.160  1.00  0.00     0.001 A 
HETATM   16  C16 UNK     1      20.772   5.682  30.853  1.00  0.00     0.000 A 
HETATM   17  C15 UNK     1      19.625   5.812  30.070  1.00  0.00     0.001 A 
HETATM   18  C13 UNK     1      18.489   6.429  30.595  1.00  0.00     0.014 A 
ENDBRANCH   5  13
TORSDOF 1
ENDMDL
MODEL 6
REMARK VINA RESULT:      -7.6      4.894      6.789
REMARK  1 active torsions:
REMARK  status: ('A' for Active; 'I' for Inactive)
REMARK    1  A    between atoms: C3_5  and  C7_9 
ROOT
HETATM    1  O1  UNK     1      17.542   8.802  33.069  1.00  0.00    -0.309 OA
HETATM    2  O2  UNK     1      13.792   7.214  32.966  1.00  0.00    -0.287 OA
HETATM    3  C1  UNK     1      15.185   9.006  33.621  1.00  0.00     0.048 A 
HETATM    4  C2  UNK     1      16.491   9.492  33.620  1.00  0.00     0.090 A 
HETATM    5  C3  UNK     1      17.291   7.565  32.496  1.00  0.00     0.090 A 
HETATM    6  C4  UNK     1      14.154   9.752  34.197  1.00  0.00     0.025 A 
HETATM    7  C5  UNK     1      14.440  10.990  34.774  1.00  0.00    -0.061 A 
HETATM    8  C6  UNK     1      14.914   7.699  33.004  1.00  0.00     0.187 A 
HETATM    9  C8  UNK     1      16.775  10.730  34.198  1.00  0.00     0.039 A 
HETATM   10  C9  UNK     1      16.077   6.995  32.429  1.00  0.00     0.093 A 
HETATM   11  C10 UNK     1      15.748  11.477  34.775  1.00  0.00     0.009 A 
HETATM   12  C11 UNK     1      13.347  11.794  35.393  1.00  0.00     0.048 C 
ENDROOT
BRANCH   5  13
HETATM   13  C7  UNK     1      18.488   6.914  31.929  1.00  0.00    -0.002 A 
HETATM   14  C12 UNK     1      18.468   6.423  30.621  1.00  0.00     0.014 A 
HETATM   15  C14 UNK     1      19.599   5.807  30.084  1.00  0.00     0.001 A 
HETATM   16  C16 UNK     1      20.755   5.681  30.855  1.00  0.00     0.000 A 
HETATM   17  C15 UNK     1      20.779   6.170  32.161  1.00  0.00     0.001 A 
HETATM   18  C13 UNK     1      19.648   6.785  32.697  1.00  0.00     0.014 A 
ENDBRANCH   5  13
TORSDOF 1
ENDMDL
MODEL 7
REMARK VINA RESULT:      -7.5      1.024      6.182
REMARK  1 active torsions:
REMARK  status: ('A' for Active; 'I' for Inactive)
REMARK    1  A    between atoms: C3_5  and  C7_9 
ROOT
HETATM    1  O1  UNK     1      19.158   2.374  30.452  1.00  0.00    -0.309 OA
HETATM    2  O2  UNK     1      18.562   0.151  33.814  1.00  0.00    -0.287 OA
HETATM    3  C1  UNK     1      19.329   0.230  31.580  1.00  0.00     0.048 A 
HETATM    4  C2  UNK     1      19.507   1.047  30.465  1.00  0.00     0.090 A 
HETATM    5  C3  UNK     1      18.596   2.920  31.597  1.00  0.00     0.090 A 
HETATM    6  C4  UNK     1      19.703  -1.116  31.536  1.00  0.00     0.025 A 
HETATM    7  C5  UNK     1      20.258  -1.637  30.367  1.00  0.00    -0.061 A 
HETATM    8  C6  UNK     1      18.743   0.808  32.798  1.00  0.00     0.187 A 
HETATM    9  C8  UNK     1      20.062   0.523  29.297  1.00  0.00     0.039 A 
HETATM   10  C9  UNK     1      18.381   2.238  32.733  1.00  0.00     0.093 A 
HETATM   11  C10 UNK     1      20.436  -0.820  29.250  1.00  0.00     0.009 A 
HETATM   12  C11 UNK     1      20.660  -3.072  30.309  1.00  0.00     0.048 C 
ENDROOT
BRANCH   5  13
HETATM   13  C7  UNK     1      18.265   4.353  31.476  1.00  0.00    -0.002 A 
HETATM   14  C12 UNK     1      17.428   4.963  32.414  1.00  0.00     0.014 A 
HETATM   15  C14 UNK     1      17.114   6.318  32.301  1.00  0.00     0.001 A 
HETATM   16  C16 UNK     1      17.636   7.067  31.247  1.00  0.00     0.000 A 
HETATM   17  C15 UNK     1      18.473   6.464  30.308  1.00  0.00     0.001 A 
HETATM   18  C13 UNK     1      18.787   5.109  30.422  1.00  0.00     0.014 A 
ENDBRANCH   5  13
TORSDOF 1
ENDMDL
MODEL 8
REMARK VINA RESULT:      -7.5     22.763     24.266
REMARK  1 active torsions:
REMARK  status: ('A' for Active; 'I' for Inactive)
REMARK    1  A    between atoms: C3_5  and  C7_9 
ROOT
HETATM    1  O1  UNK     1      13.249   8.565   8.017  1.00  0.00    -0.309 OA
HETATM    2  O2  UNK     1      15.092   6.462  10.980  1.00  0.00    -0.287 OA
HETATM    3  C1  UNK     1      15.094   8.369   9.585  1.00  0.00     0.048 A 
HETATM    4  C2  UNK     1      14.412   9.038   8.570  1.00  0.00     0.090 A 
HETATM    5  C3  UNK     1      12.737   7.364   8.484  1.00  0.00     0.090 A 
HETATM    6  C4  UNK     1      16.275   8.899  10.111  1.00  0.00     0.025 A 
HETATM    7  C5  UNK     1      16.769  10.105   9.613  1.00  0.00    -0.061 A 
HETATM    8  C6  UNK     1      14.548   7.100  10.089  1.00  0.00     0.187 A 
HETATM    9  C8  UNK     1      14.908  10.244   8.074  1.00  0.00     0.039 A 
HETATM   10  C9  UNK     1      13.298   6.631   9.459  1.00  0.00     0.093 A 
HETATM   11  C10 UNK     1      16.087  10.776   8.597  1.00  0.00     0.009 A 
HETATM   12  C11 UNK     1      18.029  10.679  10.167  1.00  0.00     0.048 C 
ENDROOT
BRANCH   5  13
HETATM   13  C7  UNK     1      11.483   6.951   7.825  1.00  0.00    -0.002 A 
HETATM   14  C12 UNK     1      11.491   6.548   6.487  1.00  0.00     0.014 A 
HETATM   15  C14 UNK     1      10.305   6.158   5.864  1.00  0.00     0.001 A 
HETATM   16  C16 UNK     1       9.107   6.168   6.577  1.00  0.00     0.000 A 
HETATM   17  C15 UNK     1       9.094   6.568   7.914  1.00  0.00     0.001 A 
HETATM   18  C13 UNK     1      10.280   6.959   8.536  1.00  0.00     0.014 A 
ENDBRANCH   5  13
TORSDOF 1
ENDMDL
MODEL 9
REMARK VINA RESULT:      -7.5     22.768     24.252
REMARK  1 active torsions:
REMARK  status: ('A' for Active; 'I' for Inactive)
REMARK    1  A    between atoms: C3_5  and  C7_9 
ROOT
HETATM    1  O1  UNK     1      13.254   8.563   8.017  1.00  0.00    -0.309 OA
HETATM    2  O2  UNK     1      15.108   6.425  10.948  1.00  0.00    -0.287 OA
HETATM    3  C1  UNK     1      15.100   8.353   9.582  1.00  0.00     0.048 A 
HETATM    4  C2  UNK     1      14.414   9.034   8.577  1.00  0.00     0.090 A 
HETATM    5  C3  UNK     1      12.748   7.352   8.466  1.00  0.00     0.090 A 
HETATM    6  C4  UNK     1      16.278   8.881  10.115  1.00  0.00     0.025 A 
HETATM    7  C5  UNK     1      16.766  10.097   9.636  1.00  0.00    -0.061 A 
HETATM    8  C6  UNK     1      14.561   7.074  10.067  1.00  0.00     0.187 A 
HETATM    9  C8  UNK     1      14.904  10.250   8.099  1.00  0.00     0.039 A 
HETATM   10  C9  UNK     1      13.313   6.608   9.430  1.00  0.00     0.093 A 
HETATM   11  C10 UNK     1      16.080  10.780   8.629  1.00  0.00     0.009 A 
HETATM   12  C11 UNK     1      18.023  10.669  10.198  1.00  0.00     0.048 C 
ENDROOT
BRANCH   5  13
HETATM   13  C7  UNK     1      11.496   6.942   7.801  1.00  0.00    -0.002 A 
HETATM   14  C12 UNK     1      10.292   6.939   8.510  1.00  0.00     0.014 A 
HETATM   15  C14 UNK     1       9.107   6.552   7.883  1.00  0.00     0.001 A 
HETATM   16  C16 UNK     1       9.123   6.167   6.543  1.00  0.00     0.000 A 
HETATM   17  C15 UNK     1      10.323   6.170   5.830  1.00  0.00     0.001 A 
HETATM   18  C13 UNK     1      11.506   6.557   6.458  1.00  0.00     0.014 A 
ENDBRANCH   5  13
TORSDOF 1
ENDMDL
MODEL 10
REMARK VINA RESULT:      -7.4      3.168      6.488
REMARK  1 active torsions:
REMARK  status: ('A' for Active; 'I' for Inactive)
REMARK    1  A    between atoms: C3_5  and  C7_9 
ROOT
HETATM    1  O1  UNK     1      19.051  -0.626  33.841  1.00  0.00    -0.309 OA
HETATM    2  O2  UNK     1      18.018   2.666  31.675  1.00  0.00    -0.287 OA
HETATM    3  C1  UNK     1      18.989   0.512  31.696  1.00  0.00     0.048 A 
HETATM    4  C2  UNK     1      19.314  -0.583  32.495  1.00  0.00     0.090 A 
HETATM    5  C3  UNK     1      18.442   0.471  34.431  1.00  0.00     0.090 A 
HETATM    6  C4  UNK     1      19.282   0.502  30.330  1.00  0.00     0.025 A 
HETATM    7  C5  UNK     1      19.903  -0.615  29.769  1.00  0.00    -0.061 A 
HETATM    8  C6  UNK     1      18.335   1.674  32.316  1.00  0.00     0.187 A 
HETATM    9  C8  UNK     1      19.935  -1.698  31.931  1.00  0.00     0.039 A 
HETATM   10  C9  UNK     1      18.076   1.579  33.767  1.00  0.00     0.093 A 
HETATM   11  C10 UNK     1      20.229  -1.712  30.568  1.00  0.00     0.009 A 
HETATM   12  C11 UNK     1      20.220  -0.636  28.312  1.00  0.00     0.048 C 
ENDROOT
BRANCH   5  13
HETATM   13  C7  UNK     1      18.200   0.316  35.878  1.00  0.00    -0.002 A 
HETATM   14  C12 UNK     1      17.837   1.421  36.653  1.00  0.00     0.014 A 
HETATM   15  C14 UNK     1      17.608   1.275  38.021  1.00  0.00     0.001 A 
HETATM   16  C16 UNK     1      17.741   0.023  38.620  1.00  0.00     0.000 A 
HETATM   17  C15 UNK     1      18.102  -1.084  37.850  1.00  0.00     0.001 A 
HETATM   18  C13 UNK     1      18.331  -0.937  36.482  1.00  0.00     0.014 A 
ENDBRANCH   5  13
TORSDOF 1
ENDMDL
