MODEL 1
REMARK VINA RESULT:      -8.4      0.000      0.000
REMARK  4 active torsions:
REMARK  status: ('A' for Active; 'I' for Inactive)
REMARK    1  A    between atoms: C14_20  and  O2_2 
REMARK    2  A    between atoms: C19_25  and  O2_2 
REMARK    3  A    between atoms: C12_18  and  C6_12 
REMARK    4  A    between atoms: C10_16  and  C14_20 
ROOT
HETATM    1  O1  UNK     1      32.378  -8.731  34.519  1.00  0.00    -0.293 OA
HETATM    2  N1  UNK     1      30.986  -5.747  37.921  1.00  0.00    -0.362 N 
HETATM    3  C1  UNK     1      34.215  -5.923  35.961  1.00  0.00    -0.036 C 
HETATM    4  C2  UNK     1      33.340  -5.730  37.217  1.00  0.00     0.067 C 
HETATM    5  C3  UNK     1      34.094  -7.377  35.479  1.00  0.00     0.092 C 
HETATM    6  C4  UNK     1      31.938  -6.266  37.065  1.00  0.00     0.021 C 
HETATM    7  C5  UNK     1      31.598  -7.205  36.159  1.00  0.00     0.024 C 
HETATM    8  C6  UNK     1      30.156  -7.680  36.016  1.00  0.00     0.104 C 
HETATM    9  C7  UNK     1      32.657  -7.827  35.306  1.00  0.00     0.159 C 
HETATM   10  C8  UNK     1      35.683  -5.628  36.319  1.00  0.00     0.015 C 
HETATM   11  C9  UNK     1      33.790  -4.948  34.842  1.00  0.00     0.015 C 
HETATM   12  C10 UNK     1      29.243  -7.131  37.115  1.00  0.00     0.052 C 
HETATM   13  C11 UNK     1      29.675  -6.191  37.987  1.00  0.00     0.018 C 
HETATM   14  C13 UNK     1      28.841  -5.557  39.068  1.00  0.00     0.069 C 
HETATM   15  H12 UNK     1      31.282  -5.046  38.591  1.00  0.00     0.165 HD
ENDROOT
BRANCH   8  16
HETATM   16  C12 UNK     1      29.614  -7.310  34.661  1.00  0.00     0.029 A 
HETATM   17  C15 UNK     1      29.114  -8.393  33.779  1.00  0.00     0.194 A 
HETATM   18  O5  UNK     1      29.129  -9.569  34.118  1.00  0.00    -0.287 OA
HETATM   19  C17 UNK     1      28.596  -7.977  32.462  1.00  0.00     0.048 A 
HETATM   20  C18 UNK     1      28.603  -6.622  32.129  1.00  0.00     0.089 A 
HETATM   21  C20 UNK     1      28.103  -8.922  31.559  1.00  0.00     0.018 A 
HETATM   22  O3  UNK     1      29.075  -5.652  32.976  1.00  0.00    -0.321 OA
HETATM   23  C21 UNK     1      28.118  -6.205  30.889  1.00  0.00     0.038 A 
HETATM   24  C16 UNK     1      29.555  -6.055  34.198  1.00  0.00     0.154 A 
HETATM   25  C25 UNK     1      27.625  -7.147  29.985  1.00  0.00     0.003 A 
HETATM   26  C22 UNK     1      27.617  -8.501  30.320  1.00  0.00     0.001 A 
ENDBRANCH   8  16
BRANCH  12  27
HETATM   27  C14 UNK     1      27.897  -7.719  37.211  1.00  0.00     0.292 C 
HETATM   28  O4  UNK     1      26.890  -7.150  36.831  1.00  0.00    -0.259 OA
BRANCH  27  29
HETATM   29  O2  UNK     1      28.007  -8.946  37.775  1.00  0.00    -0.313 OA
BRANCH  29  30
HETATM   30  C19 UNK     1      27.722  -8.995  39.178  1.00  0.00     0.124 C 
HETATM   31  C23 UNK     1      26.215  -9.012  39.382  1.00  0.00     0.040 C 
HETATM   32  C24 UNK     1      28.389 -10.222  39.780  1.00  0.00     0.040 C 
ENDBRANCH  29  30
ENDBRANCH  27  29
ENDBRANCH  12  27
TORSDOF 4
ENDMDL
MODEL 2
REMARK VINA RESULT:      -8.4      1.638      2.123
REMARK  4 active torsions:
REMARK  status: ('A' for Active; 'I' for Inactive)
REMARK    1  A    between atoms: C14_20  and  O2_2 
REMARK    2  A    between atoms: C19_25  and  O2_2 
REMARK    3  A    between atoms: C12_18  and  C6_12 
REMARK    4  A    between atoms: C10_16  and  C14_20 
ROOT
HETATM    1  O1  UNK     1      32.950  -9.311  33.592  1.00  0.00    -0.293 OA
HETATM    2  N1  UNK     1      33.490  -5.939  36.872  1.00  0.00    -0.362 N 
HETATM    3  C1  UNK     1      35.857  -7.186  34.200  1.00  0.00    -0.036 C 
HETATM    4  C2  UNK     1      35.456  -6.688  35.604  1.00  0.00     0.067 C 
HETATM    5  C3  UNK     1      35.184  -8.540  33.933  1.00  0.00     0.092 C 
HETATM    6  C4  UNK     1      33.974  -6.757  35.870  1.00  0.00     0.021 C 
HETATM    7  C5  UNK     1      33.137  -7.568  35.190  1.00  0.00     0.024 C 
HETATM    8  C6  UNK     1      31.636  -7.566  35.467  1.00  0.00     0.104 C 
HETATM    9  C7  UNK     1      33.688  -8.517  34.176  1.00  0.00     0.159 C 
HETATM   10  C8  UNK     1      37.386  -7.359  34.144  1.00  0.00     0.015 C 
HETATM   11  C9  UNK     1      35.452  -6.160  33.119  1.00  0.00     0.015 C 
HETATM   12  C10 UNK     1      31.264  -6.724  36.690  1.00  0.00     0.052 C 
HETATM   13  C11 UNK     1      32.177  -5.943  37.313  1.00  0.00     0.018 C 
HETATM   14  C13 UNK     1      31.896  -5.046  38.489  1.00  0.00     0.069 C 
HETATM   15  H12 UNK     1      34.152  -5.348  37.362  1.00  0.00     0.165 HD
ENDROOT
BRANCH   8  16
HETATM   16  C12 UNK     1      30.881  -7.085  34.258  1.00  0.00     0.029 A 
HETATM   17  C15 UNK     1      29.830  -7.962  33.685  1.00  0.00     0.194 A 
HETATM   18  O5  UNK     1      29.561  -9.056  34.164  1.00  0.00    -0.287 OA
HETATM   19  C17 UNK     1      29.121  -7.444  32.500  1.00  0.00     0.048 A 
HETATM   20  C18 UNK     1      29.468  -6.189  31.997  1.00  0.00     0.089 A 
HETATM   21  C20 UNK     1      28.114  -8.194  31.887  1.00  0.00     0.018 A 
HETATM   22  O3  UNK     1      30.447  -5.410  32.559  1.00  0.00    -0.321 OA
HETATM   23  C21 UNK     1      28.810  -5.679  30.877  1.00  0.00     0.038 A 
HETATM   24  C16 UNK     1      31.099  -5.906  33.661  1.00  0.00     0.154 A 
HETATM   25  C25 UNK     1      27.805  -6.426  30.263  1.00  0.00     0.003 A 
HETATM   26  C22 UNK     1      27.458  -7.680  30.767  1.00  0.00     0.001 A 
ENDBRANCH   8  16
BRANCH  12  27
HETATM   27  C14 UNK     1      29.884  -6.853  37.186  1.00  0.00     0.292 C 
HETATM   28  O4  UNK     1      28.936  -6.280  36.682  1.00  0.00    -0.259 OA
BRANCH  27  29
HETATM   29  O2  UNK     1      29.891  -7.689  38.252  1.00  0.00    -0.313 OA
BRANCH  29  30
HETATM   30  C19 UNK     1      29.603  -9.059  37.949  1.00  0.00     0.124 C 
HETATM   31  C23 UNK     1      30.801  -9.917  38.328  1.00  0.00     0.040 C 
HETATM   32  C24 UNK     1      28.345  -9.481  38.692  1.00  0.00     0.040 C 
ENDBRANCH  29  30
ENDBRANCH  27  29
ENDBRANCH  12  27
TORSDOF 4
ENDMDL
MODEL 3
REMARK VINA RESULT:      -8.3      2.093      6.424
REMARK  4 active torsions:
REMARK  status: ('A' for Active; 'I' for Inactive)
REMARK    1  A    between atoms: C14_20  and  O2_2 
REMARK    2  A    between atoms: C19_25  and  O2_2 
REMARK    3  A    between atoms: C12_18  and  C6_12 
REMARK    4  A    between atoms: C10_16  and  C14_20 
ROOT
HETATM    1  O1  UNK     1      31.093  -9.899  36.489  1.00  0.00    -0.293 OA
HETATM    2  N1  UNK     1      28.412  -6.449  34.666  1.00  0.00    -0.362 N 
HETATM    3  C1  UNK     1      28.847  -7.613  38.238  1.00  0.00    -0.036 C 
HETATM    4  C2  UNK     1      28.063  -7.114  37.005  1.00  0.00     0.067 C 
HETATM    5  C3  UNK     1      29.422  -9.005  37.941  1.00  0.00     0.092 C 
HETATM    6  C4  UNK     1      28.820  -7.257  35.709  1.00  0.00     0.021 C 
HETATM    7  C5  UNK     1      29.841  -8.122  35.540  1.00  0.00     0.024 C 
HETATM    8  C6  UNK     1      30.604  -8.196  34.221  1.00  0.00     0.104 C 
HETATM    9  C7  UNK     1      30.209  -9.058  36.646  1.00  0.00     0.159 C 
HETATM   10  C8  UNK     1      27.889  -7.705  39.440  1.00  0.00     0.015 C 
HETATM   11  C9  UNK     1      29.978  -6.628  38.603  1.00  0.00     0.015 C 
HETATM   12  C10 UNK     1      29.957  -7.355  33.119  1.00  0.00     0.052 C 
HETATM   13  C11 UNK     1      28.929  -6.516  33.382  1.00  0.00     0.018 C 
HETATM   14  C13 UNK     1      28.260  -5.615  32.378  1.00  0.00     0.069 C 
HETATM   15  H12 UNK     1      27.638  -5.815  34.832  1.00  0.00     0.165 HD
ENDROOT
BRANCH   8  16
HETATM   16  C12 UNK     1      32.036  -7.776  34.420  1.00  0.00     0.029 A 
HETATM   17  C15 UNK     1      33.109  -8.633  33.858  1.00  0.00     0.194 A 
HETATM   18  O5  UNK     1      32.866  -9.663  33.243  1.00  0.00    -0.287 OA
HETATM   19  C17 UNK     1      34.494  -8.177  34.082  1.00  0.00     0.048 A 
HETATM   20  C18 UNK     1      34.712  -6.994  34.791  1.00  0.00     0.089 A 
HETATM   21  C20 UNK     1      35.575  -8.915  33.594  1.00  0.00     0.018 A 
HETATM   22  O3  UNK     1      33.688  -6.231  35.292  1.00  0.00    -0.321 OA
HETATM   23  C21 UNK     1      36.013  -6.544  35.014  1.00  0.00     0.038 A 
HETATM   24  C16 UNK     1      32.405  -6.669  35.076  1.00  0.00     0.154 A 
HETATM   25  C25 UNK     1      37.095  -7.279  34.527  1.00  0.00     0.003 A 
HETATM   26  C22 UNK     1      36.876  -8.460  33.818  1.00  0.00     0.001 A 
ENDBRANCH   8  16
BRANCH  12  27
HETATM   27  C14 UNK     1      30.470  -7.549  31.752  1.00  0.00     0.292 C 
HETATM   28  O4  UNK     1      31.330  -6.845  31.254  1.00  0.00    -0.259 OA
BRANCH  27  29
HETATM   29  O2  UNK     1      29.826  -8.605  31.201  1.00  0.00    -0.313 OA
BRANCH  29  30
HETATM   30  C19 UNK     1      29.049  -8.302  30.037  1.00  0.00     0.124 C 
HETATM   31  C23 UNK     1      29.592  -9.089  28.854  1.00  0.00     0.040 C 
HETATM   32  C24 UNK     1      27.589  -8.626  30.312  1.00  0.00     0.040 C 
ENDBRANCH  29  30
ENDBRANCH  27  29
ENDBRANCH  12  27
TORSDOF 4
ENDMDL
MODEL 4
REMARK VINA RESULT:      -8.2      1.819      5.707
REMARK  4 active torsions:
REMARK  status: ('A' for Active; 'I' for Inactive)
REMARK    1  A    between atoms: C14_20  and  O2_2 
REMARK    2  A    between atoms: C19_25  and  O2_2 
REMARK    3  A    between atoms: C12_18  and  C6_12 
REMARK    4  A    between atoms: C10_16  and  C14_20 
ROOT
HETATM    1  O1  UNK     1      30.647  -5.260  36.514  1.00  0.00    -0.293 OA
HETATM    2  N1  UNK     1      32.617  -8.380  33.548  1.00  0.00    -0.362 N 
HETATM    3  C1  UNK     1      34.179  -6.106  36.134  1.00  0.00    -0.036 C 
HETATM    4  C2  UNK     1      34.071  -6.824  34.772  1.00  0.00     0.067 C 
HETATM    5  C3  UNK     1      33.018  -5.110  36.273  1.00  0.00     0.092 C 
HETATM    6  C4  UNK     1      32.694  -7.365  34.481  1.00  0.00     0.021 C 
HETATM    7  C5  UNK     1      31.576  -6.902  35.076  1.00  0.00     0.024 C 
HETATM    8  C6  UNK     1      30.211  -7.515  34.780  1.00  0.00     0.104 C 
HETATM    9  C7  UNK     1      31.663  -5.739  36.011  1.00  0.00     0.159 C 
HETATM   10  C8  UNK     1      35.514  -5.341  36.195  1.00  0.00     0.015 C 
HETATM   11  C9  UNK     1      34.158  -7.124  37.294  1.00  0.00     0.015 C 
HETATM   12  C10 UNK     1      30.256  -8.524  33.630  1.00  0.00     0.052 C 
HETATM   13  C11 UNK     1      31.429  -8.926  33.089  1.00  0.00     0.018 C 
HETATM   14  C13 UNK     1      31.578  -9.946  31.993  1.00  0.00     0.069 C 
HETATM   15  H12 UNK     1      33.480  -8.697  33.120  1.00  0.00     0.165 HD
ENDROOT
BRANCH   8  16
HETATM   16  C12 UNK     1      29.648  -8.163  36.016  1.00  0.00     0.029 A 
HETATM   17  C15 UNK     1      28.275  -7.798  36.444  1.00  0.00     0.194 A 
HETATM   18  O5  UNK     1      27.593  -6.991  35.827  1.00  0.00    -0.287 OA
HETATM   19  C17 UNK     1      27.773  -8.460  37.662  1.00  0.00     0.048 A 
HETATM   20  C18 UNK     1      28.595  -9.372  38.326  1.00  0.00     0.089 A 
HETATM   21  C20 UNK     1      26.492  -8.183  38.148  1.00  0.00     0.018 A 
HETATM   22  O3  UNK     1      29.859  -9.682  37.894  1.00  0.00    -0.321 OA
HETATM   23  C21 UNK     1      28.139 -10.011  39.480  1.00  0.00     0.038 A 
HETATM   24  C16 UNK     1      30.314  -9.056  36.759  1.00  0.00     0.154 A 
HETATM   25  C25 UNK     1      26.861  -9.737  39.967  1.00  0.00     0.003 A 
HETATM   26  C22 UNK     1      26.040  -8.826  39.302  1.00  0.00     0.001 A 
ENDBRANCH   8  16
BRANCH  12  27
HETATM   27  C14 UNK     1      28.960  -8.987  33.106  1.00  0.00     0.292 C 
HETATM   28  O4  UNK     1      28.604 -10.150  33.135  1.00  0.00    -0.259 OA
BRANCH  27  29
HETATM   29  O2  UNK     1      28.291  -7.915  32.616  1.00  0.00    -0.313 OA
BRANCH  29  30
HETATM   30  C19 UNK     1      28.508  -7.649  31.226  1.00  0.00     0.124 C 
HETATM   31  C23 UNK     1      27.293  -8.105  30.434  1.00  0.00     0.040 C 
HETATM   32  C24 UNK     1      28.784  -6.165  31.038  1.00  0.00     0.040 C 
ENDBRANCH  29  30
ENDBRANCH  27  29
ENDBRANCH  12  27
TORSDOF 4
ENDMDL
MODEL 5
REMARK VINA RESULT:      -8.2      1.712      6.110
REMARK  4 active torsions:
REMARK  status: ('A' for Active; 'I' for Inactive)
REMARK    1  A    between atoms: C14_20  and  O2_2 
REMARK    2  A    between atoms: C19_25  and  O2_2 
REMARK    3  A    between atoms: C12_18  and  C6_12 
REMARK    4  A    between atoms: C10_16  and  C14_20 
ROOT
HETATM    1  O1  UNK     1      29.656  -9.291  33.718  1.00  0.00    -0.293 OA
HETATM    2  N1  UNK     1      31.115  -4.790  33.899  1.00  0.00    -0.362 N 
HETATM    3  C1  UNK     1      28.807  -6.542  31.469  1.00  0.00    -0.036 C 
HETATM    4  C2  UNK     1      29.932  -5.575  31.894  1.00  0.00     0.067 C 
HETATM    5  C3  UNK     1      29.242  -7.985  31.762  1.00  0.00     0.092 C 
HETATM    6  C4  UNK     1      30.466  -5.840  33.279  1.00  0.00     0.021 C 
HETATM    7  C5  UNK     1      30.339  -7.027  33.906  1.00  0.00     0.024 C 
HETATM    8  C6  UNK     1      30.857  -7.229  35.327  1.00  0.00     0.104 C 
HETATM    9  C7  UNK     1      29.721  -8.182  33.187  1.00  0.00     0.159 C 
HETATM   10  C8  UNK     1      28.552  -6.385  29.958  1.00  0.00     0.015 C 
HETATM   11  C9  UNK     1      27.494  -6.213  32.211  1.00  0.00     0.015 C 
HETATM   12  C10 UNK     1      31.674  -6.038  35.831  1.00  0.00     0.052 C 
HETATM   13  C11 UNK     1      31.748  -4.884  35.127  1.00  0.00     0.018 C 
HETATM   14  C13 UNK     1      32.484  -3.645  35.562  1.00  0.00     0.069 C 
HETATM   15  H12 UNK     1      31.193  -3.915  33.392  1.00  0.00     0.165 HD
ENDROOT
BRANCH   8  16
HETATM   16  C12 UNK     1      29.714  -7.508  36.266  1.00  0.00     0.029 A 
HETATM   17  C15 UNK     1      29.839  -8.642  37.215  1.00  0.00     0.194 A 
HETATM   18  O5  UNK     1      30.835  -9.352  37.255  1.00  0.00    -0.287 OA
HETATM   19  C17 UNK     1      28.691  -8.873  38.112  1.00  0.00     0.048 A 
HETATM   20  C18 UNK     1      27.581  -8.032  38.022  1.00  0.00     0.089 A 
HETATM   21  C20 UNK     1      28.710  -9.916  39.041  1.00  0.00     0.018 A 
HETATM   22  O3  UNK     1      27.508  -6.993  37.129  1.00  0.00    -0.321 OA
HETATM   23  C21 UNK     1      26.484  -8.232  38.861  1.00  0.00     0.038 A 
HETATM   24  C16 UNK     1      28.584  -6.792  36.300  1.00  0.00     0.154 A 
HETATM   25  C25 UNK     1      26.501  -9.273  39.789  1.00  0.00     0.003 A 
HETATM   26  C22 UNK     1      27.611 -10.112  39.879  1.00  0.00     0.001 A 
ENDBRANCH   8  16
BRANCH  12  27
HETATM   27  C14 UNK     1      32.419  -6.231  37.086  1.00  0.00     0.292 C 
HETATM   28  O4  UNK     1      32.086  -5.731  38.145  1.00  0.00    -0.259 OA
BRANCH  27  29
HETATM   29  O2  UNK     1      33.484  -7.028  36.831  1.00  0.00    -0.313 OA
BRANCH  29  30
HETATM   30  C19 UNK     1      34.328  -6.588  35.762  1.00  0.00     0.124 C 
HETATM   31  C23 UNK     1      35.491  -5.795  36.336  1.00  0.00     0.040 C 
HETATM   32  C24 UNK     1      34.802  -7.797  34.970  1.00  0.00     0.040 C 
ENDBRANCH  29  30
ENDBRANCH  27  29
ENDBRANCH  12  27
TORSDOF 4
ENDMDL
MODEL 6
REMARK VINA RESULT:      -8.1      4.918      8.528
REMARK  4 active torsions:
REMARK  status: ('A' for Active; 'I' for Inactive)
REMARK    1  A    between atoms: C14_20  and  O2_2 
REMARK    2  A    between atoms: C19_25  and  O2_2 
REMARK    3  A    between atoms: C12_18  and  C6_12 
REMARK    4  A    between atoms: C10_16  and  C14_20 
ROOT
HETATM    1  O1  UNK     1      34.285 -12.265  31.013  1.00  0.00    -0.293 OA
HETATM    2  N1  UNK     1      29.706 -11.981  29.843  1.00  0.00    -0.362 N 
HETATM    3  C1  UNK     1      31.514 -14.332  32.190  1.00  0.00    -0.036 C 
HETATM    4  C2  UNK     1      30.491 -13.938  31.104  1.00  0.00     0.067 C 
HETATM    5  C3  UNK     1      32.934 -14.131  31.642  1.00  0.00     0.092 C 
HETATM    6  C4  UNK     1      30.773 -12.603  30.462  1.00  0.00     0.021 C 
HETATM    7  C5  UNK     1      31.990 -12.022  30.468  1.00  0.00     0.024 C 
HETATM    8  C6  UNK     1      32.212 -10.647  29.844  1.00  0.00     0.104 C 
HETATM    9  C7  UNK     1      33.155 -12.750  31.056  1.00  0.00     0.159 C 
HETATM   10  C8  UNK     1      31.316 -15.814  32.555  1.00  0.00     0.015 C 
HETATM   11  C9  UNK     1      31.306 -13.492  33.468  1.00  0.00     0.015 C 
HETATM   12  C10 UNK     1      30.988 -10.145  29.075  1.00  0.00     0.052 C 
HETATM   13  C11 UNK     1      29.805 -10.801  29.123  1.00  0.00     0.018 C 
HETATM   14  C13 UNK     1      28.537 -10.361  28.443  1.00  0.00     0.069 C 
HETATM   15  H12 UNK     1      28.809 -12.453  29.857  1.00  0.00     0.165 HD
ENDROOT
BRANCH   8  16
HETATM   16  C12 UNK     1      32.605  -9.650  30.900  1.00  0.00     0.029 A 
HETATM   17  C15 UNK     1      33.851  -8.867  30.705  1.00  0.00     0.194 A 
HETATM   18  O5  UNK     1      34.562  -9.009  29.720  1.00  0.00    -0.287 OA
HETATM   19  C17 UNK     1      34.191  -7.905  31.770  1.00  0.00     0.048 A 
HETATM   20  C18 UNK     1      33.342  -7.786  32.872  1.00  0.00     0.089 A 
HETATM   21  C20 UNK     1      35.343  -7.121  31.681  1.00  0.00     0.018 A 
HETATM   22  O3  UNK     1      32.198  -8.529  33.011  1.00  0.00    -0.321 OA
HETATM   23  C21 UNK     1      33.644  -6.881  33.891  1.00  0.00     0.038 A 
HETATM   24  C16 UNK     1      31.896  -9.422  32.013  1.00  0.00     0.154 A 
HETATM   25  C25 UNK     1      34.795  -6.097  33.804  1.00  0.00     0.003 A 
HETATM   26  C22 UNK     1      35.641  -6.216  32.702  1.00  0.00     0.001 A 
ENDBRANCH   8  16
BRANCH  12  27
HETATM   27  C14 UNK     1      31.179  -8.951  28.236  1.00  0.00     0.292 C 
HETATM   28  O4  UNK     1      32.076  -8.842  27.420  1.00  0.00    -0.259 OA
BRANCH  27  29
HETATM   29  O2  UNK     1      30.210  -8.055  28.543  1.00  0.00    -0.313 OA
BRANCH  29  30
HETATM   30  C19 UNK     1      30.474  -7.247  29.695  1.00  0.00     0.124 C 
HETATM   31  C23 UNK     1      31.475  -6.163  29.327  1.00  0.00     0.040 C 
HETATM   32  C24 UNK     1      29.166  -6.662  30.206  1.00  0.00     0.040 C 
ENDBRANCH  29  30
ENDBRANCH  27  29
ENDBRANCH  12  27
TORSDOF 4
ENDMDL
MODEL 7
REMARK VINA RESULT:      -8.1      1.945      5.814
REMARK  4 active torsions:
REMARK  status: ('A' for Active; 'I' for Inactive)
REMARK    1  A    between atoms: C14_20  and  O2_2 
REMARK    2  A    between atoms: C19_25  and  O2_2 
REMARK    3  A    between atoms: C12_18  and  C6_12 
REMARK    4  A    between atoms: C10_16  and  C14_20 
ROOT
HETATM    1  O1  UNK     1      29.690 -10.313  33.791  1.00  0.00    -0.293 OA
HETATM    2  N1  UNK     1      31.234  -5.897  33.062  1.00  0.00    -0.362 N 
HETATM    3  C1  UNK     1      29.078  -8.144  30.917  1.00  0.00    -0.036 C 
HETATM    4  C2  UNK     1      30.190  -7.112  31.200  1.00  0.00     0.067 C 
HETATM    5  C3  UNK     1      29.457  -9.485  31.563  1.00  0.00     0.092 C 
HETATM    6  C4  UNK     1      30.610  -7.057  32.647  1.00  0.00     0.021 C 
HETATM    7  C5  UNK     1      30.409  -8.070  33.515  1.00  0.00     0.024 C 
HETATM    8  C6  UNK     1      30.813  -7.945  34.981  1.00  0.00     0.104 C 
HETATM    9  C7  UNK     1      29.821  -9.355  33.029  1.00  0.00     0.159 C 
HETATM   10  C8  UNK     1      28.942  -8.335  29.395  1.00  0.00     0.015 C 
HETATM   11  C9  UNK     1      27.720  -7.649  31.460  1.00  0.00     0.015 C 
HETATM   12  C10 UNK     1      31.616  -6.674  35.265  1.00  0.00     0.052 C 
HETATM   13  C11 UNK     1      31.770  -5.712  34.326  1.00  0.00     0.018 C 
HETATM   14  C13 UNK     1      32.499  -4.410  34.525  1.00  0.00     0.069 C 
HETATM   15  H12 UNK     1      31.370  -5.161  32.378  1.00  0.00     0.165 HD
ENDROOT
BRANCH   8  16
HETATM   16  C12 UNK     1      29.596  -7.997  35.865  1.00  0.00     0.029 A 
HETATM   17  C15 UNK     1      29.595  -8.938  37.013  1.00  0.00     0.194 A 
HETATM   18  O5  UNK     1      30.547  -9.668  37.258  1.00  0.00    -0.287 OA
HETATM   19  C17 UNK     1      28.379  -8.951  37.846  1.00  0.00     0.048 A 
HETATM   20  C18 UNK     1      27.324  -8.097  37.519  1.00  0.00     0.089 A 
HETATM   21  C20 UNK     1      28.279  -9.802  38.950  1.00  0.00     0.018 A 
HETATM   22  O3  UNK     1      27.367  -7.241  36.448  1.00  0.00    -0.321 OA
HETATM   23  C21 UNK     1      26.164  -8.092  38.294  1.00  0.00     0.038 A 
HETATM   24  C16 UNK     1      28.506  -7.242  35.681  1.00  0.00     0.154 A 
HETATM   25  C25 UNK     1      26.062  -8.941  39.396  1.00  0.00     0.003 A 
HETATM   26  C22 UNK     1      27.117  -9.793  39.724  1.00  0.00     0.001 A 
ENDBRANCH   8  16
BRANCH  12  27
HETATM   27  C14 UNK     1      32.259  -6.580  36.586  1.00  0.00     0.292 C 
HETATM   28  O4  UNK     1      32.938  -7.470  37.064  1.00  0.00    -0.259 OA
BRANCH  27  29
HETATM   29  O2  UNK     1      31.956  -5.374  37.122  1.00  0.00    -0.313 OA
BRANCH  29  30
HETATM   30  C19 UNK     1      30.592  -5.216  37.528  1.00  0.00     0.124 C 
HETATM   31  C23 UNK     1      30.369  -5.966  38.832  1.00  0.00     0.040 C 
HETATM   32  C24 UNK     1      30.279  -3.734  37.665  1.00  0.00     0.040 C 
ENDBRANCH  29  30
ENDBRANCH  27  29
ENDBRANCH  12  27
TORSDOF 4
ENDMDL
MODEL 8
REMARK VINA RESULT:      -7.9      2.932      4.450
REMARK  4 active torsions:
REMARK  status: ('A' for Active; 'I' for Inactive)
REMARK    1  A    between atoms: C14_20  and  O2_2 
REMARK    2  A    between atoms: C19_25  and  O2_2 
REMARK    3  A    between atoms: C12_18  and  C6_12 
REMARK    4  A    between atoms: C10_16  and  C14_20 
ROOT
HETATM    1  O1  UNK     1      33.403 -10.757  33.371  1.00  0.00    -0.293 OA
HETATM    2  N1  UNK     1      35.546  -6.645  34.324  1.00  0.00    -0.362 N 
HETATM    3  C1  UNK     1      36.801  -9.724  32.523  1.00  0.00    -0.036 C 
HETATM    4  C2  UNK     1      36.893  -8.519  33.482  1.00  0.00     0.067 C 
HETATM    5  C3  UNK     1      35.771 -10.725  33.066  1.00  0.00     0.092 C 
HETATM    6  C4  UNK     1      35.552  -7.949  33.867  1.00  0.00     0.021 C 
HETATM    7  C5  UNK     1      34.400  -8.646  33.789  1.00  0.00     0.024 C 
HETATM    8  C6  UNK     1      33.062  -8.007  34.148  1.00  0.00     0.104 C 
HETATM    9  C7  UNK     1      34.434 -10.085  33.385  1.00  0.00     0.159 C 
HETATM   10  C8  UNK     1      38.178 -10.408  32.439  1.00  0.00     0.015 C 
HETATM   11  C9  UNK     1      36.409  -9.264  31.102  1.00  0.00     0.015 C 
HETATM   12  C10 UNK     1      33.222  -6.618  34.769  1.00  0.00     0.052 C 
HETATM   13  C11 UNK     1      34.423  -5.996  34.809  1.00  0.00     0.018 C 
HETATM   14  C13 UNK     1      34.670  -4.615  35.355  1.00  0.00     0.069 C 
HETATM   15  H12 UNK     1      36.433  -6.156  34.372  1.00  0.00     0.165 HD
ENDROOT
BRANCH   8  16
HETATM   16  C12 UNK     1      32.176  -7.932  32.934  1.00  0.00     0.029 A 
HETATM   17  C15 UNK     1      30.808  -8.502  33.021  1.00  0.00     0.194 A 
HETATM   18  O5  UNK     1      30.384  -9.028  34.043  1.00  0.00    -0.287 OA
HETATM   19  C17 UNK     1      29.981  -8.405  31.804  1.00  0.00     0.048 A 
HETATM   20  C18 UNK     1      30.516  -7.796  30.668  1.00  0.00     0.089 A 
HETATM   21  C20 UNK     1      28.679  -8.912  31.784  1.00  0.00     0.018 A 
HETATM   22  O3  UNK     1      31.786  -7.280  30.631  1.00  0.00    -0.321 OA
HETATM   23  C21 UNK     1      29.751  -7.692  29.506  1.00  0.00     0.038 A 
HETATM   24  C16 UNK     1      32.545  -7.380  31.772  1.00  0.00     0.154 A 
HETATM   25  C25 UNK     1      28.451  -8.198  29.483  1.00  0.00     0.003 A 
HETATM   26  C22 UNK     1      27.916  -8.805  30.619  1.00  0.00     0.001 A 
ENDBRANCH   8  16
BRANCH  12  27
HETATM   27  C14 UNK     1      32.018  -6.021  35.372  1.00  0.00     0.292 C 
HETATM   28  O4  UNK     1      31.348  -5.167  34.822  1.00  0.00    -0.259 OA
BRANCH  27  29
HETATM   29  O2  UNK     1      31.826  -6.586  36.588  1.00  0.00    -0.313 OA
BRANCH  29  30
HETATM   30  C19 UNK     1      31.335  -5.698  37.598  1.00  0.00     0.124 C 
HETATM   31  C23 UNK     1      30.290  -6.420  38.435  1.00  0.00     0.040 C 
HETATM   32  C24 UNK     1      32.501  -5.210  38.444  1.00  0.00     0.040 C 
ENDBRANCH  29  30
ENDBRANCH  27  29
ENDBRANCH  12  27
TORSDOF 4
ENDMDL
MODEL 9
REMARK VINA RESULT:      -7.9      2.363      6.012
REMARK  4 active torsions:
REMARK  status: ('A' for Active; 'I' for Inactive)
REMARK    1  A    between atoms: C14_20  and  O2_2 
REMARK    2  A    between atoms: C19_25  and  O2_2 
REMARK    3  A    between atoms: C12_18  and  C6_12 
REMARK    4  A    between atoms: C10_16  and  C14_20 
ROOT
HETATM    1  O1  UNK     1      31.080  -5.333  31.506  1.00  0.00    -0.293 OA
HETATM    2  N1  UNK     1      28.213  -6.553  35.071  1.00  0.00    -0.362 N 
HETATM    3  C1  UNK     1      27.790  -6.907  31.330  1.00  0.00    -0.036 C 
HETATM    4  C2  UNK     1      27.341  -6.604  32.775  1.00  0.00     0.067 C 
HETATM    5  C3  UNK     1      28.834  -5.868  30.897  1.00  0.00     0.092 C 
HETATM    6  C4  UNK     1      28.487  -6.376  33.728  1.00  0.00     0.021 C 
HETATM    7  C5  UNK     1      29.722  -6.012  33.328  1.00  0.00     0.024 C 
HETATM    8  C6  UNK     1      30.859  -5.838  34.331  1.00  0.00     0.104 C 
HETATM    9  C7  UNK     1      29.978  -5.730  31.882  1.00  0.00     0.159 C 
HETATM   10  C8  UNK     1      26.570  -6.821  30.395  1.00  0.00     0.015 C 
HETATM   11  C9  UNK     1      28.372  -8.333  31.225  1.00  0.00     0.015 C 
HETATM   12  C10 UNK     1      30.382  -5.924  35.782  1.00  0.00     0.052 C 
HETATM   13  C11 UNK     1      29.116  -6.294  36.089  1.00  0.00     0.018 C 
HETATM   14  C13 UNK     1      28.570  -6.453  37.482  1.00  0.00     0.069 C 
HETATM   15  H12 UNK     1      27.271  -6.822  35.331  1.00  0.00     0.165 HD
ENDROOT
BRANCH   8  16
HETATM   16  C12 UNK     1      31.938  -6.856  34.079  1.00  0.00     0.029 A 
HETATM   17  C15 UNK     1      33.347  -6.392  34.020  1.00  0.00     0.194 A 
HETATM   18  O5  UNK     1      33.654  -5.217  34.168  1.00  0.00    -0.287 OA
HETATM   19  C17 UNK     1      34.366  -7.429  33.770  1.00  0.00     0.048 A 
HETATM   20  C18 UNK     1      33.959  -8.755  33.609  1.00  0.00     0.089 A 
HETATM   21  C20 UNK     1      35.720  -7.095  33.696  1.00  0.00     0.018 A 
HETATM   22  O3  UNK     1      32.644  -9.140  33.672  1.00  0.00    -0.321 OA
HETATM   23  C21 UNK     1      34.906  -9.752  33.372  1.00  0.00     0.038 A 
HETATM   24  C16 UNK     1      31.707  -8.163  33.904  1.00  0.00     0.154 A 
HETATM   25  C25 UNK     1      36.259  -9.420  33.298  1.00  0.00     0.003 A 
HETATM   26  C22 UNK     1      36.665  -8.096  33.460  1.00  0.00     0.001 A 
ENDBRANCH   8  16
BRANCH  12  27
HETATM   27  C14 UNK     1      31.348  -5.529  36.820  1.00  0.00     0.292 C 
HETATM   28  O4  UNK     1      31.919  -4.454  36.828  1.00  0.00    -0.259 OA
BRANCH  27  29
HETATM   29  O2  UNK     1      31.461  -6.547  37.706  1.00  0.00    -0.313 OA
BRANCH  29  30
HETATM   30  C19 UNK     1      32.312  -7.621  37.290  1.00  0.00     0.124 C 
HETATM   31  C23 UNK     1      33.749  -7.297  37.670  1.00  0.00     0.040 C 
HETATM   32  C24 UNK     1      31.834  -8.914  37.932  1.00  0.00     0.040 C 
ENDBRANCH  29  30
ENDBRANCH  27  29
ENDBRANCH  12  27
TORSDOF 4
ENDMDL
MODEL 10
REMARK VINA RESULT:      -7.8      2.128      6.006
REMARK  4 active torsions:
REMARK  status: ('A' for Active; 'I' for Inactive)
REMARK    1  A    between atoms: C14_20  and  O2_2 
REMARK    2  A    between atoms: C19_25  and  O2_2 
REMARK    3  A    between atoms: C12_18  and  C6_12 
REMARK    4  A    between atoms: C10_16  and  C14_20 
ROOT
HETATM    1  O1  UNK     1      31.331  -4.933  32.975  1.00  0.00    -0.293 OA
HETATM    2  N1  UNK     1      28.387  -8.155  34.813  1.00  0.00    -0.362 N 
HETATM    3  C1  UNK     1      28.571  -6.676  31.337  1.00  0.00    -0.036 C 
HETATM    4  C2  UNK     1      27.871  -7.193  32.612  1.00  0.00     0.067 C 
HETATM    5  C3  UNK     1      29.383  -5.419  31.682  1.00  0.00     0.092 C 
HETATM    6  C4  UNK     1      28.789  -7.301  33.803  1.00  0.00     0.021 C 
HETATM    7  C5  UNK     1      29.942  -6.611  33.914  1.00  0.00     0.024 C 
HETATM    8  C6  UNK     1      30.858  -6.791  35.122  1.00  0.00     0.104 C 
HETATM    9  C7  UNK     1      30.315  -5.620  32.860  1.00  0.00     0.159 C 
HETATM   10  C8  UNK     1      27.504  -6.319  30.286  1.00  0.00     0.015 C 
HETATM   11  C9  UNK     1      29.488  -7.763  30.736  1.00  0.00     0.015 C 
HETATM   12  C10 UNK     1      30.224  -7.650  36.218  1.00  0.00     0.052 C 
HETATM   13  C11 UNK     1      29.056  -8.303  36.017  1.00  0.00     0.018 C 
HETATM   14  C13 UNK     1      28.381  -9.206  37.014  1.00  0.00     0.069 C 
HETATM   15  H12 UNK     1      27.512  -8.652  34.693  1.00  0.00     0.165 HD
ENDROOT
BRANCH   8  16
HETATM   16  C12 UNK     1      32.174  -7.383  34.697  1.00  0.00     0.029 A 
HETATM   17  C15 UNK     1      33.420  -6.644  35.022  1.00  0.00     0.194 A 
HETATM   18  O5  UNK     1      33.407  -5.575  35.619  1.00  0.00    -0.287 OA
HETATM   19  C17 UNK     1      34.683  -7.266  34.582  1.00  0.00     0.048 A 
HETATM   20  C18 UNK     1      34.637  -8.485  33.903  1.00  0.00     0.089 A 
HETATM   21  C20 UNK     1      35.909  -6.648  34.839  1.00  0.00     0.018 A 
HETATM   22  O3  UNK     1      33.462  -9.135  33.624  1.00  0.00    -0.321 OA
HETATM   23  C21 UNK     1      35.820  -9.092  33.478  1.00  0.00     0.038 A 
HETATM   24  C16 UNK     1      32.295  -8.543  34.039  1.00  0.00     0.154 A 
HETATM   25  C25 UNK     1      37.046  -8.477  33.734  1.00  0.00     0.003 A 
HETATM   26  C22 UNK     1      37.090  -7.259  34.413  1.00  0.00     0.001 A 
ENDBRANCH   8  16
BRANCH  12  27
HETATM   27  C14 UNK     1      30.918  -7.682  37.516  1.00  0.00     0.292 C 
HETATM   28  O4  UNK     1      31.827  -8.451  37.771  1.00  0.00    -0.259 OA
BRANCH  27  29
HETATM   29  O2  UNK     1      30.368  -6.737  38.316  1.00  0.00    -0.313 OA
BRANCH  29  30
HETATM   30  C19 UNK     1      30.789  -5.395  38.047  1.00  0.00     0.124 C 
HETATM   31  C23 UNK     1      29.787  -4.425  38.655  1.00  0.00     0.040 C 
HETATM   32  C24 UNK     1      32.189  -5.189  38.605  1.00  0.00     0.040 C 
ENDBRANCH  29  30
ENDBRANCH  27  29
ENDBRANCH  12  27
TORSDOF 4
ENDMDL
