MODEL 1
REMARK VINA RESULT:      -7.0      0.000      0.000
REMARK  2 active torsions:
REMARK  status: ('A' for Active; 'I' for Inactive)
REMARK    1  A    between atoms: C1_4  and  C3_6 
REMARK    2  A    between atoms: C2_5  and  C4_7 
ROOT
HETATM    1  N1  UNK     1      12.689   5.542  10.256  1.00  0.00    -0.191 NA
HETATM    2  C3  UNK     1      12.917   7.867   9.112  1.00  0.00     0.055 C 
HETATM    3  C4  UNK     1      11.869   8.306   8.364  1.00  0.00     0.036 C 
HETATM    4  C15 UNK     1      12.781   6.579   9.741  1.00  0.00     0.100 C 
ENDROOT
BRANCH   2   5
HETATM    5  C1  UNK     1      14.148   8.616   9.301  1.00  0.00    -0.015 A 
HETATM    6  C5  UNK     1      14.521   9.590   8.375  1.00  0.00     0.014 A 
HETATM    7  C9  UNK     1      15.702  10.309   8.556  1.00  0.00     0.020 A 
HETATM    8  C13 UNK     1      16.511  10.053   9.662  1.00  0.00     0.011 A 
HETATM    9 Br1  UNK     1      18.112  11.028   9.908  1.00  0.00    -0.051 Br
HETATM   10  C10 UNK     1      16.139   9.080  10.589  1.00  0.00     0.020 A 
HETATM   11  C6  UNK     1      14.957   8.361  10.408  1.00  0.00     0.014 A 
ENDBRANCH   2   5
BRANCH   3  12
HETATM   12  C2  UNK     1      10.610   7.580   8.141  1.00  0.00    -0.013 A 
HETATM   13  C7  UNK     1      10.464   6.669   7.104  1.00  0.00     0.044 A 
HETATM   14  C11 UNK     1       9.249   6.005   6.936  1.00  0.00     0.024 A 
HETATM   15 Cl1  UNK     1      11.744   6.317   5.996  1.00  0.00    -0.083 Cl
HETATM   16  C14 UNK     1       8.190   6.258   7.807  1.00  0.00     0.002 A 
HETATM   17  C12 UNK     1       8.345   7.175   8.847  1.00  0.00     0.001 A 
HETATM   18  C8  UNK     1       9.561   7.838   9.015  1.00  0.00     0.013 A 
ENDBRANCH   3  12
TORSDOF 2
ENDMDL
MODEL 2
REMARK VINA RESULT:      -6.9     22.921     24.327
REMARK  2 active torsions:
REMARK  status: ('A' for Active; 'I' for Inactive)
REMARK    1  A    between atoms: C1_4  and  C3_6 
REMARK    2  A    between atoms: C2_5  and  C4_7 
ROOT
HETATM    1  N1  UNK     1      19.467   6.149  29.716  1.00  0.00    -0.191 NA
HETATM    2  C3  UNK     1      18.492   4.202  31.140  1.00  0.00     0.055 C 
HETATM    3  C4  UNK     1      17.702   4.530  32.198  1.00  0.00     0.036 C 
HETATM    4  C15 UNK     1      19.027   5.287  30.358  1.00  0.00     0.100 C 
ENDROOT
BRANCH   2   5
HETATM    5  C1  UNK     1      18.825   2.836  30.769  1.00  0.00    -0.015 A 
HETATM    6  C5  UNK     1      18.908   2.480  29.423  1.00  0.00     0.014 A 
HETATM    7  C9  UNK     1      19.227   1.169  29.067  1.00  0.00     0.020 A 
HETATM    8  C13 UNK     1      19.462   0.215  30.057  1.00  0.00     0.011 A 
HETATM    9 Br1  UNK     1      19.895  -1.560  29.575  1.00  0.00    -0.051 Br
HETATM   10  C10 UNK     1      19.379   0.572  31.402  1.00  0.00     0.020 A 
HETATM   11  C6  UNK     1      19.060   1.882  31.759  1.00  0.00     0.014 A 
ENDBRANCH   2   5
BRANCH   3  12
HETATM   12  C2  UNK     1      17.346   5.894  32.612  1.00  0.00    -0.013 A 
HETATM   13  C7  UNK     1      18.176   6.651  33.430  1.00  0.00     0.044 A 
HETATM   14  C11 UNK     1      17.792   7.941  33.794  1.00  0.00     0.024 A 
HETATM   15 Cl1  UNK     1      19.684   6.051  34.024  1.00  0.00    -0.083 Cl
HETATM   16  C14 UNK     1      16.584   8.465  33.336  1.00  0.00     0.002 A 
HETATM   17  C12 UNK     1      15.757   7.699  32.515  1.00  0.00     0.001 A 
HETATM   18  C8  UNK     1      16.141   6.408  32.151  1.00  0.00     0.013 A 
ENDBRANCH   3  12
TORSDOF 2
ENDMDL
MODEL 3
REMARK VINA RESULT:      -6.9      1.277      2.076
REMARK  2 active torsions:
REMARK  status: ('A' for Active; 'I' for Inactive)
REMARK    1  A    between atoms: C1_4  and  C3_6 
REMARK    2  A    between atoms: C2_5  and  C4_7 
ROOT
HETATM    1  N1  UNK     1      12.842   5.827  10.227  1.00  0.00    -0.191 NA
HETATM    2  C3  UNK     1      13.338   7.924   8.769  1.00  0.00     0.055 C 
HETATM    3  C4  UNK     1      12.448   8.233   7.787  1.00  0.00     0.036 C 
HETATM    4  C15 UNK     1      13.055   6.761   9.571  1.00  0.00     0.100 C 
ENDROOT
BRANCH   2   5
HETATM    5  C1  UNK     1      14.543   8.690   9.042  1.00  0.00    -0.015 A 
HETATM    6  C5  UNK     1      15.458   8.236   9.991  1.00  0.00     0.014 A 
HETATM    7  C9  UNK     1      16.614   8.971  10.253  1.00  0.00     0.020 A 
HETATM    8  C13 UNK     1      16.855  10.160   9.565  1.00  0.00     0.011 A 
HETATM    9 Br1  UNK     1      18.423  11.155   9.918  1.00  0.00    -0.051 Br
HETATM   10  C10 UNK     1      15.941  10.613   8.615  1.00  0.00     0.020 A 
HETATM   11  C6  UNK     1      14.784   9.878   8.353  1.00  0.00     0.014 A 
ENDBRANCH   2   5
BRANCH   3  12
HETATM   12  C2  UNK     1      11.223   7.484   7.473  1.00  0.00    -0.013 A 
HETATM   13  C7  UNK     1      10.077   7.597   8.249  1.00  0.00     0.044 A 
HETATM   14  C11 UNK     1       8.940   6.865   7.909  1.00  0.00     0.024 A 
HETATM   15 Cl1  UNK     1      10.000   8.623   9.639  1.00  0.00    -0.083 Cl
HETATM   16  C14 UNK     1       8.958   6.027   6.795  1.00  0.00     0.002 A 
HETATM   17  C12 UNK     1      10.113   5.920   6.021  1.00  0.00     0.001 A 
HETATM   18  C8  UNK     1      11.250   6.652   6.361  1.00  0.00     0.013 A 
ENDBRANCH   3  12
TORSDOF 2
ENDMDL
MODEL 4
REMARK VINA RESULT:      -6.9     30.137     31.675
REMARK  2 active torsions:
REMARK  status: ('A' for Active; 'I' for Inactive)
REMARK    1  A    between atoms: C1_4  and  C3_6 
REMARK    2  A    between atoms: C2_5  and  C4_7 
ROOT
HETATM    1  N1  UNK     1      22.102  -5.104  37.913  1.00  0.00    -0.191 NA
HETATM    2  C3  UNK     1      19.802  -4.600  36.808  1.00  0.00     0.055 C 
HETATM    3  C4  UNK     1      18.984  -5.655  36.545  1.00  0.00     0.036 C 
HETATM    4  C15 UNK     1      21.073  -4.889  37.420  1.00  0.00     0.100 C 
ENDROOT
BRANCH   2   5
HETATM    5  C1  UNK     1      19.466  -3.219  36.502  1.00  0.00    -0.015 A 
HETATM    6  C5  UNK     1      18.718  -2.466  37.407  1.00  0.00     0.014 A 
HETATM    7  C9  UNK     1      18.395  -1.141  37.114  1.00  0.00     0.020 A 
HETATM    8  C13 UNK     1      18.821  -0.569  35.915  1.00  0.00     0.011 A 
HETATM    9 Br1  UNK     1      18.386   1.227  35.518  1.00  0.00    -0.051 Br
HETATM   10  C10 UNK     1      19.570  -1.321  35.011  1.00  0.00     0.020 A 
HETATM   11  C6  UNK     1      19.892  -2.646  35.304  1.00  0.00     0.014 A 
ENDBRANCH   2   5
BRANCH   3  12
HETATM   12  C2  UNK     1      19.286  -7.065  36.831  1.00  0.00    -0.013 A 
HETATM   13  C7  UNK     1      19.976  -7.864  35.928  1.00  0.00     0.044 A 
HETATM   14  C11 UNK     1      20.238  -9.196  36.248  1.00  0.00     0.024 A 
HETATM   15 Cl1  UNK     1      20.533  -7.267  34.404  1.00  0.00    -0.083 Cl
HETATM   16  C14 UNK     1      19.807  -9.718  37.467  1.00  0.00     0.002 A 
HETATM   17  C12 UNK     1      19.115  -8.909  38.367  1.00  0.00     0.001 A 
HETATM   18  C8  UNK     1      18.854  -7.577  38.048  1.00  0.00     0.013 A 
ENDBRANCH   3  12
TORSDOF 2
ENDMDL
MODEL 5
REMARK VINA RESULT:      -6.9     23.307     25.070
REMARK  2 active torsions:
REMARK  status: ('A' for Active; 'I' for Inactive)
REMARK    1  A    between atoms: C1_4  and  C3_6 
REMARK    2  A    between atoms: C2_5  and  C4_7 
ROOT
HETATM    1  N1  UNK     1      16.057   8.417  30.815  1.00  0.00    -0.191 NA
HETATM    2  C3  UNK     1      17.704   7.093  32.331  1.00  0.00     0.055 C 
HETATM    3  C4  UNK     1      18.193   7.724  33.433  1.00  0.00     0.036 C 
HETATM    4  C15 UNK     1      16.793   7.834  31.498  1.00  0.00     0.100 C 
ENDROOT
BRANCH   2   5
HETATM    5  C1  UNK     1      18.055   5.733  31.954  1.00  0.00    -0.015 A 
HETATM    6  C5  UNK     1      18.610   5.478  30.701  1.00  0.00     0.014 A 
HETATM    7  C9  UNK     1      18.947   4.173  30.339  1.00  0.00     0.020 A 
HETATM    8  C13 UNK     1      18.727   3.124  31.231  1.00  0.00     0.011 A 
HETATM    9 Br1  UNK     1      19.184   1.356  30.742  1.00  0.00    -0.051 Br
HETATM   10  C10 UNK     1      18.172   3.379  32.485  1.00  0.00     0.020 A 
HETATM   11  C6  UNK     1      17.836   4.684  32.846  1.00  0.00     0.014 A 
ENDBRANCH   2   5
BRANCH   3  12
HETATM   12  C2  UNK     1      17.871   9.097  33.847  1.00  0.00    -0.013 A 
HETATM   13  C7  UNK     1      16.607   9.447  34.303  1.00  0.00     0.044 A 
HETATM   14  C11 UNK     1      16.352  10.764  34.684  1.00  0.00     0.024 A 
HETATM   15 Cl1  UNK     1      15.317   8.302  34.419  1.00  0.00    -0.083 Cl
HETATM   16  C14 UNK     1      17.365  11.720  34.608  1.00  0.00     0.002 A 
HETATM   17  C12 UNK     1      18.631  11.361  34.149  1.00  0.00     0.001 A 
HETATM   18  C8  UNK     1      18.886  10.043  33.767  1.00  0.00     0.013 A 
ENDBRANCH   3  12
TORSDOF 2
ENDMDL
MODEL 6
REMARK VINA RESULT:      -6.9     23.146     24.523
REMARK  2 active torsions:
REMARK  status: ('A' for Active; 'I' for Inactive)
REMARK    1  A    between atoms: C1_4  and  C3_6 
REMARK    2  A    between atoms: C2_5  and  C4_7 
ROOT
HETATM    1  N1  UNK     1      20.858   5.709  30.834  1.00  0.00    -0.191 NA
HETATM    2  C3  UNK     1      18.509   5.718  31.952  1.00  0.00     0.055 C 
HETATM    3  C4  UNK     1      17.811   4.550  31.962  1.00  0.00     0.036 C 
HETATM    4  C15 UNK     1      19.808   5.703  31.331  1.00  0.00     0.100 C 
ENDROOT
BRANCH   2   5
HETATM    5  C1  UNK     1      18.015   6.962  32.520  1.00  0.00    -0.015 A 
HETATM    6  C5  UNK     1      18.834   7.720  33.356  1.00  0.00     0.014 A 
HETATM    7  C9  UNK     1      18.360   8.914  33.901  1.00  0.00     0.020 A 
HETATM    8  C13 UNK     1      17.067   9.348  33.610  1.00  0.00     0.011 A 
HETATM    9 Br1  UNK     1      16.426  10.965  34.348  1.00  0.00    -0.051 Br
HETATM   10  C10 UNK     1      16.249   8.590  32.774  1.00  0.00     0.020 A 
HETATM   11  C6  UNK     1      16.722   7.397  32.229  1.00  0.00     0.014 A 
ENDBRANCH   2   5
BRANCH   3  12
HETATM   12  C2  UNK     1      18.269   3.274  31.394  1.00  0.00    -0.013 A 
HETATM   13  C7  UNK     1      18.507   2.161  32.192  1.00  0.00     0.044 A 
HETATM   14  C11 UNK     1      18.940   0.973  31.604  1.00  0.00     0.024 A 
HETATM   15 Cl1  UNK     1      18.286   2.189  33.906  1.00  0.00    -0.083 Cl
HETATM   16  C14 UNK     1      19.130   0.906  30.224  1.00  0.00     0.002 A 
HETATM   17  C12 UNK     1      18.888   2.027  29.431  1.00  0.00     0.001 A 
HETATM   18  C8  UNK     1      18.455   3.216  30.019  1.00  0.00     0.013 A 
ENDBRANCH   3  12
TORSDOF 2
ENDMDL
MODEL 7
REMARK VINA RESULT:      -6.7     23.530     24.848
REMARK  2 active torsions:
REMARK  status: ('A' for Active; 'I' for Inactive)
REMARK    1  A    between atoms: C1_4  and  C3_6 
REMARK    2  A    between atoms: C2_5  and  C4_7 
ROOT
HETATM    1  N1  UNK     1      15.081   6.605  31.883  1.00  0.00    -0.191 NA
HETATM    2  C3  UNK     1      17.301   7.523  32.879  1.00  0.00     0.055 C 
HETATM    3  C4  UNK     1      18.371   6.683  32.913  1.00  0.00     0.036 C 
HETATM    4  C15 UNK     1      16.076   7.006  32.326  1.00  0.00     0.100 C 
ENDROOT
BRANCH   2   5
HETATM    5  C1  UNK     1      17.329   8.891  33.369  1.00  0.00    -0.015 A 
HETATM    6  C5  UNK     1      18.546   9.495  33.683  1.00  0.00     0.014 A 
HETATM    7  C9  UNK     1      18.573  10.808  34.154  1.00  0.00     0.020 A 
HETATM    8  C13 UNK     1      17.382  11.516  34.312  1.00  0.00     0.011 A 
HETATM    9 Br1  UNK     1      17.417  13.295  34.949  1.00  0.00    -0.051 Br
HETATM   10  C10 UNK     1      16.165  10.913  33.997  1.00  0.00     0.020 A 
HETATM   11  C6  UNK     1      16.138   9.600  33.526  1.00  0.00     0.014 A 
ENDBRANCH   2   5
BRANCH   3  12
HETATM   12  C2  UNK     1      18.386   5.294  32.435  1.00  0.00    -0.013 A 
HETATM   13  C7  UNK     1      18.661   4.978  31.110  1.00  0.00     0.044 A 
HETATM   14  C11 UNK     1      18.663   3.643  30.707  1.00  0.00     0.024 A 
HETATM   15 Cl1  UNK     1      19.006   6.188  29.925  1.00  0.00    -0.083 Cl
HETATM   16  C14 UNK     1      18.391   2.635  31.631  1.00  0.00     0.002 A 
HETATM   17  C12 UNK     1      18.116   2.961  32.959  1.00  0.00     0.001 A 
HETATM   18  C8  UNK     1      18.114   4.296  33.362  1.00  0.00     0.013 A 
ENDBRANCH   3  12
TORSDOF 2
ENDMDL
MODEL 8
REMARK VINA RESULT:      -6.7     24.331     26.060
REMARK  2 active torsions:
REMARK  status: ('A' for Active; 'I' for Inactive)
REMARK    1  A    between atoms: C1_4  and  C3_6 
REMARK    2  A    between atoms: C2_5  and  C4_7 
ROOT
HETATM    1  N1  UNK     1      15.962   8.498  31.177  1.00  0.00    -0.191 NA
HETATM    2  C3  UNK     1      15.817   9.208  33.675  1.00  0.00     0.055 C 
HETATM    3  C4  UNK     1      16.718   8.665  34.538  1.00  0.00     0.036 C 
HETATM    4  C15 UNK     1      15.905   8.809  32.294  1.00  0.00     0.100 C 
ENDROOT
BRANCH   2   5
HETATM    5  C1  UNK     1      14.783  10.150  34.070  1.00  0.00    -0.015 A 
HETATM    6  C5  UNK     1      13.853  10.599  33.133  1.00  0.00     0.014 A 
HETATM    7  C9  UNK     1      12.860  11.503  33.511  1.00  0.00     0.020 A 
HETATM    8  C13 UNK     1      12.798  11.958  34.828  1.00  0.00     0.011 A 
HETATM    9 Br1  UNK     1      11.452  13.181  35.343  1.00  0.00    -0.051 Br
HETATM   10  C10 UNK     1      13.727  11.508  35.766  1.00  0.00     0.020 A 
HETATM   11  C6  UNK     1      14.719  10.605  35.387  1.00  0.00     0.014 A 
ENDBRANCH   2   5
BRANCH   3  12
HETATM   12  C2  UNK     1      17.774   7.706  34.183  1.00  0.00    -0.013 A 
HETATM   13  C7  UNK     1      19.096   8.099  34.024  1.00  0.00     0.044 A 
HETATM   14  C11 UNK     1      20.061   7.150  33.687  1.00  0.00     0.024 A 
HETATM   15 Cl1  UNK     1      19.604   9.739  34.229  1.00  0.00    -0.083 Cl
HETATM   16  C14 UNK     1      19.695   5.816  33.514  1.00  0.00     0.002 A 
HETATM   17  C12 UNK     1      18.365   5.429  33.676  1.00  0.00     0.001 A 
HETATM   18  C8  UNK     1      17.401   6.379  34.012  1.00  0.00     0.013 A 
ENDBRANCH   3  12
TORSDOF 2
ENDMDL
MODEL 9
REMARK VINA RESULT:      -6.6     23.015     24.960
REMARK  2 active torsions:
REMARK  status: ('A' for Active; 'I' for Inactive)
REMARK    1  A    between atoms: C1_4  and  C3_6 
REMARK    2  A    between atoms: C2_5  and  C4_7 
ROOT
HETATM    1  N1  UNK     1      14.584   6.788  31.487  1.00  0.00    -0.191 NA
HETATM    2  C3  UNK     1      16.419   8.054  32.828  1.00  0.00     0.055 C 
HETATM    3  C4  UNK     1      17.701   7.612  32.714  1.00  0.00     0.036 C 
HETATM    4  C15 UNK     1      15.410   7.347  32.082  1.00  0.00     0.100 C 
ENDROOT
BRANCH   2   5
HETATM    5  C1  UNK     1      16.021   9.180  33.656  1.00  0.00    -0.015 A 
HETATM    6  C5  UNK     1      16.902  10.242  33.860  1.00  0.00     0.014 A 
HETATM    7  C9  UNK     1      16.521  11.323  34.654  1.00  0.00     0.020 A 
HETATM    8  C13 UNK     1      15.258  11.342  35.246  1.00  0.00     0.011 A 
HETATM    9 Br1  UNK     1      14.740  12.807  36.322  1.00  0.00    -0.051 Br
HETATM   10  C10 UNK     1      14.377  10.281  35.042  1.00  0.00     0.020 A 
HETATM   11  C6  UNK     1      14.758   9.200  34.248  1.00  0.00     0.014 A 
ENDBRANCH   2   5
BRANCH   3  12
HETATM   12  C2  UNK     1      18.146   6.475  31.895  1.00  0.00    -0.013 A 
HETATM   13  C7  UNK     1      18.236   5.190  32.413  1.00  0.00     0.044 A 
HETATM   14  C11 UNK     1      18.663   4.145  31.594  1.00  0.00     0.024 A 
HETATM   15 Cl1  UNK     1      17.835   4.826  34.055  1.00  0.00    -0.083 Cl
HETATM   16  C14 UNK     1      18.996   4.395  30.263  1.00  0.00     0.002 A 
HETATM   17  C12 UNK     1      18.902   5.688  29.750  1.00  0.00     0.001 A 
HETATM   18  C8  UNK     1      18.474   6.732  30.569  1.00  0.00     0.013 A 
ENDBRANCH   3  12
TORSDOF 2
ENDMDL
MODEL 10
REMARK VINA RESULT:      -6.6     30.829     32.472
REMARK  2 active torsions:
REMARK  status: ('A' for Active; 'I' for Inactive)
REMARK    1  A    between atoms: C1_4  and  C3_6 
REMARK    2  A    between atoms: C2_5  and  C4_7 
ROOT
HETATM    1  N1  UNK     1      20.346  -6.581  35.047  1.00  0.00    -0.191 NA
HETATM    2  C3  UNK     1      20.006  -4.777  36.890  1.00  0.00     0.055 C 
HETATM    3  C4  UNK     1      20.189  -5.156  38.184  1.00  0.00     0.036 C 
HETATM    4  C15 UNK     1      20.196  -5.783  35.877  1.00  0.00     0.100 C 
ENDROOT
BRANCH   2   5
HETATM    5  C1  UNK     1      19.627  -3.433  36.486  1.00  0.00    -0.015 A 
HETATM    6  C5  UNK     1      20.024  -2.941  35.243  1.00  0.00     0.014 A 
HETATM    7  C9  UNK     1      19.661  -1.651  34.854  1.00  0.00     0.020 A 
HETATM    8  C13 UNK     1      18.900  -0.854  35.709  1.00  0.00     0.011 A 
HETATM    9 Br1  UNK     1      18.406   0.892  35.183  1.00  0.00    -0.051 Br
HETATM   10  C10 UNK     1      18.502  -1.347  36.951  1.00  0.00     0.020 A 
HETATM   11  C6  UNK     1      18.865  -2.636  37.340  1.00  0.00     0.014 A 
ENDBRANCH   2   5
BRANCH   3  12
HETATM   12  C2  UNK     1      20.565  -6.503  38.638  1.00  0.00    -0.013 A 
HETATM   13  C7  UNK     1      21.877  -6.828  38.958  1.00  0.00     0.044 A 
HETATM   14  C11 UNK     1      22.182  -8.120  39.384  1.00  0.00     0.024 A 
HETATM   15 Cl1  UNK     1      23.166  -5.680  38.850  1.00  0.00    -0.083 Cl
HETATM   16  C14 UNK     1      21.173  -9.076  39.487  1.00  0.00     0.002 A 
HETATM   17  C12 UNK     1      19.858  -8.742  39.164  1.00  0.00     0.001 A 
HETATM   18  C8  UNK     1      19.553  -7.449  38.738  1.00  0.00     0.013 A 
ENDBRANCH   3  12
TORSDOF 2
ENDMDL
