MODEL 1
REMARK VINA RESULT:     -10.1      0.000      0.000
REMARK  3 active torsions:
REMARK  status: ('A' for Active; 'I' for Inactive)
REMARK    1  A    between atoms: C1_8  and  N1_7 
REMARK       I    between atoms: C7_14  and  N1_7 
REMARK    2  A    between atoms: C3_10  and  C7_14 
REMARK    3  A    between atoms: C13_20  and  C4_11 
ROOT
HETATM    1  O2  UNK     1      18.622   4.648  30.045  1.00  0.00    -0.267 OA
HETATM    2  N1  UNK     1      17.843   4.665  32.268  1.00  0.00    -0.322 N 
HETATM    3  C7  UNK     1      18.384   4.101  31.121  1.00  0.00     0.262 C 
HETATM    4  H2  UNK     1      17.690   4.059  33.068  1.00  0.00     0.169 HD
ENDROOT
BRANCH   3   5
HETATM    5  C3  UNK     1      18.682   2.674  31.294  1.00  0.00     0.108 A 
HETATM    6  C10 UNK     1      18.411   1.963  32.563  1.00  0.00     0.304 A 
HETATM    7  O1  UNK     1      18.738   0.611  32.605  1.00  0.00    -0.274 OA
HETATM    8  O3  UNK     1      17.924   2.533  33.534  1.00  0.00    -0.259 OA
HETATM    9  C5  UNK     1      19.299  -0.052  31.496  1.00  0.00     0.089 A 
HETATM   10  C12 UNK     1      19.591  -1.408  31.632  1.00  0.00     0.038 A 
HETATM   11  C2  UNK     1      19.546   0.634  30.312  1.00  0.00    -0.001 A 
HETATM   12  C17 UNK     1      20.146  -2.092  30.552  1.00  0.00     0.003 A 
HETATM   13  C16 UNK     1      20.402  -1.418  29.356  1.00  0.00     0.001 A 
HETATM   14  C9  UNK     1      20.102  -0.058  29.233  1.00  0.00     0.014 A 
HETATM   15  C6  UNK     1      19.216   2.049  30.237  1.00  0.00     0.037 A 
ENDBRANCH   3   5
BRANCH   2  16
HETATM   16  C1  UNK     1      17.440   6.009  32.461  1.00  0.00     0.050 A 
HETATM   17  C4  UNK     1      18.354   6.954  32.898  1.00  0.00     0.074 A 
HETATM   18  C11 UNK     1      17.938   8.273  33.083  1.00  0.00     0.018 A 
HETATM   19  C15 UNK     1      16.613   8.628  32.827  1.00  0.00     0.001 A 
HETATM   20  C14 UNK     1      15.705   7.665  32.388  1.00  0.00     0.002 A 
HETATM   21  C8  UNK     1      16.121   6.347  32.204  1.00  0.00     0.030 A 
BRANCH  17  22
HETATM   22  C13 UNK     1      19.779   6.601  33.180  1.00  0.00     0.419 C 
HETATM   23  F1  UNK     1      19.920   5.584  34.078  1.00  0.00    -0.166 F 
HETATM   24  F2  UNK     1      20.469   6.201  32.073  1.00  0.00    -0.166 F 
HETATM   25  F3  UNK     1      20.484   7.649  33.696  1.00  0.00    -0.166 F 
ENDBRANCH  17  22
ENDBRANCH   2  16
TORSDOF 3
ENDMDL
MODEL 2
REMARK VINA RESULT:     -10.1      8.011     11.767
REMARK  3 active torsions:
REMARK  status: ('A' for Active; 'I' for Inactive)
REMARK    1  A    between atoms: C1_8  and  N1_7 
REMARK       I    between atoms: C7_14  and  N1_7 
REMARK    2  A    between atoms: C3_10  and  C7_14 
REMARK    3  A    between atoms: C13_20  and  C4_11 
ROOT
HETATM    1  O2  UNK     1      21.467  -4.514  36.971  1.00  0.00    -0.267 OA
HETATM    2  N1  UNK     1      19.227  -5.134  37.351  1.00  0.00    -0.322 N 
HETATM    3  C7  UNK     1      20.257  -4.290  36.963  1.00  0.00     0.262 C 
HETATM    4  H2  UNK     1      18.277  -4.777  37.302  1.00  0.00     0.169 HD
ENDROOT
BRANCH   3   5
HETATM    5  C3  UNK     1      19.761  -2.988  36.499  1.00  0.00     0.108 A 
HETATM    6  C10 UNK     1      20.034  -2.486  35.134  1.00  0.00     0.304 A 
HETATM    7  O1  UNK     1      19.511  -1.236  34.811  1.00  0.00    -0.274 OA
HETATM    8  O3  UNK     1      20.688  -3.133  34.323  1.00  0.00    -0.259 OA
HETATM    9  C5  UNK     1      18.759  -0.484  35.735  1.00  0.00     0.089 A 
HETATM   10  C12 UNK     1      18.275   0.754  35.320  1.00  0.00     0.038 A 
HETATM   11  C2  UNK     1      18.514  -0.976  37.013  1.00  0.00    -0.001 A 
HETATM   12  C17 UNK     1      17.527   1.521  36.212  1.00  0.00     0.003 A 
HETATM   13  C16 UNK     1      17.272   1.045  37.500  1.00  0.00     0.001 A 
HETATM   14  C9  UNK     1      17.764  -0.201  37.902  1.00  0.00     0.014 A 
HETATM   15  C6  UNK     1      19.048  -2.278  37.381  1.00  0.00     0.037 A 
ENDBRANCH   3   5
BRANCH   2  16
HETATM   16  C1  UNK     1      19.334  -6.456  37.847  1.00  0.00     0.050 A 
HETATM   17  C4  UNK     1      18.727  -7.503  37.174  1.00  0.00     0.074 A 
HETATM   18  C11 UNK     1      18.845  -8.799  37.678  1.00  0.00     0.018 A 
HETATM   19  C15 UNK     1      19.569  -9.029  38.848  1.00  0.00     0.001 A 
HETATM   20  C14 UNK     1      20.174  -7.964  39.515  1.00  0.00     0.002 A 
HETATM   21  C8  UNK     1      20.056  -6.669  39.011  1.00  0.00     0.030 A 
BRANCH  17  22
HETATM   22  C13 UNK     1      17.946  -7.286  35.919  1.00  0.00     0.419 C 
HETATM   23  F1  UNK     1      17.308  -8.408  35.473  1.00  0.00    -0.166 F 
HETATM   24  F2  UNK     1      16.967  -6.344  36.043  1.00  0.00    -0.166 F 
HETATM   25  F3  UNK     1      18.728  -6.872  34.882  1.00  0.00    -0.166 F 
ENDBRANCH  17  22
ENDBRANCH   2  16
TORSDOF 3
ENDMDL
MODEL 3
REMARK VINA RESULT:      -9.9      0.983      2.073
REMARK  3 active torsions:
REMARK  status: ('A' for Active; 'I' for Inactive)
REMARK    1  A    between atoms: C1_8  and  N1_7 
REMARK       I    between atoms: C7_14  and  N1_7 
REMARK    2  A    between atoms: C3_10  and  C7_14 
REMARK    3  A    between atoms: C13_20  and  C4_11 
ROOT
HETATM    1  O2  UNK     1      17.786   3.364  33.145  1.00  0.00    -0.267 OA
HETATM    2  N1  UNK     1      18.237   4.905  31.423  1.00  0.00    -0.322 N 
HETATM    3  C7  UNK     1      18.168   3.650  32.012  1.00  0.00     0.262 C 
HETATM    4  H2  UNK     1      18.603   4.966  30.477  1.00  0.00     0.169 HD
ENDROOT
BRANCH   3   5
HETATM    5  C3  UNK     1      18.625   2.589  31.106  1.00  0.00     0.108 A 
HETATM    6  C10 UNK     1      18.693   2.781  29.641  1.00  0.00     0.304 A 
HETATM    7  O1  UNK     1      19.141   1.700  28.887  1.00  0.00    -0.274 OA
HETATM    8  O3  UNK     1      18.370   3.839  29.111  1.00  0.00    -0.259 OA
HETATM    9  C5  UNK     1      19.512   0.480  29.487  1.00  0.00     0.089 A 
HETATM   10  C12 UNK     1      19.951  -0.545  28.651  1.00  0.00     0.038 A 
HETATM   11  C2  UNK     1      19.441   0.320  30.867  1.00  0.00    -0.001 A 
HETATM   12  C17 UNK     1      20.326  -1.763  29.214  1.00  0.00     0.003 A 
HETATM   13  C16 UNK     1      20.260  -1.943  30.598  1.00  0.00     0.001 A 
HETATM   14  C9  UNK     1      19.819  -0.904  31.425  1.00  0.00     0.014 A 
HETATM   15  C6  UNK     1      18.976   1.432  31.681  1.00  0.00     0.037 A 
ENDBRANCH   3   5
BRANCH   2  16
HETATM   16  C1  UNK     1      17.879   6.149  31.997  1.00  0.00     0.050 A 
HETATM   17  C4  UNK     1      18.822   6.895  32.686  1.00  0.00     0.074 A 
HETATM   18  C11 UNK     1      18.450   8.119  33.245  1.00  0.00     0.018 A 
HETATM   19  C15 UNK     1      17.140   8.579  33.105  1.00  0.00     0.001 A 
HETATM   20  C14 UNK     1      16.202   7.817  32.409  1.00  0.00     0.002 A 
HETATM   21  C8  UNK     1      16.575   6.593  31.851  1.00  0.00     0.030 A 
BRANCH  17  22
HETATM   22  C13 UNK     1      20.231   6.426  32.851  1.00  0.00     0.419 C 
HETATM   23  F1  UNK     1      20.763   5.892  31.713  1.00  0.00    -0.166 F 
HETATM   24  F2  UNK     1      21.094   7.415  33.221  1.00  0.00    -0.166 F 
HETATM   25  F3  UNK     1      20.350   5.456  33.803  1.00  0.00    -0.166 F 
ENDBRANCH  17  22
ENDBRANCH   2  16
TORSDOF 3
ENDMDL
MODEL 4
REMARK VINA RESULT:      -9.3      3.807      7.299
REMARK  3 active torsions:
REMARK  status: ('A' for Active; 'I' for Inactive)
REMARK    1  A    between atoms: C1_8  and  N1_7 
REMARK       I    between atoms: C7_14  and  N1_7 
REMARK    2  A    between atoms: C3_10  and  C7_14 
REMARK    3  A    between atoms: C13_20  and  C4_11 
ROOT
HETATM    1  O2  UNK     1      16.593   0.690  34.095  1.00  0.00    -0.267 OA
HETATM    2  N1  UNK     1      18.793   0.754  34.932  1.00  0.00    -0.322 N 
HETATM    3  C7  UNK     1      17.724   1.171  34.151  1.00  0.00     0.262 C 
HETATM    4  H2  UNK     1      19.672   1.255  34.837  1.00  0.00     0.169 HD
ENDROOT
BRANCH   3   5
HETATM    5  C3  UNK     1      18.064   2.333  33.321  1.00  0.00     0.108 A 
HETATM    6  C10 UNK     1      18.407   2.201  31.888  1.00  0.00     0.304 A 
HETATM    7  O1  UNK     1      18.712   3.375  31.206  1.00  0.00    -0.274 OA
HETATM    8  O3  UNK     1      18.424   1.112  31.323  1.00  0.00    -0.259 OA
HETATM    9  C5  UNK     1      18.697   4.631  31.846  1.00  0.00     0.089 A 
HETATM   10  C12 UNK     1      19.014   5.751  31.082  1.00  0.00     0.038 A 
HETATM   11  C2  UNK     1      18.371   4.733  33.195  1.00  0.00    -0.001 A 
HETATM   12  C17 UNK     1      19.007   7.006  31.686  1.00  0.00     0.003 A 
HETATM   13  C16 UNK     1      18.683   7.129  33.039  1.00  0.00     0.001 A 
HETATM   14  C9  UNK     1      18.365   5.995  33.794  1.00  0.00     0.014 A 
HETATM   15  C6  UNK     1      18.048   3.523  33.934  1.00  0.00     0.037 A 
ENDBRANCH   3   5
BRANCH   2  16
HETATM   16  C1  UNK     1      18.825  -0.326  35.847  1.00  0.00     0.050 A 
HETATM   17  C4  UNK     1      18.314  -0.171  37.125  1.00  0.00     0.074 A 
HETATM   18  C11 UNK     1      18.355  -1.247  38.012  1.00  0.00     0.018 A 
HETATM   19  C15 UNK     1      18.905  -2.464  37.607  1.00  0.00     0.001 A 
HETATM   20  C14 UNK     1      19.415  -2.604  36.317  1.00  0.00     0.002 A 
HETATM   21  C8  UNK     1      19.375  -1.528  35.431  1.00  0.00     0.030 A 
BRANCH  17  22
HETATM   22  C13 UNK     1      17.719   1.121  37.585  1.00  0.00     0.419 C 
HETATM   23  F1  UNK     1      18.429   2.218  37.190  1.00  0.00    -0.166 F 
HETATM   24  F2  UNK     1      16.452   1.330  37.126  1.00  0.00    -0.166 F 
HETATM   25  F3  UNK     1      17.640   1.204  38.944  1.00  0.00    -0.166 F 
ENDBRANCH  17  22
ENDBRANCH   2  16
TORSDOF 3
ENDMDL
MODEL 5
REMARK VINA RESULT:      -9.2      7.773     11.838
REMARK  3 active torsions:
REMARK  status: ('A' for Active; 'I' for Inactive)
REMARK    1  A    between atoms: C1_8  and  N1_7 
REMARK       I    between atoms: C7_14  and  N1_7 
REMARK    2  A    between atoms: C3_10  and  C7_14 
REMARK    3  A    between atoms: C13_20  and  C4_11 
ROOT
HETATM    1  O2  UNK     1      21.434  -4.632  37.147  1.00  0.00    -0.267 OA
HETATM    2  N1  UNK     1      19.859  -5.619  35.702  1.00  0.00    -0.322 N 
HETATM    3  C7  UNK     1      20.487  -4.575  36.365  1.00  0.00     0.262 C 
HETATM    4  H2  UNK     1      19.068  -5.395  35.104  1.00  0.00     0.169 HD
ENDROOT
BRANCH   3   5
HETATM    5  C3  UNK     1      19.890  -3.273  36.039  1.00  0.00     0.108 A 
HETATM    6  C10 UNK     1      20.073  -2.633  34.718  1.00  0.00     0.304 A 
HETATM    7  O1  UNK     1      19.459  -1.399  34.530  1.00  0.00    -0.274 OA
HETATM    8  O3  UNK     1      20.735  -3.160  33.829  1.00  0.00    -0.259 OA
HETATM    9  C5  UNK     1      18.697  -0.786  35.545  1.00  0.00     0.089 A 
HETATM   10  C12 UNK     1      18.118   0.450  35.262  1.00  0.00     0.038 A 
HETATM   11  C2  UNK     1      18.537  -1.405  36.780  1.00  0.00    -0.001 A 
HETATM   12  C17 UNK     1      17.359   1.081  36.245  1.00  0.00     0.003 A 
HETATM   13  C16 UNK     1      17.187   0.475  37.492  1.00  0.00     0.001 A 
HETATM   14  C9  UNK     1      17.774  -0.766  37.761  1.00  0.00     0.014 A 
HETATM   15  C6  UNK     1      19.168  -2.695  37.007  1.00  0.00     0.037 A 
ENDBRANCH   3   5
BRANCH   2  16
HETATM   16  C1  UNK     1      20.169  -6.999  35.775  1.00  0.00     0.050 A 
HETATM   17  C4  UNK     1      19.675  -7.769  36.816  1.00  0.00     0.074 A 
HETATM   18  C11 UNK     1      19.991  -9.127  36.871  1.00  0.00     0.018 A 
HETATM   19  C15 UNK     1      20.796  -9.696  35.883  1.00  0.00     0.001 A 
HETATM   20  C14 UNK     1      21.285  -8.908  34.841  1.00  0.00     0.002 A 
HETATM   21  C8  UNK     1      20.969  -7.550  34.787  1.00  0.00     0.030 A 
BRANCH  17  22
HETATM   22  C13 UNK     1      18.812  -7.186  37.887  1.00  0.00     0.419 C 
HETATM   23  F1  UNK     1      19.480  -6.341  38.725  1.00  0.00    -0.166 F 
HETATM   24  F2  UNK     1      17.764  -6.458  37.405  1.00  0.00    -0.166 F 
HETATM   25  F3  UNK     1      18.260  -8.140  38.691  1.00  0.00    -0.166 F 
ENDBRANCH  17  22
ENDBRANCH   2  16
TORSDOF 3
ENDMDL
MODEL 6
REMARK VINA RESULT:      -9.1     14.465     16.727
REMARK  3 active torsions:
REMARK  status: ('A' for Active; 'I' for Inactive)
REMARK    1  A    between atoms: C1_8  and  N1_7 
REMARK       I    between atoms: C7_14  and  N1_7 
REMARK    2  A    between atoms: C3_10  and  C7_14 
REMARK    3  A    between atoms: C13_20  and  C4_11 
ROOT
HETATM    1  O2  UNK     1      17.206  -1.378  17.287  1.00  0.00    -0.267 OA
HETATM    2  N1  UNK     1      19.327  -0.359  17.226  1.00  0.00    -0.322 N 
HETATM    3  C7  UNK     1      18.296  -1.163  16.761  1.00  0.00     0.262 C 
HETATM    4  H2  UNK     1      20.178  -0.312  16.673  1.00  0.00     0.169 HD
ENDROOT
BRANCH   3   5
HETATM    5  C3  UNK     1      18.625  -1.800  15.480  1.00  0.00     0.108 A 
HETATM    6  C10 UNK     1      19.243  -1.048  14.365  1.00  0.00     0.304 A 
HETATM    7  O1  UNK     1      19.506  -1.762  13.199  1.00  0.00    -0.274 OA
HETATM    8  O3  UNK     1      19.510   0.145  14.458  1.00  0.00    -0.259 OA
HETATM    9  C5  UNK     1      19.202  -3.133  13.083  1.00  0.00     0.089 A 
HETATM   10  C12 UNK     1      19.504  -3.763  11.877  1.00  0.00     0.038 A 
HETATM   11  C2  UNK     1      18.622  -3.821  14.143  1.00  0.00    -0.001 A 
HETATM   12  C17 UNK     1      19.216  -5.118  11.732  1.00  0.00     0.003 A 
HETATM   13  C16 UNK     1      18.633  -5.825  12.785  1.00  0.00     0.001 A 
HETATM   14  C9  UNK     1      18.336  -5.180  13.990  1.00  0.00     0.014 A 
HETATM   15  C6  UNK     1      18.333  -3.102  15.374  1.00  0.00     0.037 A 
ENDBRANCH   3   5
BRANCH   2  16
HETATM   16  C1  UNK     1      19.358   0.403  18.419  1.00  0.00     0.050 A 
HETATM   17  C4  UNK     1      19.351   1.787  18.361  1.00  0.00     0.074 A 
HETATM   18  C11 UNK     1      19.380   2.521  19.548  1.00  0.00     0.018 A 
HETATM   19  C15 UNK     1      19.415   1.859  20.775  1.00  0.00     0.001 A 
HETATM   20  C14 UNK     1      19.422   0.465  20.817  1.00  0.00     0.002 A 
HETATM   21  C8  UNK     1      19.393  -0.268  19.631  1.00  0.00     0.030 A 
BRANCH  17  22
HETATM   22  C13 UNK     1      19.314   2.521  17.060  1.00  0.00     0.419 C 
HETATM   23  F1  UNK     1      20.419   2.314  16.286  1.00  0.00    -0.166 F 
HETATM   24  F2  UNK     1      18.255   2.178  16.271  1.00  0.00    -0.166 F 
HETATM   25  F3  UNK     1      19.229   3.873  17.225  1.00  0.00    -0.166 F 
ENDBRANCH  17  22
ENDBRANCH   2  16
TORSDOF 3
ENDMDL
MODEL 7
REMARK VINA RESULT:      -9.0      7.827     11.387
REMARK  3 active torsions:
REMARK  status: ('A' for Active; 'I' for Inactive)
REMARK    1  A    between atoms: C1_8  and  N1_7 
REMARK       I    between atoms: C7_14  and  N1_7 
REMARK    2  A    between atoms: C3_10  and  C7_14 
REMARK    3  A    between atoms: C13_20  and  C4_11 
ROOT
HETATM    1  O2  UNK     1      21.449  -4.376  37.071  1.00  0.00    -0.267 OA
HETATM    2  N1  UNK     1      19.226  -5.140  37.202  1.00  0.00    -0.322 N 
HETATM    3  C7  UNK     1      20.239  -4.242  36.897  1.00  0.00     0.262 C 
HETATM    4  H2  UNK     1      18.268  -4.858  37.011  1.00  0.00     0.169 HD
ENDROOT
BRANCH   3   5
HETATM    5  C3  UNK     1      19.721  -3.007  36.295  1.00  0.00     0.108 A 
HETATM    6  C10 UNK     1      19.082  -1.947  37.105  1.00  0.00     0.304 A 
HETATM    7  O1  UNK     1      18.630  -0.822  36.420  1.00  0.00    -0.274 OA
HETATM    8  O3  UNK     1      18.953  -2.048  38.320  1.00  0.00    -0.259 OA
HETATM    9  C5  UNK     1      18.772  -0.697  35.023  1.00  0.00     0.089 A 
HETATM   10  C12 UNK     1      18.291   0.466  34.426  1.00  0.00     0.038 A 
HETATM   11  C2  UNK     1      19.377  -1.706  34.280  1.00  0.00    -0.001 A 
HETATM   12  C17 UNK     1      18.418   0.620  33.047  1.00  0.00     0.003 A 
HETATM   13  C16 UNK     1      19.021  -0.383  32.284  1.00  0.00     0.001 A 
HETATM   14  C9  UNK     1      19.500  -1.544  32.898  1.00  0.00     0.014 A 
HETATM   15  C6  UNK     1      19.858  -2.893  34.968  1.00  0.00     0.037 A 
ENDBRANCH   3   5
BRANCH   2  16
HETATM   16  C1  UNK     1      19.356  -6.423  37.787  1.00  0.00     0.050 A 
HETATM   17  C4  UNK     1      18.761  -7.523  37.191  1.00  0.00     0.074 A 
HETATM   18  C11 UNK     1      18.901  -8.780  37.782  1.00  0.00     0.018 A 
HETATM   19  C15 UNK     1      19.635  -8.917  38.961  1.00  0.00     0.001 A 
HETATM   20  C14 UNK     1      20.228  -7.800  39.549  1.00  0.00     0.002 A 
HETATM   21  C8  UNK     1      20.087  -6.544  38.958  1.00  0.00     0.030 A 
BRANCH  17  22
HETATM   22  C13 UNK     1      17.969  -7.405  35.929  1.00  0.00     0.419 C 
HETATM   23  F1  UNK     1      16.961  -6.488  36.003  1.00  0.00    -0.166 F 
HETATM   24  F2  UNK     1      18.717  -7.029  34.851  1.00  0.00    -0.166 F 
HETATM   25  F3  UNK     1      17.373  -8.579  35.574  1.00  0.00    -0.166 F 
ENDBRANCH  17  22
ENDBRANCH   2  16
TORSDOF 3
ENDMDL
MODEL 8
REMARK VINA RESULT:      -9.0      1.926      3.021
REMARK  3 active torsions:
REMARK  status: ('A' for Active; 'I' for Inactive)
REMARK    1  A    between atoms: C1_8  and  N1_7 
REMARK       I    between atoms: C7_14  and  N1_7 
REMARK    2  A    between atoms: C3_10  and  C7_14 
REMARK    3  A    between atoms: C13_20  and  C4_11 
ROOT
HETATM    1  O2  UNK     1      17.655   3.919  33.276  1.00  0.00    -0.267 OA
HETATM    2  N1  UNK     1      19.026   5.372  32.030  1.00  0.00    -0.322 N 
HETATM    3  C7  UNK     1      18.398   4.171  32.329  1.00  0.00     0.262 C 
HETATM    4  H2  UNK     1      19.631   5.401  31.215  1.00  0.00     0.169 HD
ENDROOT
BRANCH   3   5
HETATM    5  C3  UNK     1      18.710   3.125  31.348  1.00  0.00     0.108 A 
HETATM    6  C10 UNK     1      18.723   3.391  29.893  1.00  0.00     0.304 A 
HETATM    7  O1  UNK     1      19.031   2.317  29.062  1.00  0.00    -0.274 OA
HETATM    8  O3  UNK     1      18.473   4.501  29.435  1.00  0.00    -0.259 OA
HETATM    9  C5  UNK     1      19.319   1.038  29.579  1.00  0.00     0.089 A 
HETATM   10  C12 UNK     1      19.619   0.026  28.670  1.00  0.00     0.038 A 
HETATM   11  C2  UNK     1      19.302   0.809  30.950  1.00  0.00    -0.001 A 
HETATM   12  C17 UNK     1      19.908  -1.250  29.149  1.00  0.00     0.003 A 
HETATM   13  C16 UNK     1      19.895  -1.499  30.524  1.00  0.00     0.001 A 
HETATM   14  C9  UNK     1      19.593  -0.473  31.424  1.00  0.00     0.014 A 
HETATM   15  C6  UNK     1      18.981   1.911  31.844  1.00  0.00     0.037 A 
ENDBRANCH   3   5
BRANCH   2  16
HETATM   16  C1  UNK     1      18.952   6.589  32.752  1.00  0.00     0.050 A 
HETATM   17  C4  UNK     1      17.945   7.500  32.478  1.00  0.00     0.074 A 
HETATM   18  C11 UNK     1      17.888   8.692  33.200  1.00  0.00     0.018 A 
HETATM   19  C15 UNK     1      18.839   8.956  34.186  1.00  0.00     0.001 A 
HETATM   20  C14 UNK     1      19.847   8.029  34.450  1.00  0.00     0.002 A 
HETATM   21  C8  UNK     1      19.903   6.837  33.728  1.00  0.00     0.030 A 
BRANCH  17  22
HETATM   22  C13 UNK     1      16.913   7.243  31.427  1.00  0.00     0.419 C 
HETATM   23  F1  UNK     1      16.061   8.291  31.234  1.00  0.00    -0.166 F 
HETATM   24  F2  UNK     1      17.443   6.980  30.198  1.00  0.00    -0.166 F 
HETATM   25  F3  UNK     1      16.120   6.174  31.725  1.00  0.00    -0.166 F 
ENDBRANCH  17  22
ENDBRANCH   2  16
TORSDOF 3
ENDMDL
MODEL 9
REMARK VINA RESULT:      -8.8      2.812      7.344
REMARK  3 active torsions:
REMARK  status: ('A' for Active; 'I' for Inactive)
REMARK    1  A    between atoms: C1_8  and  N1_7 
REMARK       I    between atoms: C7_14  and  N1_7 
REMARK    2  A    between atoms: C3_10  and  C7_14 
REMARK    3  A    between atoms: C13_20  and  C4_11 
ROOT
HETATM    1  O2  UNK     1      17.529   2.075  30.071  1.00  0.00    -0.267 OA
HETATM    2  N1  UNK     1      19.319   1.360  31.424  1.00  0.00    -0.322 N 
HETATM    3  C7  UNK     1      18.281   2.197  31.036  1.00  0.00     0.262 C 
HETATM    4  H2  UNK     1      19.860   1.624  32.242  1.00  0.00     0.169 HD
ENDROOT
BRANCH   3   5
HETATM    5  C3  UNK     1      18.127   3.343  31.941  1.00  0.00     0.108 A 
HETATM    6  C10 UNK     1      18.129   3.188  33.412  1.00  0.00     0.304 A 
HETATM    7  O1  UNK     1      17.974   4.350  34.164  1.00  0.00    -0.274 OA
HETATM    8  O3  UNK     1      18.259   2.093  33.949  1.00  0.00    -0.259 OA
HETATM    9  C5  UNK     1      17.823   5.612  33.557  1.00  0.00     0.089 A 
HETATM   10  C12 UNK     1      17.676   6.718  34.392  1.00  0.00     0.038 A 
HETATM   11  C2  UNK     1      17.824   5.736  32.172  1.00  0.00    -0.001 A 
HETATM   12  C17 UNK     1      17.524   7.980  33.822  1.00  0.00     0.003 A 
HETATM   13  C16 UNK     1      17.522   8.124  32.432  1.00  0.00     0.001 A 
HETATM   14  C9  UNK     1      17.672   7.005  31.607  1.00  0.00     0.014 A 
HETATM   15  C6  UNK     1      17.983   4.540  31.359  1.00  0.00     0.037 A 
ENDBRANCH   3   5
BRANCH   2  16
HETATM   16  C1  UNK     1      19.749   0.168  30.792  1.00  0.00     0.050 A 
HETATM   17  C4  UNK     1      19.619  -1.049  31.440  1.00  0.00     0.074 A 
HETATM   18  C11 UNK     1      20.048  -2.213  30.801  1.00  0.00     0.018 A 
HETATM   19  C15 UNK     1      20.600  -2.142  29.522  1.00  0.00     0.001 A 
HETATM   20  C14 UNK     1      20.725  -0.909  28.882  1.00  0.00     0.002 A 
HETATM   21  C8  UNK     1      20.296   0.254  29.522  1.00  0.00     0.030 A 
BRANCH  17  22
HETATM   22  C13 UNK     1      19.031  -1.154  32.810  1.00  0.00     0.419 C 
HETATM   23  F1  UNK     1      19.267  -0.059  33.589  1.00  0.00    -0.166 F 
HETATM   24  F2  UNK     1      17.675  -1.308  32.810  1.00  0.00    -0.166 F 
HETATM   25  F3  UNK     1      19.524  -2.216  33.510  1.00  0.00    -0.166 F 
ENDBRANCH  17  22
ENDBRANCH   2  16
TORSDOF 3
ENDMDL
MODEL 10
REMARK VINA RESULT:      -8.8     23.830     25.100
REMARK  3 active torsions:
REMARK  status: ('A' for Active; 'I' for Inactive)
REMARK    1  A    between atoms: C1_8  and  N1_7 
REMARK       I    between atoms: C7_14  and  N1_7 
REMARK    2  A    between atoms: C3_10  and  C7_14 
REMARK    3  A    between atoms: C13_20  and  C4_11 
ROOT
HETATM    1  O2  UNK     1      12.359   6.174  10.205  1.00  0.00    -0.267 OA
HETATM    2  N1  UNK     1      11.595   7.862   8.751  1.00  0.00    -0.322 N 
HETATM    3  C7  UNK     1      12.521   7.199   9.544  1.00  0.00     0.262 C 
HETATM    4  H2  UNK     1      11.892   8.716   8.288  1.00  0.00     0.169 HD
ENDROOT
BRANCH   3   5
HETATM    5  C3  UNK     1      13.830   7.863   9.539  1.00  0.00     0.108 A 
HETATM    6  C10 UNK     1      14.986   7.326  10.291  1.00  0.00     0.304 A 
HETATM    7  O1  UNK     1      16.175   8.046  10.210  1.00  0.00    -0.274 OA
HETATM    8  O3  UNK     1      14.906   6.298  10.956  1.00  0.00    -0.259 OA
HETATM    9  C5  UNK     1      16.276   9.228   9.450  1.00  0.00     0.089 A 
HETATM   10  C12 UNK     1      17.508   9.879   9.428  1.00  0.00     0.038 A 
HETATM   11  C2  UNK     1      15.178   9.716   8.751  1.00  0.00    -0.001 A 
HETATM   12  C17 UNK     1      17.640  11.050   8.685  1.00  0.00     0.003 A 
HETATM   13  C16 UNK     1      16.548  11.556   7.977  1.00  0.00     0.001 A 
HETATM   14  C9  UNK     1      15.318  10.891   8.008  1.00  0.00     0.014 A 
HETATM   15  C6  UNK     1      13.921   8.986   8.817  1.00  0.00     0.037 A 
ENDBRANCH   3   5
BRANCH   2  16
HETATM   16  C1  UNK     1      10.243   7.508   8.522  1.00  0.00     0.050 A 
HETATM   17  C4  UNK     1       9.911   6.683   7.460  1.00  0.00     0.074 A 
HETATM   18  C11 UNK     1       8.573   6.344   7.250  1.00  0.00     0.018 A 
HETATM   19  C15 UNK     1       7.588   6.835   8.106  1.00  0.00     0.001 A 
HETATM   20  C14 UNK     1       7.938   7.665   9.172  1.00  0.00     0.002 A 
HETATM   21  C8  UNK     1       9.275   8.003   9.380  1.00  0.00     0.030 A 
BRANCH  17  22
HETATM   22  C13 UNK     1      10.946   6.143   6.527  1.00  0.00     0.419 C 
HETATM   23  F1  UNK     1      11.834   7.085   6.096  1.00  0.00    -0.166 F 
HETATM   24  F2  UNK     1      11.710   5.155   7.075  1.00  0.00    -0.166 F 
HETATM   25  F3  UNK     1      10.402   5.606   5.397  1.00  0.00    -0.166 F 
ENDBRANCH  17  22
ENDBRANCH   2  16
TORSDOF 3
ENDMDL
