MODEL 1
REMARK VINA RESULT:      -9.4      0.000      0.000
REMARK  5 active torsions:
REMARK  status: ('A' for Active; 'I' for Inactive)
REMARK    1  A    between atoms: C1_10  and  O1_3 
REMARK    2  A    between atoms: C12_21  and  O1_3 
REMARK       I    between atoms: C6_15  and  N1_8 
REMARK    3  A    between atoms: N1_8  and  N2_9 
REMARK       I    between atoms: C9_18  and  N2_9 
REMARK    4  A    between atoms: C1_10  and  C6_15 
REMARK    5  A    between atoms: C4_13  and  C9_18 
ROOT
HETATM    1  O4  UNK     1      17.259   4.895  32.042  1.00  0.00    -0.266 OA
HETATM    2  N2  UNK     1      18.300   4.322  34.044  1.00  0.00    -0.263 N 
HETATM    3  C9  UNK     1      17.871   5.193  33.065  1.00  0.00     0.276 C 
HETATM    4  H9  UNK     1      18.837   4.597  34.860  1.00  0.00     0.190 HD
ENDROOT
BRANCH   2   5
HETATM    5  N1  UNK     1      18.039   2.981  33.906  1.00  0.00    -0.265 N 
HETATM    6  C6  UNK     1      18.600   2.093  34.804  1.00  0.00     0.265 C 
HETATM    7  O3  UNK     1      19.331   2.401  35.742  1.00  0.00    -0.269 OA
HETATM    8  H8  UNK     1      17.423   2.707  33.148  1.00  0.00     0.190 HD
BRANCH   6   9
HETATM    9  C1  UNK     1      18.192   0.654  34.523  1.00  0.00     0.218 C 
HETATM   10  C7  UNK     1      16.922   0.287  35.276  1.00  0.00     0.050 C 
BRANCH   9  11
HETATM   11  O1  UNK     1      17.947   0.499  33.136  1.00  0.00    -0.335 OA
BRANCH  11  12
HETATM   12  C12 UNK     1      18.880  -0.202  32.414  1.00  0.00     0.087 A 
HETATM   13  C15 UNK     1      19.380   0.293  31.215  1.00  0.00     0.044 A 
HETATM   14 Br2  UNK     1      18.802   1.955  30.513  1.00  0.00    -0.048 Br
HETATM   15  C17 UNK     1      20.328  -0.444  30.505  1.00  0.00     0.022 A 
HETATM   16  C19 UNK     1      20.770  -1.671  31.000  1.00  0.00     0.002 A 
HETATM   17  C18 UNK     1      20.264  -2.162  32.203  1.00  0.00     0.003 A 
HETATM   18  C16 UNK     1      19.316  -1.425  32.913  1.00  0.00     0.038 A 
ENDBRANCH  11  12
ENDBRANCH   9  11
ENDBRANCH   6   9
ENDBRANCH   2   5
BRANCH   3  19
HETATM   19  C4  UNK     1      18.224   6.588  33.356  1.00  0.00     0.110 A 
HETATM   20  C10 UNK     1      19.627   7.020  33.544  1.00  0.00     0.304 A 
HETATM   21  O2  UNK     1      19.835   8.370  33.817  1.00  0.00    -0.274 OA
HETATM   22  O5  UNK     1      20.564   6.232  33.466  1.00  0.00    -0.259 OA
HETATM   23  C3  UNK     1      18.766   9.282  33.909  1.00  0.00     0.089 A 
HETATM   24  C11 UNK     1      19.073  10.614  34.184  1.00  0.00     0.039 A 
HETATM   25  C2  UNK     1      17.455   8.855  33.728  1.00  0.00     0.000 A 
HETATM   26  C14 UNK     1      18.036  11.539  34.280  1.00  0.00     0.022 A 
HETATM   27  C13 UNK     1      16.714  11.129  34.103  1.00  0.00     0.011 A 
HETATM   28 Br1  UNK     1      15.311  12.391  34.235  1.00  0.00    -0.051 Br
HETATM   29  C8  UNK     1      16.421   9.790  33.826  1.00  0.00     0.033 A 
HETATM   30  C5  UNK     1      17.204   7.451  33.443  1.00  0.00     0.037 A 
ENDBRANCH   3  19
TORSDOF 5
ENDMDL
MODEL 2
REMARK VINA RESULT:      -9.1      5.539     11.403
REMARK  5 active torsions:
REMARK  status: ('A' for Active; 'I' for Inactive)
REMARK    1  A    between atoms: C1_10  and  O1_3 
REMARK    2  A    between atoms: C12_21  and  O1_3 
REMARK       I    between atoms: C6_15  and  N1_8 
REMARK    3  A    between atoms: N1_8  and  N2_9 
REMARK       I    between atoms: C9_18  and  N2_9 
REMARK    4  A    between atoms: C1_10  and  C6_15 
REMARK    5  A    between atoms: C4_13  and  C9_18 
ROOT
HETATM    1  O4  UNK     1      20.630  -3.541  33.926  1.00  0.00    -0.266 OA
HETATM    2  N2  UNK     1      19.461  -2.118  35.352  1.00  0.00    -0.263 N 
HETATM    3  C9  UNK     1      20.104  -3.289  35.008  1.00  0.00     0.276 C 
HETATM    4  H9  UNK     1      19.003  -1.956  36.243  1.00  0.00     0.190 HD
ENDROOT
BRANCH   2   5
HETATM    5  N1  UNK     1      19.376  -1.107  34.427  1.00  0.00    -0.265 N 
HETATM    6  C6  UNK     1      18.129  -0.660  34.034  1.00  0.00     0.265 C 
HETATM    7  O3  UNK     1      17.057  -1.096  34.450  1.00  0.00    -0.269 OA
HETATM    8  H8  UNK     1      20.249  -0.721  34.085  1.00  0.00     0.190 HD
BRANCH   6   9
HETATM    9  C1  UNK     1      18.213   0.476  33.025  1.00  0.00     0.218 C 
HETATM   10  C7  UNK     1      17.977   1.822  33.694  1.00  0.00     0.050 C 
BRANCH   9  11
HETATM   11  O1  UNK     1      19.505   0.490  32.443  1.00  0.00    -0.335 OA
BRANCH  11  12
HETATM   12  C12 UNK     1      19.604   0.065  31.142  1.00  0.00     0.087 A 
HETATM   13  C15 UNK     1      19.228   0.888  30.086  1.00  0.00     0.044 A 
HETATM   14 Br2  UNK     1      18.558   2.636  30.384  1.00  0.00    -0.048 Br
HETATM   15  C17 UNK     1      19.342   0.426  28.775  1.00  0.00     0.022 A 
HETATM   16  C19 UNK     1      19.832  -0.856  28.528  1.00  0.00     0.002 A 
HETATM   17  C18 UNK     1      20.207  -1.677  29.591  1.00  0.00     0.003 A 
HETATM   18  C16 UNK     1      20.093  -1.215  30.903  1.00  0.00     0.038 A 
ENDBRANCH  11  12
ENDBRANCH   9  11
ENDBRANCH   6   9
ENDBRANCH   2   5
BRANCH   3  19
HETATM   19  C4  UNK     1      20.112  -4.270  36.099  1.00  0.00     0.110 A 
HETATM   20  C10 UNK     1      20.265  -3.869  37.515  1.00  0.00     0.304 A 
HETATM   21  O2  UNK     1      20.259  -4.891  38.460  1.00  0.00    -0.274 OA
HETATM   22  O5  UNK     1      20.394  -2.694  37.845  1.00  0.00    -0.259 OA
HETATM   23  C3  UNK     1      20.112  -6.243  38.091  1.00  0.00     0.089 A 
HETATM   24  C11 UNK     1      20.115  -7.196  39.108  1.00  0.00     0.039 A 
HETATM   25  C2  UNK     1      19.969  -6.599  36.754  1.00  0.00     0.000 A 
HETATM   26  C14 UNK     1      19.973  -8.540  38.773  1.00  0.00     0.022 A 
HETATM   27  C13 UNK     1      19.828  -8.917  37.437  1.00  0.00     0.011 A 
HETATM   28 Br1  UNK     1      19.635 -10.744  36.990  1.00  0.00    -0.051 Br
HETATM   29  C8  UNK     1      19.826  -7.950  36.427  1.00  0.00     0.033 A 
HETATM   30  C5  UNK     1      19.973  -5.554  35.743  1.00  0.00     0.037 A 
ENDBRANCH   3  19
TORSDOF 5
ENDMDL
MODEL 3
REMARK VINA RESULT:      -9.1      4.898      6.703
REMARK  5 active torsions:
REMARK  status: ('A' for Active; 'I' for Inactive)
REMARK    1  A    between atoms: C1_10  and  O1_3 
REMARK    2  A    between atoms: C12_21  and  O1_3 
REMARK       I    between atoms: C6_15  and  N1_8 
REMARK    3  A    between atoms: N1_8  and  N2_9 
REMARK       I    between atoms: C9_18  and  N2_9 
REMARK    4  A    between atoms: C1_10  and  C6_15 
REMARK    5  A    between atoms: C4_13  and  C9_18 
ROOT
HETATM    1  O4  UNK     1      17.180   0.295  35.212  1.00  0.00    -0.266 OA
HETATM    2  N2  UNK     1      19.115  -0.702  34.385  1.00  0.00    -0.263 N 
HETATM    3  C9  UNK     1      18.126   0.258  34.428  1.00  0.00     0.276 C 
HETATM    4  H9  UNK     1      19.863  -0.723  33.700  1.00  0.00     0.190 HD
ENDROOT
BRANCH   2   5
HETATM    5  N1  UNK     1      19.080  -1.736  35.287  1.00  0.00    -0.265 N 
HETATM    6  C6  UNK     1      20.267  -2.338  35.663  1.00  0.00     0.265 C 
HETATM    7  O3  UNK     1      21.382  -2.022  35.253  1.00  0.00    -0.269 OA
HETATM    8  H8  UNK     1      18.172  -2.001  35.651  1.00  0.00     0.190 HD
BRANCH   6   9
HETATM    9  C1  UNK     1      20.055  -3.447  36.684  1.00  0.00     0.218 C 
HETATM   10  C7  UNK     1      18.580  -3.609  37.018  1.00  0.00     0.050 C 
BRANCH   9  11
HETATM   11  O1  UNK     1      20.526  -4.671  36.148  1.00  0.00    -0.335 OA
BRANCH  11  12
HETATM   12  C12 UNK     1      20.680  -5.715  37.026  1.00  0.00     0.087 A 
HETATM   13  C15 UNK     1      19.974  -6.902  36.862  1.00  0.00     0.044 A 
HETATM   14 Br2  UNK     1      18.765  -7.142  35.422  1.00  0.00    -0.048 Br
HETATM   15  C17 UNK     1      20.153  -7.944  37.771  1.00  0.00     0.022 A 
HETATM   16  C19 UNK     1      21.037  -7.793  38.839  1.00  0.00     0.002 A 
HETATM   17  C18 UNK     1      21.742  -6.599  38.998  1.00  0.00     0.003 A 
HETATM   18  C16 UNK     1      21.563  -5.557  38.089  1.00  0.00     0.038 A 
ENDBRANCH  11  12
ENDBRANCH   9  11
ENDBRANCH   6   9
ENDBRANCH   2   5
BRANCH   3  19
HETATM   19  C4  UNK     1      18.300   1.295  33.404  1.00  0.00     0.110 A 
HETATM   20  C10 UNK     1      18.670   0.967  32.009  1.00  0.00     0.304 A 
HETATM   21  O2  UNK     1      18.808   2.038  31.130  1.00  0.00    -0.274 OA
HETATM   22  O5  UNK     1      18.849  -0.190  31.641  1.00  0.00    -0.259 OA
HETATM   23  C3  UNK     1      18.604   3.369  31.543  1.00  0.00     0.089 A 
HETATM   24  C11 UNK     1      18.763   4.374  30.590  1.00  0.00     0.039 A 
HETATM   25  C2  UNK     1      18.257   3.655  32.859  1.00  0.00     0.000 A 
HETATM   26  C14 UNK     1      18.569   5.700  30.970  1.00  0.00     0.022 A 
HETATM   27  C13 UNK     1      18.220   6.007  32.286  1.00  0.00     0.011 A 
HETATM   28 Br1  UNK     1      17.958   7.810  32.794  1.00  0.00    -0.051 Br
HETATM   29  C8  UNK     1      18.063   4.989  33.231  1.00  0.00     0.033 A 
HETATM   30  C5  UNK     1      18.106   2.559  33.802  1.00  0.00     0.037 A 
ENDBRANCH   3  19
TORSDOF 5
ENDMDL
MODEL 4
REMARK VINA RESULT:      -8.9      2.442      9.372
REMARK  5 active torsions:
REMARK  status: ('A' for Active; 'I' for Inactive)
REMARK    1  A    between atoms: C1_10  and  O1_3 
REMARK    2  A    between atoms: C12_21  and  O1_3 
REMARK       I    between atoms: C6_15  and  N1_8 
REMARK    3  A    between atoms: N1_8  and  N2_9 
REMARK       I    between atoms: C9_18  and  N2_9 
REMARK    4  A    between atoms: C1_10  and  C6_15 
REMARK    5  A    between atoms: C4_13  and  C9_18 
ROOT
HETATM    1  O4  UNK     1      17.182   4.145  32.067  1.00  0.00    -0.266 OA
HETATM    2  N2  UNK     1      19.222   5.093  31.464  1.00  0.00    -0.263 N 
HETATM    3  C9  UNK     1      18.270   4.095  31.497  1.00  0.00     0.276 C 
HETATM    4  H9  UNK     1      20.128   5.005  31.016  1.00  0.00     0.190 HD
ENDROOT
BRANCH   2   5
HETATM    5  N1  UNK     1      18.973   6.274  32.118  1.00  0.00    -0.265 N 
HETATM    6  C6  UNK     1      19.294   6.379  33.458  1.00  0.00     0.265 C 
HETATM    7  O3  UNK     1      19.796   5.487  34.139  1.00  0.00    -0.269 OA
HETATM    8  H8  UNK     1      18.576   7.029  31.571  1.00  0.00     0.190 HD
BRANCH   6   9
HETATM    9  C1  UNK     1      18.977   7.757  34.022  1.00  0.00     0.218 C 
HETATM   10  C7  UNK     1      20.247   8.565  34.241  1.00  0.00     0.050 C 
BRANCH   9  11
HETATM   11  O1  UNK     1      18.156   8.460  33.106  1.00  0.00    -0.335 OA
BRANCH  11  12
HETATM   12  C12 UNK     1      16.903   8.814  33.539  1.00  0.00     0.087 A 
HETATM   13  C15 UNK     1      16.640  10.097  34.006  1.00  0.00     0.044 A 
HETATM   14 Br2  UNK     1      17.992  11.423  34.069  1.00  0.00    -0.048 Br
HETATM   15  C17 UNK     1      15.355  10.425  34.438  1.00  0.00     0.022 A 
HETATM   16  C19 UNK     1      14.342   9.467  34.402  1.00  0.00     0.002 A 
HETATM   17  C18 UNK     1      14.613   8.182  33.933  1.00  0.00     0.003 A 
HETATM   18  C16 UNK     1      15.897   7.854  33.500  1.00  0.00     0.038 A 
ENDBRANCH  11  12
ENDBRANCH   9  11
ENDBRANCH   6   9
ENDBRANCH   2   5
BRANCH   3  19
HETATM   19  C4  UNK     1      18.681   2.898  30.755  1.00  0.00     0.110 A 
HETATM   20  C10 UNK     1      18.651   2.842  29.276  1.00  0.00     0.304 A 
HETATM   21  O2  UNK     1      19.063   1.650  28.686  1.00  0.00    -0.274 OA
HETATM   22  O5  UNK     1      18.280   3.795  28.599  1.00  0.00    -0.259 OA
HETATM   23  C3  UNK     1      19.491   0.550  29.455  1.00  0.00     0.089 A 
HETATM   24  C11 UNK     1      19.887  -0.600  28.775  1.00  0.00     0.039 A 
HETATM   25  C2  UNK     1      19.512   0.623  30.844  1.00  0.00     0.000 A 
HETATM   26  C14 UNK     1      20.315  -1.705  29.508  1.00  0.00     0.022 A 
HETATM   27  C13 UNK     1      20.342  -1.650  30.903  1.00  0.00     0.011 A 
HETATM   28 Br1  UNK     1      20.923  -3.153  31.893  1.00  0.00    -0.051 Br
HETATM   29  C8  UNK     1      19.942  -0.489  31.572  1.00  0.00     0.033 A 
HETATM   30  C5  UNK     1      19.086   1.855  31.490  1.00  0.00     0.037 A 
ENDBRANCH   3  19
TORSDOF 5
ENDMDL
MODEL 5
REMARK VINA RESULT:      -8.7     13.814     15.654
REMARK  5 active torsions:
REMARK  status: ('A' for Active; 'I' for Inactive)
REMARK    1  A    between atoms: C1_10  and  O1_3 
REMARK    2  A    between atoms: C12_21  and  O1_3 
REMARK       I    between atoms: C6_15  and  N1_8 
REMARK    3  A    between atoms: N1_8  and  N2_9 
REMARK       I    between atoms: C9_18  and  N2_9 
REMARK    4  A    between atoms: C1_10  and  C6_15 
REMARK    5  A    between atoms: C4_13  and  C9_18 
ROOT
HETATM    1  O4  UNK     1      25.417  -8.599  37.563  1.00  0.00    -0.266 OA
HETATM    2  N2  UNK     1      24.559  -7.130  39.154  1.00  0.00    -0.263 N 
HETATM    3  C9  UNK     1      25.531  -7.632  38.313  1.00  0.00     0.276 C 
HETATM    4  H9  UNK     1      24.698  -6.351  39.789  1.00  0.00     0.190 HD
ENDROOT
BRANCH   2   5
HETATM    5  N1  UNK     1      23.329  -7.739  39.190  1.00  0.00    -0.265 N 
HETATM    6  C6  UNK     1      22.231  -7.061  38.695  1.00  0.00     0.265 C 
HETATM    7  O3  UNK     1      22.255  -5.931  38.210  1.00  0.00    -0.269 OA
HETATM    8  H8  UNK     1      23.290  -8.678  39.569  1.00  0.00     0.190 HD
BRANCH   6   9
HETATM    9  C1  UNK     1      20.954  -7.883  38.788  1.00  0.00     0.218 C 
HETATM   10  C7  UNK     1      19.929  -7.204  39.683  1.00  0.00     0.050 C 
BRANCH   9  11
HETATM   11  O1  UNK     1      20.392  -8.022  37.494  1.00  0.00    -0.335 OA
BRANCH  11  12
HETATM   12  C12 UNK     1      20.952  -8.967  36.672  1.00  0.00     0.087 A 
HETATM   13  C15 UNK     1      21.059  -8.755  35.302  1.00  0.00     0.044 A 
HETATM   14 Br2  UNK     1      20.440  -7.154  34.497  1.00  0.00    -0.048 Br
HETATM   15  C17 UNK     1      21.634  -9.735  34.493  1.00  0.00     0.022 A 
HETATM   16  C19 UNK     1      22.097 -10.922  35.059  1.00  0.00     0.002 A 
HETATM   17  C18 UNK     1      21.986 -11.129  36.434  1.00  0.00     0.003 A 
HETATM   18  C16 UNK     1      21.412 -10.149  37.243  1.00  0.00     0.038 A 
ENDBRANCH  11  12
ENDBRANCH   9  11
ENDBRANCH   6   9
ENDBRANCH   2   5
BRANCH   3  19
HETATM   19  C4  UNK     1      26.786  -6.876  38.387  1.00  0.00     0.110 A 
HETATM   20  C10 UNK     1      26.817  -5.432  38.712  1.00  0.00     0.304 A 
HETATM   21  O2  UNK     1      28.069  -4.826  38.750  1.00  0.00    -0.274 OA
HETATM   22  O5  UNK     1      25.791  -4.797  38.935  1.00  0.00    -0.259 OA
HETATM   23  C3  UNK     1      29.252  -5.546  38.495  1.00  0.00     0.089 A 
HETATM   24  C11 UNK     1      30.459  -4.853  38.559  1.00  0.00     0.039 A 
HETATM   25  C2  UNK     1      29.202  -6.903  38.192  1.00  0.00     0.000 A 
HETATM   26  C14 UNK     1      31.646  -5.539  38.311  1.00  0.00     0.022 A 
HETATM   27  C13 UNK     1      31.615  -6.901  38.004  1.00  0.00     0.011 A 
HETATM   28 Br1  UNK     1      33.230  -7.827  37.668  1.00  0.00    -0.051 Br
HETATM   29  C8  UNK     1      30.397  -7.584  37.944  1.00  0.00     0.033 A 
HETATM   30  C5  UNK     1      27.908  -7.566  38.142  1.00  0.00     0.037 A 
ENDBRANCH   3  19
TORSDOF 5
ENDMDL
MODEL 6
REMARK VINA RESULT:      -8.6     13.913     16.262
REMARK  5 active torsions:
REMARK  status: ('A' for Active; 'I' for Inactive)
REMARK    1  A    between atoms: C1_10  and  O1_3 
REMARK    2  A    between atoms: C12_21  and  O1_3 
REMARK       I    between atoms: C6_15  and  N1_8 
REMARK    3  A    between atoms: N1_8  and  N2_9 
REMARK       I    between atoms: C9_18  and  N2_9 
REMARK    4  A    between atoms: C1_10  and  C6_15 
REMARK    5  A    between atoms: C4_13  and  C9_18 
ROOT
HETATM    1  O4  UNK     1      26.715  -4.484  38.744  1.00  0.00    -0.266 OA
HETATM    2  N2  UNK     1      26.886  -6.806  38.762  1.00  0.00    -0.263 N 
HETATM    3  C9  UNK     1      27.373  -5.519  38.668  1.00  0.00     0.276 C 
HETATM    4  H9  UNK     1      27.452  -7.642  38.656  1.00  0.00     0.190 HD
ENDROOT
BRANCH   2   5
HETATM    5  N1  UNK     1      25.541  -6.998  38.960  1.00  0.00    -0.265 N 
HETATM    6  C6  UNK     1      24.878  -7.940  38.197  1.00  0.00     0.265 C 
HETATM    7  O3  UNK     1      25.397  -8.643  37.332  1.00  0.00    -0.269 OA
HETATM    8  H8  UNK     1      25.097  -6.441  39.682  1.00  0.00     0.190 HD
BRANCH   6   9
HETATM    9  C1  UNK     1      23.403  -8.044  38.558  1.00  0.00     0.218 C 
HETATM   10  C7  UNK     1      23.006  -6.964  39.553  1.00  0.00     0.050 C 
BRANCH   9  11
HETATM   11  O1  UNK     1      22.622  -7.878  37.387  1.00  0.00    -0.335 OA
BRANCH  11  12
HETATM   12  C12 UNK     1      21.403  -8.506  37.359  1.00  0.00     0.087 A 
HETATM   13  C15 UNK     1      20.223  -7.782  37.225  1.00  0.00     0.044 A 
HETATM   14 Br2  UNK     1      20.234  -5.893  37.076  1.00  0.00    -0.048 Br
HETATM   15  C17 UNK     1      19.000  -8.452  37.200  1.00  0.00     0.022 A 
HETATM   16  C19 UNK     1      18.964  -9.841  37.308  1.00  0.00     0.002 A 
HETATM   17  C18 UNK     1      20.151 -10.562  37.442  1.00  0.00     0.003 A 
HETATM   18  C16 UNK     1      21.374  -9.893  37.468  1.00  0.00     0.038 A 
ENDBRANCH  11  12
ENDBRANCH   9  11
ENDBRANCH   6   9
ENDBRANCH   2   5
BRANCH   3  19
HETATM   19  C4  UNK     1      28.824  -5.479  38.457  1.00  0.00     0.110 A 
HETATM   20  C10 UNK     1      29.700  -4.544  39.198  1.00  0.00     0.304 A 
HETATM   21  O2  UNK     1      31.061  -4.599  38.910  1.00  0.00    -0.274 OA
HETATM   22  O5  UNK     1      29.254  -3.756  40.026  1.00  0.00    -0.259 OA
HETATM   23  C3  UNK     1      31.584  -5.500  37.961  1.00  0.00     0.089 A 
HETATM   24  C11 UNK     1      32.960  -5.483  37.742  1.00  0.00     0.039 A 
HETATM   25  C2  UNK     1      30.743  -6.371  37.276  1.00  0.00     0.000 A 
HETATM   26  C14 UNK     1      33.505  -6.363  36.809  1.00  0.00     0.022 A 
HETATM   27  C13 UNK     1      32.677  -7.244  36.111  1.00  0.00     0.011 A 
HETATM   28 Br1  UNK     1      33.424  -8.435  34.846  1.00  0.00    -0.051 Br
HETATM   29  C8  UNK     1      31.298  -7.250  36.342  1.00  0.00     0.033 A 
HETATM   30  C5  UNK     1      29.316  -6.337  37.554  1.00  0.00     0.037 A 
ENDBRANCH   3  19
TORSDOF 5
ENDMDL
MODEL 7
REMARK VINA RESULT:      -8.6     13.416     16.876
REMARK  5 active torsions:
REMARK  status: ('A' for Active; 'I' for Inactive)
REMARK    1  A    between atoms: C1_10  and  O1_3 
REMARK    2  A    between atoms: C12_21  and  O1_3 
REMARK       I    between atoms: C6_15  and  N1_8 
REMARK    3  A    between atoms: N1_8  and  N2_9 
REMARK       I    between atoms: C9_18  and  N2_9 
REMARK    4  A    between atoms: C1_10  and  C6_15 
REMARK    5  A    between atoms: C4_13  and  C9_18 
ROOT
HETATM    1  O4  UNK     1      25.433  -7.290  38.679  1.00  0.00    -0.266 OA
HETATM    2  N2  UNK     1      25.220  -9.212  37.381  1.00  0.00    -0.263 N 
HETATM    3  C9  UNK     1      25.912  -8.273  38.117  1.00  0.00     0.276 C 
HETATM    4  H9  UNK     1      25.652  -9.992  36.897  1.00  0.00     0.190 HD
ENDROOT
BRANCH   2   5
HETATM    5  N1  UNK     1      23.861  -9.077  37.236  1.00  0.00    -0.265 N 
HETATM    6  C6  UNK     1      23.181  -9.969  36.429  1.00  0.00     0.265 C 
HETATM    7  O3  UNK     1      23.696 -10.900  35.811  1.00  0.00    -0.269 OA
HETATM    8  H8  UNK     1      23.414  -8.327  37.752  1.00  0.00     0.190 HD
BRANCH   6   9
HETATM    9  C1  UNK     1      21.685  -9.695  36.397  1.00  0.00     0.218 C 
HETATM   10  C7  UNK     1      20.923 -10.709  37.236  1.00  0.00     0.050 C 
BRANCH   9  11
HETATM   11  O1  UNK     1      21.434  -8.404  36.925  1.00  0.00    -0.335 OA
BRANCH  11  12
HETATM   12  C12 UNK     1      20.194  -7.866  36.690  1.00  0.00     0.087 A 
HETATM   13  C15 UNK     1      19.408  -7.389  37.734  1.00  0.00     0.044 A 
HETATM   14 Br2  UNK     1      20.005  -7.456  39.532  1.00  0.00    -0.048 Br
HETATM   15  C17 UNK     1      18.152  -6.848  37.462  1.00  0.00     0.022 A 
HETATM   16  C19 UNK     1      17.689  -6.788  36.148  1.00  0.00     0.002 A 
HETATM   17  C18 UNK     1      18.481  -7.268  35.106  1.00  0.00     0.003 A 
HETATM   18  C16 UNK     1      19.738  -7.809  35.377  1.00  0.00     0.038 A 
ENDBRANCH  11  12
ENDBRANCH   9  11
ENDBRANCH   6   9
ENDBRANCH   2   5
BRANCH   3  19
HETATM   19  C4  UNK     1      27.351  -8.554  38.180  1.00  0.00     0.110 A 
HETATM   20  C10 UNK     1      27.877  -9.858  38.640  1.00  0.00     0.304 A 
HETATM   21  O2  UNK     1      29.262 -10.004  38.657  1.00  0.00    -0.274 OA
HETATM   22  O5  UNK     1      27.134 -10.769  38.990  1.00  0.00    -0.259 OA
HETATM   23  C3  UNK     1      30.123  -8.964  38.256  1.00  0.00     0.089 A 
HETATM   24  C11 UNK     1      31.495  -9.204  38.306  1.00  0.00     0.039 A 
HETATM   25  C2  UNK     1      29.608  -7.745  37.827  1.00  0.00     0.000 A 
HETATM   26  C14 UNK     1      32.371  -8.194  37.916  1.00  0.00     0.022 A 
HETATM   27  C13 UNK     1      31.873  -6.964  37.483  1.00  0.00     0.011 A 
HETATM   28 Br1  UNK     1      33.069  -5.597  36.956  1.00  0.00    -0.051 Br
HETATM   29  C8  UNK     1      30.494  -6.737  37.438  1.00  0.00     0.033 A 
HETATM   30  C5  UNK     1      28.165  -7.561  37.799  1.00  0.00     0.037 A 
ENDBRANCH   3  19
TORSDOF 5
ENDMDL
MODEL 8
REMARK VINA RESULT:      -8.6     14.487     16.536
REMARK  5 active torsions:
REMARK  status: ('A' for Active; 'I' for Inactive)
REMARK    1  A    between atoms: C1_10  and  O1_3 
REMARK    2  A    between atoms: C12_21  and  O1_3 
REMARK       I    between atoms: C6_15  and  N1_8 
REMARK    3  A    between atoms: N1_8  and  N2_9 
REMARK       I    between atoms: C9_18  and  N2_9 
REMARK    4  A    between atoms: C1_10  and  C6_15 
REMARK    5  A    between atoms: C4_13  and  C9_18 
ROOT
HETATM    1  O4  UNK     1      26.827  -4.376  38.779  1.00  0.00    -0.266 OA
HETATM    2  N2  UNK     1      26.943  -6.702  38.826  1.00  0.00    -0.263 N 
HETATM    3  C9  UNK     1      27.458  -5.428  38.701  1.00  0.00     0.276 C 
HETATM    4  H9  UNK     1      27.486  -7.552  38.719  1.00  0.00     0.190 HD
ENDROOT
BRANCH   2   5
HETATM    5  N1  UNK     1      25.599  -6.858  39.061  1.00  0.00    -0.265 N 
HETATM    6  C6  UNK     1      24.908  -7.839  38.375  1.00  0.00     0.265 C 
HETATM    7  O3  UNK     1      25.400  -8.607  37.550  1.00  0.00    -0.269 OA
HETATM    8  H8  UNK     1      25.177  -6.246  39.751  1.00  0.00     0.190 HD
BRANCH   6   9
HETATM    9  C1  UNK     1      23.439  -7.894  38.768  1.00  0.00     0.218 C 
HETATM   10  C7  UNK     1      22.944  -6.532  39.230  1.00  0.00     0.050 C 
BRANCH   9  11
HETATM   11  O1  UNK     1      22.669  -8.289  37.646  1.00  0.00    -0.335 OA
BRANCH  11  12
HETATM   12  C12 UNK     1      21.604  -9.120  37.884  1.00  0.00     0.087 A 
HETATM   13  C15 UNK     1      21.355 -10.221  37.072  1.00  0.00     0.044 A 
HETATM   14 Br2  UNK     1      22.468 -10.631  35.594  1.00  0.00    -0.048 Br
HETATM   15  C17 UNK     1      20.263 -11.047  37.341  1.00  0.00     0.022 A 
HETATM   16  C19 UNK     1      19.428 -10.767  38.422  1.00  0.00     0.002 A 
HETATM   17  C18 UNK     1      19.683  -9.661  39.234  1.00  0.00     0.003 A 
HETATM   18  C16 UNK     1      20.775  -8.835  38.964  1.00  0.00     0.038 A 
ENDBRANCH  11  12
ENDBRANCH   9  11
ENDBRANCH   6   9
ENDBRANCH   2   5
BRANCH   3  19
HETATM   19  C4  UNK     1      28.904  -5.426  38.454  1.00  0.00     0.110 A 
HETATM   20  C10 UNK     1      29.821  -4.504  39.161  1.00  0.00     0.304 A 
HETATM   21  O2  UNK     1      31.172  -4.597  38.840  1.00  0.00    -0.274 OA
HETATM   22  O5  UNK     1      29.414  -3.696  39.990  1.00  0.00    -0.259 OA
HETATM   23  C3  UNK     1      31.649  -5.521  37.890  1.00  0.00     0.089 A 
HETATM   24  C11 UNK     1      33.019  -5.541  37.636  1.00  0.00     0.039 A 
HETATM   25  C2  UNK     1      30.770  -6.379  37.237  1.00  0.00     0.000 A 
HETATM   26  C14 UNK     1      33.519  -6.444  36.701  1.00  0.00     0.022 A 
HETATM   27  C13 UNK     1      32.653  -7.313  36.035  1.00  0.00     0.011 A 
HETATM   28 Br1  UNK     1      33.339  -8.537  34.767  1.00  0.00    -0.051 Br
HETATM   29  C8  UNK     1      31.280  -7.283  36.300  1.00  0.00     0.033 A 
HETATM   30  C5  UNK     1      29.352  -6.307  37.550  1.00  0.00     0.037 A 
ENDBRANCH   3  19
TORSDOF 5
ENDMDL
MODEL 9
REMARK VINA RESULT:      -8.4      6.220     11.998
REMARK  5 active torsions:
REMARK  status: ('A' for Active; 'I' for Inactive)
REMARK    1  A    between atoms: C1_10  and  O1_3 
REMARK    2  A    between atoms: C12_21  and  O1_3 
REMARK       I    between atoms: C6_15  and  N1_8 
REMARK    3  A    between atoms: N1_8  and  N2_9 
REMARK       I    between atoms: C9_18  and  N2_9 
REMARK    4  A    between atoms: C1_10  and  C6_15 
REMARK    5  A    between atoms: C4_13  and  C9_18 
ROOT
HETATM    1  O4  UNK     1      18.131  -3.250  36.880  1.00  0.00    -0.266 OA
HETATM    2  N2  UNK     1      19.808  -3.096  35.272  1.00  0.00    -0.263 N 
HETATM    3  C9  UNK     1      19.202  -3.612  36.398  1.00  0.00     0.276 C 
HETATM    4  H9  UNK     1      20.713  -3.393  34.921  1.00  0.00     0.190 HD
ENDROOT
BRANCH   2   5
HETATM    5  N1  UNK     1      19.191  -2.076  34.590  1.00  0.00    -0.265 N 
HETATM    6  C6  UNK     1      19.711  -1.671  33.375  1.00  0.00     0.265 C 
HETATM    7  O3  UNK     1      20.703  -2.155  32.833  1.00  0.00    -0.269 OA
HETATM    8  H8  UNK     1      18.361  -1.675  35.012  1.00  0.00     0.190 HD
BRANCH   6   9
HETATM    9  C1  UNK     1      18.898  -0.551  32.743  1.00  0.00     0.218 C 
HETATM   10  C7  UNK     1      18.237   0.314  33.806  1.00  0.00     0.050 C 
BRANCH   9  11
HETATM   11  O1  UNK     1      19.756   0.271  31.971  1.00  0.00    -0.335 OA
BRANCH  11  12
HETATM   12  C12 UNK     1      19.212   0.867  30.861  1.00  0.00     0.087 A 
HETATM   13  C15 UNK     1      19.337   0.290  29.601  1.00  0.00     0.044 A 
HETATM   14 Br2  UNK     1      20.262  -1.345  29.350  1.00  0.00    -0.048 Br
HETATM   15  C17 UNK     1      18.773   0.921  28.493  1.00  0.00     0.022 A 
HETATM   16  C19 UNK     1      18.087   2.125  28.651  1.00  0.00     0.002 A 
HETATM   17  C18 UNK     1      17.966   2.699  29.917  1.00  0.00     0.003 A 
HETATM   18  C16 UNK     1      18.530   2.068  31.025  1.00  0.00     0.038 A 
ENDBRANCH  11  12
ENDBRANCH   9  11
ENDBRANCH   6   9
ENDBRANCH   2   5
BRANCH   3  19
HETATM   19  C4  UNK     1      19.980  -4.693  37.013  1.00  0.00     0.110 A 
HETATM   20  C10 UNK     1      21.358  -4.483  37.511  1.00  0.00     0.304 A 
HETATM   21  O2  UNK     1      21.995  -5.586  38.073  1.00  0.00    -0.274 OA
HETATM   22  O5  UNK     1      21.917  -3.394  37.433  1.00  0.00    -0.259 OA
HETATM   23  C3  UNK     1      21.363  -6.841  38.167  1.00  0.00     0.089 A 
HETATM   24  C11 UNK     1      22.080  -7.886  38.748  1.00  0.00     0.039 A 
HETATM   25  C2  UNK     1      20.067  -7.017  37.693  1.00  0.00     0.000 A 
HETATM   26  C14 UNK     1      21.481  -9.139  38.854  1.00  0.00     0.022 A 
HETATM   27  C13 UNK     1      20.181  -9.335  38.384  1.00  0.00     0.011 A 
HETATM   28 Br1  UNK     1      19.374 -11.038  38.531  1.00  0.00    -0.051 Br
HETATM   29  C8  UNK     1      19.473  -8.277  37.804  1.00  0.00     0.033 A 
HETATM   30  C5  UNK     1      19.375  -5.885  37.099  1.00  0.00     0.037 A 
ENDBRANCH   3  19
TORSDOF 5
ENDMDL
MODEL 10
REMARK VINA RESULT:      -8.4      1.705      2.421
REMARK  5 active torsions:
REMARK  status: ('A' for Active; 'I' for Inactive)
REMARK    1  A    between atoms: C1_10  and  O1_3 
REMARK    2  A    between atoms: C12_21  and  O1_3 
REMARK       I    between atoms: C6_15  and  N1_8 
REMARK    3  A    between atoms: N1_8  and  N2_9 
REMARK       I    between atoms: C9_18  and  N2_9 
REMARK    4  A    between atoms: C1_10  and  C6_15 
REMARK    5  A    between atoms: C4_13  and  C9_18 
ROOT
HETATM    1  O4  UNK     1      18.405   5.717  31.062  1.00  0.00    -0.266 OA
HETATM    2  N2  UNK     1      17.357   4.683  32.866  1.00  0.00    -0.263 N 
HETATM    3  C9  UNK     1      17.665   5.746  32.042  1.00  0.00     0.276 C 
HETATM    4  H9  UNK     1      16.770   4.749  33.691  1.00  0.00     0.190 HD
ENDROOT
BRANCH   2   5
HETATM    5  N1  UNK     1      17.908   3.453  32.603  1.00  0.00    -0.265 N 
HETATM    6  C6  UNK     1      18.169   2.597  33.656  1.00  0.00     0.265 C 
HETATM    7  O3  UNK     1      17.947   2.842  34.840  1.00  0.00    -0.269 OA
HETATM    8  H8  UNK     1      18.083   3.224  31.631  1.00  0.00     0.190 HD
BRANCH   6   9
HETATM    9  C1  UNK     1      18.756   1.272  33.192  1.00  0.00     0.218 C 
HETATM   10  C7  UNK     1      18.373   0.142  34.135  1.00  0.00     0.050 C 
BRANCH   9  11
HETATM   11  O1  UNK     1      18.252   0.964  31.903  1.00  0.00    -0.335 OA
BRANCH  11  12
HETATM   12  C12 UNK     1      19.101   0.313  31.043  1.00  0.00     0.087 A 
HETATM   13  C15 UNK     1      19.206   0.696  29.711  1.00  0.00     0.044 A 
HETATM   14 Br2  UNK     1      18.187   2.132  29.010  1.00  0.00    -0.048 Br
HETATM   15  C17 UNK     1      20.079   0.014  28.862  1.00  0.00     0.022 A 
HETATM   16  C19 UNK     1      20.840  -1.047  29.353  1.00  0.00     0.002 A 
HETATM   17  C18 UNK     1      20.730  -1.426  30.691  1.00  0.00     0.003 A 
HETATM   18  C16 UNK     1      19.857  -0.744  31.539  1.00  0.00     0.038 A 
ENDBRANCH  11  12
ENDBRANCH   9  11
ENDBRANCH   6   9
ENDBRANCH   2   5
BRANCH   3  19
HETATM   19  C4  UNK     1      17.000   6.988  32.451  1.00  0.00     0.110 A 
HETATM   20  C10 UNK     1      15.535   7.170  32.338  1.00  0.00     0.304 A 
HETATM   21  O2  UNK     1      15.022   8.394  32.757  1.00  0.00    -0.274 OA
HETATM   22  O5  UNK     1      14.806   6.288  31.896  1.00  0.00    -0.259 OA
HETATM   23  C3  UNK     1      15.851   9.412  33.266  1.00  0.00     0.089 A 
HETATM   24  C11 UNK     1      15.245  10.603  33.662  1.00  0.00     0.039 A 
HETATM   25  C2  UNK     1      17.225   9.221  33.364  1.00  0.00     0.000 A 
HETATM   26  C14 UNK     1      16.041  11.628  34.169  1.00  0.00     0.022 A 
HETATM   27  C13 UNK     1      17.422  11.456  34.275  1.00  0.00     0.011 A 
HETATM   28 Br1  UNK     1      18.495  12.852  34.964  1.00  0.00    -0.051 Br
HETATM   29  C8  UNK     1      18.016  10.255  33.874  1.00  0.00     0.033 A 
HETATM   30  C5  UNK     1      17.793   7.953  32.933  1.00  0.00     0.037 A 
ENDBRANCH   3  19
TORSDOF 5
ENDMDL
