MODEL 1
REMARK VINA RESULT:      -7.7      0.000      0.000
REMARK  3 active torsions:
REMARK  status: ('A' for Active; 'I' for Inactive)
REMARK    1  A    between atoms: N1_5  and  N2_6 
REMARK    2  A    between atoms: C15_22  and  N2_6 
REMARK    3  A    between atoms: C15_22  and  N3_7 
ROOT
HETATM    1  O1  UNK     1      10.616   5.580   7.853  1.00  0.00    -0.334 OA
HETATM    2  O2  UNK     1      13.881   8.278  10.197  1.00  0.00    -0.274 OA
HETATM    3  O3  UNK     1      15.471   9.524  11.276  1.00  0.00    -0.260 OA
HETATM    4  N1  UNK     1       8.913   8.313   9.705  1.00  0.00    -0.178 NA
HETATM    5  C1  UNK     1       9.507   6.247   8.462  1.00  0.00     0.103 C 
HETATM    6  C2  UNK     1       9.820   7.589   9.133  1.00  0.00     0.071 C 
HETATM    7  C3  UNK     1      11.232   8.096   9.096  1.00  0.00     0.104 C 
HETATM    8  C4  UNK     1      12.201   6.958   9.066  1.00  0.00     0.016 A 
HETATM    9  C5  UNK     1      11.842   5.768   8.430  1.00  0.00     0.079 A 
HETATM   10  C6  UNK     1       8.505   6.488   7.324  1.00  0.00     0.053 C 
HETATM   11  C7  UNK     1       8.904   5.281   9.490  1.00  0.00     0.053 C 
HETATM   12  C8  UNK     1      13.502   7.065   9.576  1.00  0.00     0.099 A 
HETATM   13  C9  UNK     1      14.422   6.023   9.478  1.00  0.00    -0.001 A 
HETATM   14  C10 UNK     1      12.759   4.720   8.303  1.00  0.00     0.038 A 
HETATM   15  C11 UNK     1      14.044   4.843   8.835  1.00  0.00     0.017 A 
HETATM   16  C12 UNK     1      15.753   6.198  10.035  1.00  0.00     0.020 A 
HETATM   17  C13 UNK     1      16.092   7.347  10.626  1.00  0.00     0.083 A 
HETATM   18  C14 UNK     1      15.148   8.472  10.736  1.00  0.00     0.288 A 
ENDROOT
BRANCH   4  19
HETATM   19  N2  UNK     1       7.682   7.754   9.677  1.00  0.00    -0.254 N 
HETATM   20  H13 UNK     1       7.316   7.252   8.896  1.00  0.00     0.191 HD
BRANCH  19  21
HETATM   21  C15 UNK     1       6.839   7.852  10.756  1.00  0.00     0.185 C 
HETATM   22  S1  UNK     1       5.613   6.744  11.012  1.00  0.00    -0.040 SA
BRANCH  21  23
HETATM   23  N3  UNK     1       7.049   8.897  11.614  1.00  0.00    -0.375 N 
HETATM   24  H14 UNK     1       6.319   9.224  12.239  1.00  0.00     0.158 HD
HETATM   25  H15 UNK     1       7.941   9.380  11.652  1.00  0.00     0.158 HD
ENDBRANCH  21  23
ENDBRANCH  19  21
ENDBRANCH   4  19
TORSDOF 3
ENDMDL
MODEL 2
REMARK VINA RESULT:      -7.5     22.487     24.308
REMARK  3 active torsions:
REMARK  status: ('A' for Active; 'I' for Inactive)
REMARK    1  A    between atoms: N1_5  and  N2_6 
REMARK    2  A    between atoms: C15_22  and  N2_6 
REMARK    3  A    between atoms: C15_22  and  N3_7 
ROOT
HETATM    1  O1  UNK     1      16.741   9.070  35.154  1.00  0.00    -0.334 OA
HETATM    2  O2  UNK     1      18.007   6.716  31.118  1.00  0.00    -0.274 OA
HETATM    3  O3  UNK     1      18.645   5.567  29.242  1.00  0.00    -0.260 OA
HETATM    4  N1  UNK     1      14.527  10.079  32.346  1.00  0.00    -0.178 NA
HETATM    5  C1  UNK     1      15.802   9.906  34.470  1.00  0.00     0.103 C 
HETATM    6  C2  UNK     1      15.384   9.436  33.072  1.00  0.00     0.071 C 
HETATM    7  C3  UNK     1      15.969   8.160  32.540  1.00  0.00     0.104 C 
HETATM    8  C4  UNK     1      17.339   7.937  33.095  1.00  0.00     0.016 A 
HETATM    9  C5  UNK     1      17.642   8.392  34.379  1.00  0.00     0.079 A 
HETATM   10  C6  UNK     1      14.560   9.940  35.370  1.00  0.00     0.053 C 
HETATM   11  C7  UNK     1      16.421  11.307  34.382  1.00  0.00     0.053 C 
HETATM   12  C8  UNK     1      18.317   7.203  32.409  1.00  0.00     0.099 A 
HETATM   13  C9  UNK     1      19.567   6.938  32.965  1.00  0.00    -0.001 A 
HETATM   14  C10 UNK     1      18.882   8.116  34.962  1.00  0.00     0.038 A 
HETATM   15  C11 UNK     1      19.848   7.399  34.252  1.00  0.00     0.017 A 
HETATM   16  C12 UNK     1      20.538   6.177  32.196  1.00  0.00     0.020 A 
HETATM   17  C13 UNK     1      20.232   5.731  30.974  1.00  0.00     0.083 A 
HETATM   18  C14 UNK     1      18.917   5.985  30.362  1.00  0.00     0.288 A 
ENDROOT
BRANCH   4  19
HETATM   19  N2  UNK     1      14.071  11.210  32.928  1.00  0.00    -0.254 N 
HETATM   20  H13 UNK     1      14.626  11.800  33.512  1.00  0.00     0.191 HD
BRANCH  19  21
HETATM   21  C15 UNK     1      12.774  11.623  32.744  1.00  0.00     0.185 C 
HETATM   22  S1  UNK     1      12.297  13.188  33.087  1.00  0.00    -0.040 SA
BRANCH  21  23
HETATM   23  N3  UNK     1      11.889  10.694  32.267  1.00  0.00    -0.375 N 
HETATM   24  H14 UNK     1      10.921  10.932  32.081  1.00  0.00     0.158 HD
HETATM   25  H15 UNK     1      12.174   9.737  32.084  1.00  0.00     0.158 HD
ENDBRANCH  21  23
ENDBRANCH  19  21
ENDBRANCH   4  19
TORSDOF 3
ENDMDL
MODEL 3
REMARK VINA RESULT:      -7.5     34.912     36.224
REMARK  3 active torsions:
REMARK  status: ('A' for Active; 'I' for Inactive)
REMARK    1  A    between atoms: N1_5  and  N2_6 
REMARK    2  A    between atoms: C15_22  and  N2_6 
REMARK    3  A    between atoms: C15_22  and  N3_7 
ROOT
HETATM    1  O1  UNK     1      28.590  -9.785  37.821  1.00  0.00    -0.334 OA
HETATM    2  O2  UNK     1      30.133  -5.219  37.358  1.00  0.00    -0.274 OA
HETATM    3  O3  UNK     1      30.918  -3.081  37.123  1.00  0.00    -0.260 OA
HETATM    4  N1  UNK     1      25.721  -7.440  38.093  1.00  0.00    -0.178 NA
HETATM    5  C1  UNK     1      27.261  -9.387  38.169  1.00  0.00     0.103 C 
HETATM    6  C2  UNK     1      26.893  -7.932  37.852  1.00  0.00     0.071 C 
HETATM    7  C3  UNK     1      27.928  -7.057  37.207  1.00  0.00     0.104 C 
HETATM    8  C4  UNK     1      29.303  -7.476  37.616  1.00  0.00     0.016 A 
HETATM    9  C5  UNK     1      29.559  -8.822  37.885  1.00  0.00     0.079 A 
HETATM   10  C6  UNK     1      26.337 -10.314  37.368  1.00  0.00     0.053 C 
HETATM   11  C7  UNK     1      27.086  -9.649  39.671  1.00  0.00     0.053 C 
HETATM   12  C8  UNK     1      30.380  -6.580  37.656  1.00  0.00     0.099 A 
HETATM   13  C9  UNK     1      31.674  -6.994  37.968  1.00  0.00    -0.001 A 
HETATM   14  C10 UNK     1      30.854  -9.258  38.178  1.00  0.00     0.038 A 
HETATM   15  C11 UNK     1      31.909  -8.344  38.229  1.00  0.00     0.017 A 
HETATM   16  C12 UNK     1      32.744  -6.011  37.999  1.00  0.00     0.020 A 
HETATM   17  C13 UNK     1      32.492  -4.728  37.723  1.00  0.00     0.083 A 
HETATM   18  C14 UNK     1      31.139  -4.259  37.379  1.00  0.00     0.288 A 
ENDROOT
BRANCH   4  19
HETATM   19  N2  UNK     1      24.876  -8.320  38.674  1.00  0.00    -0.254 N 
HETATM   20  H13 UNK     1      25.174  -9.105  39.213  1.00  0.00     0.191 HD
BRANCH  19  21
HETATM   21  C15 UNK     1      23.516  -8.179  38.549  1.00  0.00     0.185 C 
HETATM   22  S1  UNK     1      22.636  -7.223  39.602  1.00  0.00    -0.040 SA
BRANCH  21  23
HETATM   23  N3  UNK     1      22.914  -8.855  37.524  1.00  0.00    -0.375 N 
HETATM   24  H14 UNK     1      21.957  -9.184  37.596  1.00  0.00     0.158 HD
HETATM   25  H15 UNK     1      23.406  -9.051  36.657  1.00  0.00     0.158 HD
ENDBRANCH  21  23
ENDBRANCH  19  21
ENDBRANCH   4  19
TORSDOF 3
ENDMDL
MODEL 4
REMARK VINA RESULT:      -7.5     36.528     37.377
REMARK  3 active torsions:
REMARK  status: ('A' for Active; 'I' for Inactive)
REMARK    1  A    between atoms: N1_5  and  N2_6 
REMARK    2  A    between atoms: C15_22  and  N2_6 
REMARK    3  A    between atoms: C15_22  and  N3_7 
ROOT
HETATM    1  O1  UNK     1      32.320  -4.734  36.867  1.00  0.00    -0.334 OA
HETATM    2  O2  UNK     1      29.097  -8.301  37.432  1.00  0.00    -0.274 OA
HETATM    3  O3  UNK     1      27.530  -9.947  37.718  1.00  0.00    -0.260 OA
HETATM    4  N1  UNK     1      33.677  -7.904  35.484  1.00  0.00    -0.178 NA
HETATM    5  C1  UNK     1      33.341  -5.620  36.399  1.00  0.00     0.103 C 
HETATM    6  C2  UNK     1      32.868  -7.007  35.949  1.00  0.00     0.071 C 
HETATM    7  C3  UNK     1      31.403  -7.323  36.023  1.00  0.00     0.104 C 
HETATM    8  C4  UNK     1      30.756  -6.567  37.139  1.00  0.00     0.016 A 
HETATM    9  C5  UNK     1      31.243  -5.306  37.487  1.00  0.00     0.079 A 
HETATM   10  C6  UNK     1      33.980  -4.905  35.201  1.00  0.00     0.053 C 
HETATM   11  C7  UNK     1      34.370  -5.764  37.528  1.00  0.00     0.053 C 
HETATM   12  C8  UNK     1      29.612  -7.036  37.799  1.00  0.00     0.099 A 
HETATM   13  C9  UNK     1      28.972  -6.291  38.788  1.00  0.00    -0.001 A 
HETATM   14  C10 UNK     1      30.602  -4.536  38.461  1.00  0.00     0.038 A 
HETATM   15  C11 UNK     1      29.474  -5.031  39.118  1.00  0.00     0.017 A 
HETATM   16  C12 UNK     1      27.794  -6.840  39.439  1.00  0.00     0.020 A 
HETATM   17  C13 UNK     1      27.326  -8.041  39.086  1.00  0.00     0.083 A 
HETATM   18  C14 UNK     1      27.971  -8.849  38.037  1.00  0.00     0.288 A 
ENDROOT
BRANCH   4  19
HETATM   19  N2  UNK     1      34.968  -7.506  35.466  1.00  0.00    -0.254 N 
HETATM   20  H13 UNK     1      35.379  -6.914  36.157  1.00  0.00     0.191 HD
BRANCH  19  21
HETATM   21  C15 UNK     1      35.815  -7.907  34.462  1.00  0.00     0.185 C 
HETATM   22  S1  UNK     1      35.334  -7.910  32.861  1.00  0.00    -0.040 SA
BRANCH  21  23
HETATM   23  N3  UNK     1      37.071  -8.305  34.832  1.00  0.00    -0.375 N 
HETATM   24  H14 UNK     1      37.351  -8.335  35.807  1.00  0.00     0.158 HD
HETATM   25  H15 UNK     1      37.764  -8.581  34.143  1.00  0.00     0.158 HD
ENDBRANCH  21  23
ENDBRANCH  19  21
ENDBRANCH   4  19
TORSDOF 3
ENDMDL
MODEL 5
REMARK VINA RESULT:      -7.4     27.981     29.548
REMARK  3 active torsions:
REMARK  status: ('A' for Active; 'I' for Inactive)
REMARK    1  A    between atoms: N1_5  and  N2_6 
REMARK    2  A    between atoms: C15_22  and  N2_6 
REMARK    3  A    between atoms: C15_22  and  N3_7 
ROOT
HETATM    1  O1  UNK     1      19.658  -3.479  37.746  1.00  0.00    -0.334 OA
HETATM    2  O2  UNK     1      19.003  -0.526  33.967  1.00  0.00    -0.274 OA
HETATM    3  O3  UNK     1      18.688   0.919  32.218  1.00  0.00    -0.260 OA
HETATM    4  N1  UNK     1      20.281  -5.314  34.576  1.00  0.00    -0.178 NA
HETATM    5  C1  UNK     1      19.815  -4.636  36.920  1.00  0.00     0.103 C 
HETATM    6  C2  UNK     1      20.097  -4.365  35.437  1.00  0.00     0.071 C 
HETATM    7  C3  UNK     1      20.192  -2.941  34.975  1.00  0.00     0.104 C 
HETATM    8  C4  UNK     1      19.326  -2.055  35.811  1.00  0.00     0.016 A 
HETATM    9  C5  UNK     1      19.121  -2.368  37.157  1.00  0.00     0.079 A 
HETATM   10  C6  UNK     1      21.005  -5.400  37.515  1.00  0.00     0.053 C 
HETATM   11  C7  UNK     1      18.536  -5.473  37.060  1.00  0.00     0.053 C 
HETATM   12  C8  UNK     1      18.776  -0.863  35.322  1.00  0.00     0.099 A 
HETATM   13  C9  UNK     1      18.030  -0.006  36.130  1.00  0.00    -0.001 A 
HETATM   14  C10 UNK     1      18.394  -1.510  37.987  1.00  0.00     0.038 A 
HETATM   15  C11 UNK     1      17.841  -0.336  37.473  1.00  0.00     0.017 A 
HETATM   16  C12 UNK     1      17.482   1.211  35.556  1.00  0.00     0.020 A 
HETATM   17  C13 UNK     1      17.698   1.510  34.272  1.00  0.00     0.083 A 
HETATM   18  C14 UNK     1      18.491   0.633  33.394  1.00  0.00     0.288 A 
ENDROOT
BRANCH   4  19
HETATM   19  N2  UNK     1      20.170  -6.552  35.108  1.00  0.00    -0.254 N 
HETATM   20  H13 UNK     1      19.655  -6.758  35.938  1.00  0.00     0.191 HD
BRANCH  19  21
HETATM   21  C15 UNK     1      20.783  -7.629  34.517  1.00  0.00     0.185 C 
HETATM   22  S1  UNK     1      21.289  -8.947  35.412  1.00  0.00    -0.040 SA
BRANCH  21  23
HETATM   23  N3  UNK     1      20.959  -7.576  33.161  1.00  0.00    -0.375 N 
HETATM   24  H14 UNK     1      20.189  -7.737  32.520  1.00  0.00     0.158 HD
HETATM   25  H15 UNK     1      21.866  -7.373  32.752  1.00  0.00     0.158 HD
ENDBRANCH  21  23
ENDBRANCH  19  21
ENDBRANCH   4  19
TORSDOF 3
ENDMDL
MODEL 6
REMARK VINA RESULT:      -7.4      4.097      7.565
REMARK  3 active torsions:
REMARK  status: ('A' for Active; 'I' for Inactive)
REMARK    1  A    between atoms: N1_5  and  N2_6 
REMARK    2  A    between atoms: C15_22  and  N2_6 
REMARK    3  A    between atoms: C15_22  and  N3_7 
ROOT
HETATM    1  O1  UNK     1       6.978   7.314   8.957  1.00  0.00    -0.334 OA
HETATM    2  O2  UNK     1       6.468   4.679  12.987  1.00  0.00    -0.274 OA
HETATM    3  O3  UNK     1       6.169   3.454  14.898  1.00  0.00    -0.260 OA
HETATM    4  N1  UNK     1       9.915   5.081   9.397  1.00  0.00    -0.178 NA
HETATM    5  C1  UNK     1       8.318   6.863   8.734  1.00  0.00     0.103 C 
HETATM    6  C2  UNK     1       8.741   5.613   9.514  1.00  0.00     0.071 C 
HETATM    7  C3  UNK     1       7.741   4.964  10.425  1.00  0.00     0.104 C 
HETATM    8  C4  UNK     1       6.791   5.979  10.974  1.00  0.00     0.016 A 
HETATM    9  C5  UNK     1       6.451   7.090  10.199  1.00  0.00     0.079 A 
HETATM   10  C6  UNK     1       8.398   6.558   7.233  1.00  0.00     0.053 C 
HETATM   11  C7  UNK     1       9.253   8.030   9.079  1.00  0.00     0.053 C 
HETATM   12  C8  UNK     1       6.149   5.817  12.209  1.00  0.00     0.099 A 
HETATM   13  C9  UNK     1       5.209   6.733  12.680  1.00  0.00    -0.001 A 
HETATM   14  C10 UNK     1       5.494   8.007  10.645  1.00  0.00     0.038 A 
HETATM   15  C11 UNK     1       4.882   7.834  11.888  1.00  0.00     0.017 A 
HETATM   16  C12 UNK     1       4.587   6.508  13.974  1.00  0.00     0.020 A 
HETATM   17  C13 UNK     1       4.906   5.433  14.699  1.00  0.00     0.083 A 
HETATM   18  C14 UNK     1       5.887   4.440  14.227  1.00  0.00     0.288 A 
ENDROOT
BRANCH   4  19
HETATM   19  N2  UNK     1      10.728   5.752   8.551  1.00  0.00    -0.254 N 
HETATM   20  H13 UNK     1      10.454   6.568   8.044  1.00  0.00     0.191 HD
BRANCH  19  21
HETATM   21  C15 UNK     1      12.017   5.334   8.333  1.00  0.00     0.185 C 
HETATM   22  S1  UNK     1      13.161   6.344   7.651  1.00  0.00    -0.040 SA
BRANCH  21  23
HETATM   23  N3  UNK     1      12.324   4.051   8.700  1.00  0.00    -0.375 N 
HETATM   24  H14 UNK     1      12.024   3.256   8.145  1.00  0.00     0.158 HD
HETATM   25  H15 UNK     1      12.860   3.854   9.539  1.00  0.00     0.158 HD
ENDBRANCH  21  23
ENDBRANCH  19  21
ENDBRANCH   4  19
TORSDOF 3
ENDMDL
MODEL 7
REMARK VINA RESULT:      -7.4     33.427     35.215
REMARK  3 active torsions:
REMARK  status: ('A' for Active; 'I' for Inactive)
REMARK    1  A    between atoms: N1_5  and  N2_6 
REMARK    2  A    between atoms: C15_22  and  N2_6 
REMARK    3  A    between atoms: C15_22  and  N3_7 
ROOT
HETATM    1  O1  UNK     1      27.063 -10.490  37.442  1.00  0.00    -0.334 OA
HETATM    2  O2  UNK     1      22.748  -8.386  36.809  1.00  0.00    -0.274 OA
HETATM    3  O3  UNK     1      20.682  -7.448  36.507  1.00  0.00    -0.260 OA
HETATM    4  N1  UNK     1      27.364  -6.813  37.880  1.00  0.00    -0.178 NA
HETATM    5  C1  UNK     1      27.753  -9.239  37.519  1.00  0.00     0.103 C 
HETATM    6  C2  UNK     1      26.876  -8.006  37.767  1.00  0.00     0.071 C 
HETATM    7  C3  UNK     1      25.395  -8.198  37.915  1.00  0.00     0.104 C 
HETATM    8  C4  UNK     1      24.933  -9.375  37.117  1.00  0.00     0.016 A 
HETATM    9  C5  UNK     1      25.791 -10.463  36.940  1.00  0.00     0.079 A 
HETATM   10  C6  UNK     1      28.733  -9.389  38.691  1.00  0.00     0.053 C 
HETATM   11  C7  UNK     1      28.530  -9.067  36.208  1.00  0.00     0.053 C 
HETATM   12  C8  UNK     1      23.631  -9.474  36.609  1.00  0.00     0.099 A 
HETATM   13  C9  UNK     1      23.187 -10.607  35.929  1.00  0.00    -0.001 A 
HETATM   14  C10 UNK     1      25.355 -11.616  36.280  1.00  0.00     0.038 A 
HETATM   15  C11 UNK     1      24.059 -11.684  35.767  1.00  0.00     0.017 A 
HETATM   16  C12 UNK     1      21.826 -10.640  35.421  1.00  0.00     0.020 A 
HETATM   17  C13 UNK     1      21.008  -9.601  35.611  1.00  0.00     0.083 A 
HETATM   18  C14 UNK     1      21.441  -8.394  36.334  1.00  0.00     0.288 A 
ENDROOT
BRANCH   4  19
HETATM   19  N2  UNK     1      28.707  -6.764  37.728  1.00  0.00    -0.254 N 
HETATM   20  H13 UNK     1      29.297  -7.569  37.730  1.00  0.00     0.191 HD
BRANCH  19  21
HETATM   21  C15 UNK     1      29.353  -5.565  37.559  1.00  0.00     0.185 C 
HETATM   22  S1  UNK     1      29.545  -4.489  38.824  1.00  0.00    -0.040 SA
BRANCH  21  23
HETATM   23  N3  UNK     1      29.834  -5.291  36.308  1.00  0.00    -0.375 N 
HETATM   24  H14 UNK     1      30.805  -5.458  36.066  1.00  0.00     0.158 HD
HETATM   25  H15 UNK     1      29.236  -4.910  35.582  1.00  0.00     0.158 HD
ENDBRANCH  21  23
ENDBRANCH  19  21
ENDBRANCH   4  19
TORSDOF 3
ENDMDL
MODEL 8
REMARK VINA RESULT:      -7.2     31.928     33.886
REMARK  3 active torsions:
REMARK  status: ('A' for Active; 'I' for Inactive)
REMARK    1  A    between atoms: N1_5  and  N2_6 
REMARK    2  A    between atoms: C15_22  and  N2_6 
REMARK    3  A    between atoms: C15_22  and  N3_7 
ROOT
HETATM    1  O1  UNK     1      30.020  -6.112  33.232  1.00  0.00    -0.334 OA
HETATM    2  O2  UNK     1      30.659  -8.865  29.302  1.00  0.00    -0.274 OA
HETATM    3  O3  UNK     1      30.903 -10.152  27.423  1.00  0.00    -0.260 OA
HETATM    4  N1  UNK     1      33.550  -7.257  33.041  1.00  0.00    -0.178 NA
HETATM    5  C1  UNK     1      31.331  -6.386  33.737  1.00  0.00     0.103 C 
HETATM    6  C2  UNK     1      32.325  -6.979  32.731  1.00  0.00     0.071 C 
HETATM    7  C3  UNK     1      31.863  -7.214  31.323  1.00  0.00     0.104 C 
HETATM    8  C4  UNK     1      30.399  -7.515  31.291  1.00  0.00     0.016 A 
HETATM    9  C5  UNK     1      29.558  -6.932  32.240  1.00  0.00     0.079 A 
HETATM   10  C6  UNK     1      31.869  -5.033  34.222  1.00  0.00     0.053 C 
HETATM   11  C7  UNK     1      31.169  -7.339  34.929  1.00  0.00     0.053 C 
HETATM   12  C8  UNK     1      29.815  -8.294  30.283  1.00  0.00     0.099 A 
HETATM   13  C9  UNK     1      28.439  -8.508  30.219  1.00  0.00    -0.001 A 
HETATM   14  C10 UNK     1      28.174  -7.119  32.179  1.00  0.00     0.038 A 
HETATM   15  C11 UNK     1      27.616  -7.914  31.176  1.00  0.00     0.017 A 
HETATM   16  C12 UNK     1      27.899  -9.334  29.151  1.00  0.00     0.020 A 
HETATM   17  C13 UNK     1      28.711  -9.873  28.238  1.00  0.00     0.083 A 
HETATM   18  C14 UNK     1      30.168  -9.657  28.269  1.00  0.00     0.288 A 
ENDROOT
BRANCH   4  19
HETATM   19  N2  UNK     1      33.848  -7.004  34.335  1.00  0.00    -0.254 N 
HETATM   20  H13 UNK     1      33.210  -6.596  34.985  1.00  0.00     0.191 HD
BRANCH  19  21
HETATM   21  C15 UNK     1      35.089  -7.302  34.843  1.00  0.00     0.185 C 
HETATM   22  S1  UNK     1      36.425  -7.460  33.851  1.00  0.00    -0.040 SA
BRANCH  21  23
HETATM   23  N3  UNK     1      35.182  -7.463  36.199  1.00  0.00    -0.375 N 
HETATM   24  H14 UNK     1      34.618  -8.149  36.690  1.00  0.00     0.158 HD
HETATM   25  H15 UNK     1      35.817  -6.901  36.757  1.00  0.00     0.158 HD
ENDBRANCH  21  23
ENDBRANCH  19  21
ENDBRANCH   4  19
TORSDOF 3
ENDMDL
MODEL 9
REMARK VINA RESULT:      -7.1     22.720     24.231
REMARK  3 active torsions:
REMARK  status: ('A' for Active; 'I' for Inactive)
REMARK    1  A    between atoms: N1_5  and  N2_6 
REMARK    2  A    between atoms: C15_22  and  N2_6 
REMARK    3  A    between atoms: C15_22  and  N3_7 
ROOT
HETATM    1  O1  UNK     1      18.703   7.342  31.832  1.00  0.00    -0.334 OA
HETATM    2  O2  UNK     1      18.130   2.673  32.974  1.00  0.00    -0.274 OA
HETATM    3  O3  UNK     1      17.904   0.450  33.475  1.00  0.00    -0.260 OA
HETATM    4  N1  UNK     1      16.384   7.014  34.717  1.00  0.00    -0.178 NA
HETATM    5  C1  UNK     1      17.691   7.775  32.746  1.00  0.00     0.103 C 
HETATM    6  C2  UNK     1      17.272   6.755  33.812  1.00  0.00     0.071 C 
HETATM    7  C3  UNK     1      17.945   5.413  33.822  1.00  0.00     0.104 C 
HETATM    8  C4  UNK     1      18.359   5.020  32.441  1.00  0.00     0.016 A 
HETATM    9  C5  UNK     1      18.730   6.009  31.528  1.00  0.00     0.079 A 
HETATM   10  C6  UNK     1      18.279   9.006  33.448  1.00  0.00     0.053 C 
HETATM   11  C7  UNK     1      16.470   8.184  31.912  1.00  0.00     0.053 C 
HETATM   12  C8  UNK     1      18.478   3.681  32.045  1.00  0.00     0.099 A 
HETATM   13  C9  UNK     1      18.936   3.323  30.778  1.00  0.00    -0.001 A 
HETATM   14  C10 UNK     1      19.212   5.667  30.261  1.00  0.00     0.038 A 
HETATM   15  C11 UNK     1      19.305   4.327  29.882  1.00  0.00     0.017 A 
HETATM   16  C12 UNK     1      19.028   1.914  30.430  1.00  0.00     0.020 A 
HETATM   17  C13 UNK     1      18.686   0.976  31.317  1.00  0.00     0.083 A 
HETATM   18  C14 UNK     1      18.210   1.319  32.667  1.00  0.00     0.288 A 
ENDROOT
BRANCH   4  19
HETATM   19  N2  UNK     1      15.849   8.251  34.606  1.00  0.00    -0.254 N 
HETATM   20  H13 UNK     1      16.345   9.093  34.807  1.00  0.00     0.191 HD
BRANCH  19  21
HETATM   21  C15 UNK     1      14.549   8.421  34.198  1.00  0.00     0.185 C 
HETATM   22  S1  UNK     1      13.935   9.935  33.844  1.00  0.00    -0.040 SA
BRANCH  21  23
HETATM   23  N3  UNK     1      13.779   7.294  34.094  1.00  0.00    -0.375 N 
HETATM   24  H14 UNK     1      13.610   6.694  34.894  1.00  0.00     0.158 HD
HETATM   25  H15 UNK     1      13.353   7.023  33.214  1.00  0.00     0.158 HD
ENDBRANCH  21  23
ENDBRANCH  19  21
ENDBRANCH   4  19
TORSDOF 3
ENDMDL
MODEL 10
REMARK VINA RESULT:      -7.0     23.700     25.011
REMARK  3 active torsions:
REMARK  status: ('A' for Active; 'I' for Inactive)
REMARK    1  A    between atoms: N1_5  and  N2_6 
REMARK    2  A    between atoms: C15_22  and  N2_6 
REMARK    3  A    between atoms: C15_22  and  N3_7 
ROOT
HETATM    1  O1  UNK     1      19.687   7.857  33.102  1.00  0.00    -0.334 OA
HETATM    2  O2  UNK     1      15.158   9.565  33.005  1.00  0.00    -0.274 OA
HETATM    3  O3  UNK     1      13.039  10.431  32.963  1.00  0.00    -0.260 OA
HETATM    4  N1  UNK     1      17.306   5.105  32.351  1.00  0.00    -0.178 NA
HETATM    5  C1  UNK     1      19.263   6.495  32.988  1.00  0.00     0.103 C 
HETATM    6  C2  UNK     1      17.819   6.281  32.519  1.00  0.00     0.071 C 
HETATM    7  C3  UNK     1      16.980   7.487  32.213  1.00  0.00     0.104 C 
HETATM    8  C4  UNK     1      17.395   8.648  33.059  1.00  0.00     0.016 A 
HETATM    9  C5  UNK     1      18.732   8.774  33.442  1.00  0.00     0.079 A 
HETATM   10  C6  UNK     1      20.213   5.860  31.964  1.00  0.00     0.053 C 
HETATM   11  C7  UNK     1      19.465   5.841  34.361  1.00  0.00     0.053 C 
HETATM   12  C8  UNK     1      16.508   9.674  33.413  1.00  0.00     0.099 A 
HETATM   13  C9  UNK     1      16.922  10.789  34.141  1.00  0.00    -0.001 A 
HETATM   14  C10 UNK     1      19.168   9.896  34.152  1.00  0.00     0.038 A 
HETATM   15  C11 UNK     1      18.263  10.897  34.510  1.00  0.00     0.017 A 
HETATM   16  C12 UNK     1      15.948  11.813  34.482  1.00  0.00     0.020 A 
HETATM   17  C13 UNK     1      14.675  11.690  34.095  1.00  0.00     0.083 A 
HETATM   18  C14 UNK     1      14.208  10.531  33.317  1.00  0.00     0.288 A 
ENDROOT
BRANCH   4  19
HETATM   19  N2  UNK     1      18.155   4.099  32.659  1.00  0.00    -0.254 N 
HETATM   20  H13 UNK     1      18.849   4.155  33.375  1.00  0.00     0.191 HD
BRANCH  19  21
HETATM   21  C15 UNK     1      18.110   2.907  31.979  1.00  0.00     0.185 C 
HETATM   22  S1  UNK     1      18.304   2.838  30.320  1.00  0.00    -0.040 SA
BRANCH  21  23
HETATM   23  N3  UNK     1      17.898   1.777  32.723  1.00  0.00    -0.375 N 
HETATM   24  H14 UNK     1      17.328   1.014  32.374  1.00  0.00     0.158 HD
HETATM   25  H15 UNK     1      18.304   1.668  33.646  1.00  0.00     0.158 HD
ENDBRANCH  21  23
ENDBRANCH  19  21
ENDBRANCH   4  19
TORSDOF 3
ENDMDL
