MODEL 1
REMARK VINA RESULT:      -8.2      0.000      0.000
REMARK  5 active torsions:
REMARK  status: ('A' for Active; 'I' for Inactive)
REMARK    1  A    between atoms: C16_23  and  O5_5 
REMARK    2  A    between atoms: C20_27  and  O6_6 
REMARK    3  A    between atoms: C21_28  and  O7_7 
REMARK    4  A    between atoms: C3_10  and  C9_16 
REMARK    5  A    between atoms: C16_23  and  C9_16 
ROOT
HETATM    1  O1  UNK     1      12.013   5.934   9.344  1.00  0.00    -0.341 OA
HETATM    2  O2  UNK     1      14.529   9.707   8.251  1.00  0.00    -0.310 OA
HETATM    3  O3  UNK     1      16.855  12.299   7.198  1.00  0.00    -0.344 OA
HETATM    4  O4  UNK     1      17.815   8.299  10.193  1.00  0.00    -0.286 OA
HETATM    5  C1  UNK     1      12.046   8.045   8.146  1.00  0.00     0.081 C 
HETATM    6  C2  UNK     1      13.314   7.775   8.863  1.00  0.00     0.013 A 
HETATM    7  C3  UNK     1      11.158   6.972   8.796  1.00  0.00     0.163 C 
HETATM    8  C4  UNK     1      14.483   8.514   8.911  1.00  0.00     0.099 A 
HETATM    9  C5  UNK     1      13.229   6.548   9.500  1.00  0.00     0.079 A 
HETATM   10  C6  UNK     1      15.566   7.995   9.619  1.00  0.00     0.050 A 
HETATM   11  C7  UNK     1      16.789  10.117   9.026  1.00  0.00     0.060 A 
HETATM   12  C8  UNK     1      15.676  10.471   8.359  1.00  0.00     0.093 A 
HETATM   13  C10 UNK     1      16.818   8.773   9.667  1.00  0.00     0.198 A 
HETATM   14  C11 UNK     1      14.292   6.008  10.198  1.00  0.00     0.038 A 
HETATM   15  C12 UNK     1      15.475   6.746  10.261  1.00  0.00     0.021 A 
HETATM   16  C13 UNK     1      17.890  11.098   9.043  1.00  0.00     0.017 A 
HETATM   17  C14 UNK     1      15.591  11.781   7.631  1.00  0.00     0.241 C 
HETATM   18  C15 UNK     1      17.871  12.145   8.107  1.00  0.00     0.083 A 
HETATM   19  C17 UNK     1      18.964  11.045   9.942  1.00  0.00     0.055 A 
HETATM   20  C18 UNK     1      18.915  13.070   8.028  1.00  0.00     0.077 A 
HETATM   21  C20 UNK     1      20.001  11.982   9.880  1.00  0.00     0.102 A 
HETATM   22  C21 UNK     1      19.981  12.988   8.918  1.00  0.00     0.104 A 
ENDROOT
BRANCH   7  23
HETATM   23  C9  UNK     1      10.194   6.356   7.837  1.00  0.00    -0.037 C 
HETATM   24  C19 UNK     1      10.484   6.231   6.533  1.00  0.00     0.019 C 
BRANCH  23  25
HETATM   25  C16 UNK     1       8.898   5.858   8.407  1.00  0.00     0.200 C 
BRANCH  25  26
HETATM   26  O5  UNK     1       8.999   5.779   9.822  1.00  0.00    -0.397 OA
HETATM   27  H14 UNK     1       8.619   4.928  10.099  1.00  0.00     0.209 HD
ENDBRANCH  25  26
ENDBRANCH  23  25
ENDBRANCH   7  23
BRANCH  21  28
HETATM   28  O6  UNK     1      21.030  11.896  10.769  1.00  0.00    -0.353 OA
HETATM   29  C22 UNK     1      20.855  12.543  12.027  1.00  0.00     0.210 C 
ENDBRANCH  21  28
BRANCH  22  30
HETATM   30  O7  UNK     1      20.991  13.898   8.845  1.00  0.00    -0.353 OA
HETATM   31  C23 UNK     1      21.878  13.795   7.732  1.00  0.00     0.210 C 
ENDBRANCH  22  30
TORSDOF 5
ENDMDL
MODEL 2
REMARK VINA RESULT:      -8.1     25.884     28.564
REMARK  5 active torsions:
REMARK  status: ('A' for Active; 'I' for Inactive)
REMARK    1  A    between atoms: C16_23  and  O5_5 
REMARK    2  A    between atoms: C20_27  and  O6_6 
REMARK    3  A    between atoms: C21_28  and  O7_7 
REMARK    4  A    between atoms: C3_10  and  C9_16 
REMARK    5  A    between atoms: C16_23  and  C9_16 
ROOT
HETATM    1  O1  UNK     1      18.967   2.159  30.346  1.00  0.00    -0.341 OA
HETATM    2  O2  UNK     1      18.947  -0.229  34.354  1.00  0.00    -0.310 OA
HETATM    3  O3  UNK     1      19.470  -2.126  37.413  1.00  0.00    -0.344 OA
HETATM    4  O4  UNK     1      20.956  -3.360  32.706  1.00  0.00    -0.286 OA
HETATM    5  C1  UNK     1      18.347   2.184  32.693  1.00  0.00     0.081 C 
HETATM    6  C2  UNK     1      18.979   0.909  32.283  1.00  0.00     0.013 A 
HETATM    7  C3  UNK     1      18.075   2.786  31.305  1.00  0.00     0.163 C 
HETATM    8  C4  UNK     1      19.288  -0.213  33.033  1.00  0.00     0.099 A 
HETATM    9  C5  UNK     1      19.326   0.978  30.943  1.00  0.00     0.079 A 
HETATM   10  C6  UNK     1      19.949  -1.268  32.406  1.00  0.00     0.050 A 
HETATM   11  C7  UNK     1      19.802  -2.483  34.608  1.00  0.00     0.060 A 
HETATM   12  C8  UNK     1      19.197  -1.378  35.080  1.00  0.00     0.093 A 
HETATM   13  C10 UNK     1      20.288  -2.463  33.201  1.00  0.00     0.198 A 
HETATM   14  C11 UNK     1      19.991  -0.050  30.303  1.00  0.00     0.038 A 
HETATM   15  C12 UNK     1      20.302  -1.191  31.045  1.00  0.00     0.021 A 
HETATM   16  C13 UNK     1      19.941  -3.612  35.546  1.00  0.00     0.017 A 
HETATM   17  C14 UNK     1      18.737  -1.294  36.506  1.00  0.00     0.241 C 
HETATM   18  C15 UNK     1      19.777  -3.369  36.920  1.00  0.00     0.083 A 
HETATM   19  C17 UNK     1      20.232  -4.924  35.145  1.00  0.00     0.055 A 
HETATM   20  C18 UNK     1      19.958  -4.381  37.866  1.00  0.00     0.077 A 
HETATM   21  C20 UNK     1      20.393  -5.945  36.088  1.00  0.00     0.102 A 
HETATM   22  C21 UNK     1      20.265  -5.671  37.447  1.00  0.00     0.104 A 
ENDROOT
BRANCH   7  23
HETATM   23  C9  UNK     1      18.274   4.264  31.263  1.00  0.00    -0.037 C 
HETATM   24  C19 UNK     1      17.808   5.064  32.235  1.00  0.00     0.019 C 
BRANCH  23  25
HETATM   25  C16 UNK     1      19.044   4.811  30.095  1.00  0.00     0.200 C 
BRANCH  25  26
HETATM   26  O5  UNK     1      20.393   5.036  30.479  1.00  0.00    -0.397 OA
HETATM   27  H14 UNK     1      20.912   4.261  30.205  1.00  0.00     0.209 HD
ENDBRANCH  25  26
ENDBRANCH  23  25
ENDBRANCH   7  23
BRANCH  21  28
HETATM   28  O6  UNK     1      20.678  -7.207  35.661  1.00  0.00    -0.353 OA
HETATM   29  C22 UNK     1      20.595  -7.451  34.259  1.00  0.00     0.210 C 
ENDBRANCH  21  28
BRANCH  22  30
HETATM   30  O7  UNK     1      20.430  -6.658  38.371  1.00  0.00    -0.353 OA
HETATM   31  C23 UNK     1      21.689  -6.717  39.039  1.00  0.00     0.210 C 
ENDBRANCH  22  30
TORSDOF 5
ENDMDL
MODEL 3
REMARK VINA RESULT:      -7.9     34.704     36.586
REMARK  5 active torsions:
REMARK  status: ('A' for Active; 'I' for Inactive)
REMARK    1  A    between atoms: C16_23  and  O5_5 
REMARK    2  A    between atoms: C20_27  and  O6_6 
REMARK    3  A    between atoms: C21_28  and  O7_7 
REMARK    4  A    between atoms: C3_10  and  C9_16 
REMARK    5  A    between atoms: C16_23  and  C9_16 
ROOT
HETATM    1  O1  UNK     1      31.513  -6.712  38.199  1.00  0.00    -0.341 OA
HETATM    2  O2  UNK     1      27.558  -8.961  37.170  1.00  0.00    -0.310 OA
HETATM    3  O3  UNK     1      24.317 -10.250  36.134  1.00  0.00    -0.344 OA
HETATM    4  O4  UNK     1      25.259  -6.078  38.890  1.00  0.00    -0.286 OA
HETATM    5  C1  UNK     1      30.530  -8.641  37.101  1.00  0.00     0.081 C 
HETATM    6  C2  UNK     1      29.517  -7.773  37.745  1.00  0.00     0.013 A 
HETATM    7  C3  UNK     1      31.801  -8.059  37.740  1.00  0.00     0.163 C 
HETATM    8  C4  UNK     1      28.138  -7.884  37.774  1.00  0.00     0.099 A 
HETATM    9  C5  UNK     1      30.148  -6.685  38.328  1.00  0.00     0.079 A 
HETATM   10  C6  UNK     1      27.405  -6.882  38.406  1.00  0.00     0.050 A 
HETATM   11  C7  UNK     1      25.350  -8.234  37.858  1.00  0.00     0.060 A 
HETATM   12  C8  UNK     1      26.186  -9.102  37.260  1.00  0.00     0.093 A 
HETATM   13  C10 UNK     1      25.935  -6.991  38.433  1.00  0.00     0.198 A 
HETATM   14  C11 UNK     1      29.443  -5.673  38.949  1.00  0.00     0.038 A 
HETATM   15  C12 UNK     1      28.051  -5.777  38.992  1.00  0.00     0.021 A 
HETATM   16  C13 UNK     1      23.920  -8.594  37.870  1.00  0.00     0.017 A 
HETATM   17  C14 UNK     1      25.669 -10.347  36.600  1.00  0.00     0.241 C 
HETATM   18  C15 UNK     1      23.471  -9.589  36.986  1.00  0.00     0.083 A 
HETATM   19  C17 UNK     1      22.976  -7.995  38.716  1.00  0.00     0.055 A 
HETATM   20  C18 UNK     1      22.119  -9.932  36.903  1.00  0.00     0.077 A 
HETATM   21  C20 UNK     1      21.625  -8.351  38.650  1.00  0.00     0.102 A 
HETATM   22  C21 UNK     1      21.195  -9.311  37.738  1.00  0.00     0.104 A 
ENDROOT
BRANCH   7  23
HETATM   23  C9  UNK     1      32.958  -8.018  36.799  1.00  0.00    -0.037 C 
HETATM   24  C19 UNK     1      33.041  -8.850  35.750  1.00  0.00     0.019 C 
BRANCH  23  25
HETATM   25  C16 UNK     1      34.012  -6.982  37.067  1.00  0.00     0.200 C 
BRANCH  25  26
HETATM   26  O5  UNK     1      34.508  -7.139  38.390  1.00  0.00    -0.397 OA
HETATM   27  H14 UNK     1      34.514  -6.263  38.809  1.00  0.00     0.209 HD
ENDBRANCH  25  26
ENDBRANCH  23  25
ENDBRANCH   7  23
BRANCH  21  28
HETATM   28  O6  UNK     1      20.735  -7.745  39.485  1.00  0.00    -0.353 OA
HETATM   29  C22 UNK     1      20.289  -6.441  39.121  1.00  0.00     0.210 C 
ENDBRANCH  21  28
BRANCH  22  30
HETATM   30  O7  UNK     1      19.880  -9.656  37.662  1.00  0.00    -0.353 OA
HETATM   31  C23 UNK     1      19.480 -10.840  38.351  1.00  0.00     0.210 C 
ENDBRANCH  22  30
TORSDOF 5
ENDMDL
MODEL 4
REMARK VINA RESULT:      -7.8     33.313     35.170
REMARK  5 active torsions:
REMARK  status: ('A' for Active; 'I' for Inactive)
REMARK    1  A    between atoms: C16_23  and  O5_5 
REMARK    2  A    between atoms: C20_27  and  O6_6 
REMARK    3  A    between atoms: C21_28  and  O7_7 
REMARK    4  A    between atoms: C3_10  and  C9_16 
REMARK    5  A    between atoms: C16_23  and  C9_16 
ROOT
HETATM    1  O1  UNK     1      20.671 -10.069  36.630  1.00  0.00    -0.341 OA
HETATM    2  O2  UNK     1      24.520  -7.792  37.961  1.00  0.00    -0.310 OA
HETATM    3  O3  UNK     1      27.649  -6.008  38.471  1.00  0.00    -0.344 OA
HETATM    4  O4  UNK     1      26.958 -10.426  36.044  1.00  0.00    -0.286 OA
HETATM    5  C1  UNK     1      21.554  -8.135  37.803  1.00  0.00     0.081 C 
HETATM    6  C2  UNK     1      22.620  -9.012  37.265  1.00  0.00     0.013 A 
HETATM    7  C3  UNK     1      20.349  -9.076  37.639  1.00  0.00     0.163 C 
HETATM    8  C4  UNK     1      23.995  -8.867  37.304  1.00  0.00     0.099 A 
HETATM    9  C5  UNK     1      22.042 -10.077  36.591  1.00  0.00     0.079 A 
HETATM   10  C6  UNK     1      24.781  -9.819  36.656  1.00  0.00     0.050 A 
HETATM   11  C7  UNK     1      26.780  -8.541  37.506  1.00  0.00     0.060 A 
HETATM   12  C8  UNK     1      25.895  -7.690  38.055  1.00  0.00     0.093 A 
HETATM   13  C10 UNK     1      26.247  -9.666  36.688  1.00  0.00     0.198 A 
HETATM   14  C11 UNK     1      22.799 -11.026  35.932  1.00  0.00     0.038 A 
HETATM   15  C12 UNK     1      24.189 -10.896  35.970  1.00  0.00     0.021 A 
HETATM   16  C13 UNK     1      28.207  -8.265  37.756  1.00  0.00     0.017 A 
HETATM   17  C14 UNK     1      26.352  -6.495  38.839  1.00  0.00     0.241 C 
HETATM   18  C15 UNK     1      28.572  -6.991  38.221  1.00  0.00     0.083 A 
HETATM   19  C17 UNK     1      29.227  -9.205  37.553  1.00  0.00     0.055 A 
HETATM   20  C18 UNK     1      29.911  -6.644  38.417  1.00  0.00     0.077 A 
HETATM   21  C20 UNK     1      30.567  -8.868  37.768  1.00  0.00     0.102 A 
HETATM   22  C21 UNK     1      30.910  -7.586  38.191  1.00  0.00     0.104 A 
ENDROOT
BRANCH   7  23
HETATM   23  C9  UNK     1      19.102  -8.360  37.240  1.00  0.00    -0.037 C 
HETATM   24  C19 UNK     1      18.243  -8.887  36.354  1.00  0.00     0.019 C 
BRANCH  23  25
HETATM   25  C16 UNK     1      18.841  -7.036  37.898  1.00  0.00     0.200 C 
BRANCH  25  26
HETATM   26  O5  UNK     1      17.567  -6.550  37.500  1.00  0.00    -0.397 OA
HETATM   27  H14 UNK     1      17.632  -5.584  37.415  1.00  0.00     0.209 HD
ENDBRANCH  25  26
ENDBRANCH  23  25
ENDBRANCH   7  23
BRANCH  21  28
HETATM   28  O6  UNK     1      31.532  -9.806  37.557  1.00  0.00    -0.353 OA
HETATM   29  C22 UNK     1      31.753 -10.217  36.210  1.00  0.00     0.210 C 
ENDBRANCH  21  28
BRANCH  22  30
HETATM   30  O7  UNK     1      32.213  -7.248  38.394  1.00  0.00    -0.353 OA
HETATM   31  C23 UNK     1      32.606  -5.927  38.021  1.00  0.00     0.210 C 
ENDBRANCH  22  30
TORSDOF 5
ENDMDL
MODEL 5
REMARK VINA RESULT:      -7.7      1.569      2.095
REMARK  5 active torsions:
REMARK  status: ('A' for Active; 'I' for Inactive)
REMARK    1  A    between atoms: C16_23  and  O5_5 
REMARK    2  A    between atoms: C20_27  and  O6_6 
REMARK    3  A    between atoms: C21_28  and  O7_7 
REMARK    4  A    between atoms: C3_10  and  C9_16 
REMARK    5  A    between atoms: C16_23  and  C9_16 
ROOT
HETATM    1  O1  UNK     1      13.581   6.443   9.971  1.00  0.00    -0.341 OA
HETATM    2  O2  UNK     1      14.946  10.542   8.210  1.00  0.00    -0.310 OA
HETATM    3  O3  UNK     1      16.437  13.465   6.638  1.00  0.00    -0.344 OA
HETATM    4  O4  UNK     1      18.624  10.257   9.926  1.00  0.00    -0.286 OA
HETATM    5  C1  UNK     1      12.975   8.320   8.555  1.00  0.00     0.081 C 
HETATM    6  C2  UNK     1      14.322   8.468   9.155  1.00  0.00     0.013 A 
HETATM    7  C3  UNK     1      12.447   7.156   9.409  1.00  0.00     0.163 C 
HETATM    8  C4  UNK     1      15.261   9.472   8.997  1.00  0.00     0.099 A 
HETATM    9  C5  UNK     1      14.606   7.353   9.927  1.00  0.00     0.079 A 
HETATM   10  C6  UNK     1      16.492   9.335   9.635  1.00  0.00     0.050 A 
HETATM   11  C7  UNK     1      17.076  11.595   8.688  1.00  0.00     0.060 A 
HETATM   12  C8  UNK     1      15.862  11.572   8.110  1.00  0.00     0.093 A 
HETATM   13  C10 UNK     1      17.501  10.397   9.464  1.00  0.00     0.198 A 
HETATM   14  C11 UNK     1      15.822   7.189  10.560  1.00  0.00     0.038 A 
HETATM   15  C12 UNK     1      16.777   8.198  10.415  1.00  0.00     0.021 A 
HETATM   16  C13 UNK     1      17.885  12.811   8.479  1.00  0.00     0.017 A 
HETATM   17  C14 UNK     1      15.386  12.713   7.259  1.00  0.00     0.241 C 
HETATM   18  C15 UNK     1      17.524  13.688   7.443  1.00  0.00     0.083 A 
HETATM   19  C17 UNK     1      19.003  13.143   9.258  1.00  0.00     0.055 A 
HETATM   20  C18 UNK     1      18.285  14.823   7.152  1.00  0.00     0.077 A 
HETATM   21  C20 UNK     1      19.755  14.290   8.983  1.00  0.00     0.102 A 
HETATM   22  C21 UNK     1      19.401  15.124   7.925  1.00  0.00     0.104 A 
ENDROOT
BRANCH   7  23
HETATM   23  C9  UNK     1      11.605   6.200   8.633  1.00  0.00    -0.037 C 
HETATM   24  C19 UNK     1      10.269   6.317   8.590  1.00  0.00     0.019 C 
BRANCH  23  25
HETATM   25  C16 UNK     1      12.325   5.119   7.881  1.00  0.00     0.200 C 
BRANCH  25  26
HETATM   26  O5  UNK     1      12.209   3.891   8.587  1.00  0.00    -0.397 OA
HETATM   27  H14 UNK     1      12.858   3.272   8.212  1.00  0.00     0.209 HD
ENDBRANCH  25  26
ENDBRANCH  23  25
ENDBRANCH   7  23
BRANCH  21  28
HETATM   28  O6  UNK     1      20.836  14.580   9.759  1.00  0.00    -0.353 OA
HETATM   29  C22 UNK     1      21.964  13.714   9.648  1.00  0.00     0.210 C 
ENDBRANCH  21  28
BRANCH  22  30
HETATM   30  O7  UNK     1      20.134  16.237   7.646  1.00  0.00    -0.353 OA
HETATM   31  C23 UNK     1      21.057  16.151   6.561  1.00  0.00     0.210 C 
ENDBRANCH  22  30
TORSDOF 5
ENDMDL
MODEL 6
REMARK VINA RESULT:      -7.7     22.928     25.405
REMARK  5 active torsions:
REMARK  status: ('A' for Active; 'I' for Inactive)
REMARK    1  A    between atoms: C16_23  and  O5_5 
REMARK    2  A    between atoms: C20_27  and  O6_6 
REMARK    3  A    between atoms: C21_28  and  O7_7 
REMARK    4  A    between atoms: C3_10  and  C9_16 
REMARK    5  A    between atoms: C16_23  and  C9_16 
ROOT
HETATM    1  O1  UNK     1      19.526   5.827  32.916  1.00  0.00    -0.341 OA
HETATM    2  O2  UNK     1      16.012   8.896  32.949  1.00  0.00    -0.310 OA
HETATM    3  O3  UNK     1      13.614  11.622  32.716  1.00  0.00    -0.344 OA
HETATM    4  O4  UNK     1      18.309  11.780  34.670  1.00  0.00    -0.286 OA
HETATM    5  C1  UNK     1      17.218   6.241  32.286  1.00  0.00     0.081 C 
HETATM    6  C2  UNK     1      17.834   7.392  32.987  1.00  0.00     0.013 A 
HETATM    7  C3  UNK     1      18.273   5.167  32.594  1.00  0.00     0.163 C 
HETATM    8  C4  UNK     1      17.308   8.636  33.287  1.00  0.00     0.099 A 
HETATM    9  C5  UNK     1      19.152   7.092  33.292  1.00  0.00     0.079 A 
HETATM   10  C6  UNK     1      18.134   9.573  33.906  1.00  0.00     0.050 A 
HETATM   11  C7  UNK     1      16.135  11.107  33.934  1.00  0.00     0.060 A 
HETATM   12  C8  UNK     1      15.473  10.115  33.312  1.00  0.00     0.093 A 
HETATM   13  C10 UNK     1      17.582  10.904  34.221  1.00  0.00     0.198 A 
HETATM   14  C11 UNK     1      19.993   8.007  33.895  1.00  0.00     0.038 A 
HETATM   15  C12 UNK     1      19.473   9.265  34.209  1.00  0.00     0.021 A 
HETATM   16  C13 UNK     1      15.359  12.318  34.260  1.00  0.00     0.017 A 
HETATM   17  C14 UNK     1      14.029  10.267  32.930  1.00  0.00     0.241 C 
HETATM   18  C15 UNK     1      14.127  12.520  33.616  1.00  0.00     0.083 A 
HETATM   19  C17 UNK     1      15.782  13.288  35.180  1.00  0.00     0.055 A 
HETATM   20  C18 UNK     1      13.373  13.677  33.832  1.00  0.00     0.077 A 
HETATM   21  C20 UNK     1      15.020  14.437  35.415  1.00  0.00     0.102 A 
HETATM   22  C21 UNK     1      13.821  14.635  34.735  1.00  0.00     0.104 A 
ENDROOT
BRANCH   7  23
HETATM   23  C9  UNK     1      18.495   4.227  31.457  1.00  0.00    -0.037 C 
HETATM   24  C19 UNK     1      18.199   2.921  31.557  1.00  0.00     0.019 C 
BRANCH  23  25
HETATM   25  C16 UNK     1      19.038   4.816  30.187  1.00  0.00     0.200 C 
BRANCH  25  26
HETATM   26  O5  UNK     1      20.373   5.255  30.400  1.00  0.00    -0.397 OA
HETATM   27  H14 UNK     1      20.832   4.567  30.911  1.00  0.00     0.209 HD
ENDBRANCH  25  26
ENDBRANCH  23  25
ENDBRANCH   7  23
BRANCH  21  28
HETATM   28  O6  UNK     1      15.465  15.359  36.314  1.00  0.00    -0.353 OA
HETATM   29  C22 UNK     1      15.413  14.999  37.692  1.00  0.00     0.210 C 
ENDBRANCH  21  28
BRANCH  22  30
HETATM   30  O7  UNK     1      13.079  15.756  34.952  1.00  0.00    -0.353 OA
HETATM   31  C23 UNK     1      11.941  15.624  35.803  1.00  0.00     0.210 C 
ENDBRANCH  22  30
TORSDOF 5
ENDMDL
MODEL 7
REMARK VINA RESULT:      -7.5      1.677      9.303
REMARK  5 active torsions:
REMARK  status: ('A' for Active; 'I' for Inactive)
REMARK    1  A    between atoms: C16_23  and  O5_5 
REMARK    2  A    between atoms: C20_27  and  O6_6 
REMARK    3  A    between atoms: C21_28  and  O7_7 
REMARK    4  A    between atoms: C3_10  and  C9_16 
REMARK    5  A    between atoms: C16_23  and  C9_16 
ROOT
HETATM    1  O1  UNK     1      20.127  14.029   8.845  1.00  0.00    -0.341 OA
HETATM    2  O2  UNK     1      18.237   9.868   9.782  1.00  0.00    -0.310 OA
HETATM    3  O3  UNK     1      16.636   6.607   9.984  1.00  0.00    -0.344 OA
HETATM    4  O4  UNK     1      14.666  10.920   8.140  1.00  0.00    -0.286 OA
HETATM    5  C1  UNK     1      20.512  11.807   9.746  1.00  0.00     0.081 C 
HETATM    6  C2  UNK     1      19.116  12.006   9.292  1.00  0.00     0.013 A 
HETATM    7  C3  UNK     1      20.989  13.268   9.732  1.00  0.00     0.163 C 
HETATM    8  C4  UNK     1      18.051  11.122   9.277  1.00  0.00     0.099 A 
HETATM    9  C5  UNK     1      18.979  13.282   8.771  1.00  0.00     0.079 A 
HETATM   10  C6  UNK     1      16.842  11.549   8.730  1.00  0.00     0.050 A 
HETATM   11  C7  UNK     1      15.920   9.291   9.362  1.00  0.00     0.060 A 
HETATM   12  C8  UNK     1      17.152   9.013   9.825  1.00  0.00     0.093 A 
HETATM   13  C10 UNK     1      15.706  10.610   8.703  1.00  0.00     0.198 A 
HETATM   14  C11 UNK     1      17.795  13.725   8.214  1.00  0.00     0.038 A 
HETATM   15  C12 UNK     1      16.710  12.846   8.198  1.00  0.00     0.021 A 
HETATM   16  C13 UNK     1      14.895   8.245   9.538  1.00  0.00     0.017 A 
HETATM   17  C14 UNK     1      17.466   7.682  10.443  1.00  0.00     0.241 C 
HETATM   18  C15 UNK     1      15.314   6.937   9.832  1.00  0.00     0.083 A 
HETATM   19  C17 UNK     1      13.517   8.481   9.425  1.00  0.00     0.055 A 
HETATM   20  C18 UNK     1      14.398   5.888   9.948  1.00  0.00     0.077 A 
HETATM   21  C20 UNK     1      12.597   7.437   9.561  1.00  0.00     0.102 A 
HETATM   22  C21 UNK     1      13.037   6.140   9.813  1.00  0.00     0.104 A 
ENDROOT
BRANCH   7  23
HETATM   23  C9  UNK     1      22.404  13.414   9.281  1.00  0.00    -0.037 C 
HETATM   24  C19 UNK     1      23.433  13.126  10.093  1.00  0.00     0.019 C 
BRANCH  23  25
HETATM   25  C16 UNK     1      22.621  13.871   7.868  1.00  0.00     0.200 C 
BRANCH  25  26
HETATM   26  O5  UNK     1      22.401  12.785   6.977  1.00  0.00    -0.397 OA
HETATM   27  H14 UNK     1      22.805  11.994   7.371  1.00  0.00     0.209 HD
ENDBRANCH  25  26
ENDBRANCH  23  25
ENDBRANCH   7  23
BRANCH  21  28
HETATM   28  O6  UNK     1      11.266   7.703   9.442  1.00  0.00    -0.353 OA
HETATM   29  C22 UNK     1      10.876   9.074   9.447  1.00  0.00     0.210 C 
ENDBRANCH  21  28
BRANCH  22  30
HETATM   30  O7  UNK     1      12.147   5.118   9.938  1.00  0.00    -0.353 OA
HETATM   31  C23 UNK     1      11.834   4.383   8.756  1.00  0.00     0.210 C 
ENDBRANCH  22  30
TORSDOF 5
ENDMDL
MODEL 8
REMARK VINA RESULT:      -7.5     35.200     36.781
REMARK  5 active torsions:
REMARK  status: ('A' for Active; 'I' for Inactive)
REMARK    1  A    between atoms: C16_23  and  O5_5 
REMARK    2  A    between atoms: C20_27  and  O6_6 
REMARK    3  A    between atoms: C21_28  and  O7_7 
REMARK    4  A    between atoms: C3_10  and  C9_16 
REMARK    5  A    between atoms: C16_23  and  C9_16 
ROOT
HETATM    1  O1  UNK     1      36.941  -7.929  32.541  1.00  0.00    -0.341 OA
HETATM    2  O2  UNK     1      33.241  -9.282  35.040  1.00  0.00    -0.310 OA
HETATM    3  O3  UNK     1      30.066 -10.019  36.655  1.00  0.00    -0.344 OA
HETATM    4  O4  UNK     1      32.107  -5.443  35.772  1.00  0.00    -0.286 OA
HETATM    5  C1  UNK     1      35.642  -9.818  33.341  1.00  0.00     0.081 C 
HETATM    6  C2  UNK     1      35.105  -8.518  33.806  1.00  0.00     0.013 A 
HETATM    7  C3  UNK     1      37.012  -9.352  32.823  1.00  0.00     0.163 C 
HETATM    8  C4  UNK     1      33.987  -8.239  34.572  1.00  0.00     0.099 A 
HETATM    9  C5  UNK     1      35.881  -7.490  33.292  1.00  0.00     0.079 A 
HETATM   10  C6  UNK     1      33.666  -6.905  34.817  1.00  0.00     0.050 A 
HETATM   11  C7  UNK     1      31.749  -7.768  36.206  1.00  0.00     0.060 A 
HETATM   12  C8  UNK     1      32.165  -8.999  35.860  1.00  0.00     0.093 A 
HETATM   13  C10 UNK     1      32.471  -6.602  35.626  1.00  0.00     0.198 A 
HETATM   14  C11 UNK     1      35.577  -6.161  33.511  1.00  0.00     0.038 A 
HETATM   15  C12 UNK     1      34.455  -5.866  34.289  1.00  0.00     0.021 A 
HETATM   16  C13 UNK     1      30.595  -7.691  37.121  1.00  0.00     0.017 A 
HETATM   17  C14 UNK     1      31.451 -10.225  36.350  1.00  0.00     0.241 C 
HETATM   18  C15 UNK     1      29.796  -8.834  37.291  1.00  0.00     0.083 A 
HETATM   19  C17 UNK     1      30.245  -6.537  37.835  1.00  0.00     0.055 A 
HETATM   20  C18 UNK     1      28.653  -8.810  38.094  1.00  0.00     0.077 A 
HETATM   21  C20 UNK     1      29.113  -6.515  38.656  1.00  0.00     0.102 A 
HETATM   22  C21 UNK     1      28.313  -7.648  38.778  1.00  0.00     0.104 A 
ENDROOT
BRANCH   7  23
HETATM   23  C9  UNK     1      37.443 -10.073  31.590  1.00  0.00    -0.037 C 
HETATM   24  C19 UNK     1      38.659 -10.633  31.492  1.00  0.00     0.019 C 
BRANCH  23  25
HETATM   25  C16 UNK     1      36.443 -10.165  30.474  1.00  0.00     0.200 C 
BRANCH  25  26
HETATM   26  O5  UNK     1      36.276  -8.885  29.878  1.00  0.00    -0.397 OA
HETATM   27  H14 UNK     1      35.984  -9.022  28.961  1.00  0.00     0.209 HD
ENDBRANCH  25  26
ENDBRANCH  23  25
ENDBRANCH   7  23
BRANCH  21  28
HETATM   28  O6  UNK     1      28.802  -5.374  39.332  1.00  0.00    -0.353 OA
HETATM   29  C22 UNK     1      29.558  -4.208  39.018  1.00  0.00     0.210 C 
ENDBRANCH  21  28
BRANCH  22  30
HETATM   30  O7  UNK     1      27.204  -7.632  39.569  1.00  0.00    -0.353 OA
HETATM   31  C23 UNK     1      26.052  -8.321  39.084  1.00  0.00     0.210 C 
ENDBRANCH  22  30
TORSDOF 5
ENDMDL
MODEL 9
REMARK VINA RESULT:      -7.4     22.361     24.648
REMARK  5 active torsions:
REMARK  status: ('A' for Active; 'I' for Inactive)
REMARK    1  A    between atoms: C16_23  and  O5_5 
REMARK    2  A    between atoms: C20_27  and  O6_6 
REMARK    3  A    between atoms: C21_28  and  O7_7 
REMARK    4  A    between atoms: C3_10  and  C9_16 
REMARK    5  A    between atoms: C16_23  and  C9_16 
ROOT
HETATM    1  O1  UNK     1      19.833   3.602  31.083  1.00  0.00    -0.341 OA
HETATM    2  O2  UNK     1      16.191   6.283  32.231  1.00  0.00    -0.310 OA
HETATM    3  O3  UNK     1      13.579   8.749  32.805  1.00  0.00    -0.344 OA
HETATM    4  O4  UNK     1      18.592   9.335  33.445  1.00  0.00    -0.286 OA
HETATM    5  C1  UNK     1      17.412   3.792  31.116  1.00  0.00     0.081 C 
HETATM    6  C2  UNK     1      18.086   4.978  31.694  1.00  0.00     0.013 A 
HETATM    7  C3  UNK     1      18.606   2.825  31.068  1.00  0.00     0.163 C 
HETATM    8  C4  UNK     1      17.549   6.150  32.196  1.00  0.00     0.099 A 
HETATM    9  C5  UNK     1      19.459   4.808  31.619  1.00  0.00     0.079 A 
HETATM   10  C6  UNK     1      18.421   7.148  32.627  1.00  0.00     0.050 A 
HETATM   11  C7  UNK     1      16.371   8.462  33.277  1.00  0.00     0.060 A 
HETATM   12  C8  UNK     1      15.660   7.427  32.795  1.00  0.00     0.093 A 
HETATM   13  C10 UNK     1      17.855   8.403  33.155  1.00  0.00     0.198 A 
HETATM   14  C11 UNK     1      20.344   5.786  32.029  1.00  0.00     0.038 A 
HETATM   15  C12 UNK     1      19.815   6.972  32.544  1.00  0.00     0.021 A 
HETATM   16  C13 UNK     1      15.605   9.574  33.868  1.00  0.00     0.017 A 
HETATM   17  C14 UNK     1      14.160   7.438  32.821  1.00  0.00     0.241 C 
HETATM   18  C15 UNK     1      14.231   9.667  33.588  1.00  0.00     0.083 A 
HETATM   19  C17 UNK     1      16.170  10.553  34.698  1.00  0.00     0.055 A 
HETATM   20  C18 UNK     1      13.461  10.731  34.064  1.00  0.00     0.077 A 
HETATM   21  C20 UNK     1      15.397  11.608  35.194  1.00  0.00     0.102 A 
HETATM   22  C21 UNK     1      14.046  11.701  34.870  1.00  0.00     0.104 A 
ENDROOT
BRANCH   7  23
HETATM   23  C9  UNK     1      18.597   1.949  29.860  1.00  0.00    -0.037 C 
HETATM   24  C19 UNK     1      17.924   2.290  28.750  1.00  0.00     0.019 C 
BRANCH  23  25
HETATM   25  C16 UNK     1      19.399   0.682  29.936  1.00  0.00     0.200 C 
BRANCH  25  26
HETATM   26  O5  UNK     1      20.459   0.845  30.868  1.00  0.00    -0.397 OA
HETATM   27  H14 UNK     1      21.181   1.314  30.416  1.00  0.00     0.209 HD
ENDBRANCH  25  26
ENDBRANCH  23  25
ENDBRANCH   7  23
BRANCH  21  28
HETATM   28  O6  UNK     1      15.981  12.543  35.994  1.00  0.00    -0.353 OA
HETATM   29  C22 UNK     1      17.153  13.182  35.495  1.00  0.00     0.210 C 
ENDBRANCH  21  28
BRANCH  22  30
HETATM   30  O7  UNK     1      13.290  12.730  35.342  1.00  0.00    -0.353 OA
HETATM   31  C23 UNK     1      13.065  13.828  34.458  1.00  0.00     0.210 C 
ENDBRANCH  22  30
TORSDOF 5
ENDMDL
MODEL 10
REMARK VINA RESULT:      -7.3     34.345     35.584
REMARK  5 active torsions:
REMARK  status: ('A' for Active; 'I' for Inactive)
REMARK    1  A    between atoms: C16_23  and  O5_5 
REMARK    2  A    between atoms: C20_27  and  O6_6 
REMARK    3  A    between atoms: C21_28  and  O7_7 
REMARK    4  A    between atoms: C3_10  and  C9_16 
REMARK    5  A    between atoms: C16_23  and  C9_16 
ROOT
HETATM    1  O1  UNK     1      20.943  -7.528  38.221  1.00  0.00    -0.341 OA
HETATM    2  O2  UNK     1      25.369  -8.906  37.694  1.00  0.00    -0.310 OA
HETATM    3  O3  UNK     1      28.871  -9.884  37.816  1.00  0.00    -0.344 OA
HETATM    4  O4  UNK     1      26.819  -5.501  39.385  1.00  0.00    -0.286 OA
HETATM    5  C1  UNK     1      22.415  -9.315  37.486  1.00  0.00     0.081 C 
HETATM    6  C2  UNK     1      23.156  -8.129  37.976  1.00  0.00     0.013 A 
HETATM    7  C3  UNK     1      21.012  -8.699  37.364  1.00  0.00     0.163 C 
HETATM    8  C4  UNK     1      24.518  -7.922  38.104  1.00  0.00     0.099 A 
HETATM    9  C5  UNK     1      22.254  -7.166  38.399  1.00  0.00     0.079 A 
HETATM   10  C6  UNK     1      24.957  -6.722  38.661  1.00  0.00     0.050 A 
HETATM   11  C7  UNK     1      27.300  -7.550  38.249  1.00  0.00     0.060 A 
HETATM   12  C8  UNK     1      26.729  -8.666  37.762  1.00  0.00     0.093 A 
HETATM   13  C10 UNK     1      26.407  -6.498  38.807  1.00  0.00     0.198 A 
HETATM   14  C11 UNK     1      22.664  -5.974  38.964  1.00  0.00     0.038 A 
HETATM   15  C12 UNK     1      24.036  -5.748  39.092  1.00  0.00     0.021 A 
HETATM   16  C13 UNK     1      28.773  -7.484  38.197  1.00  0.00     0.017 A 
HETATM   17  C14 UNK     1      27.562  -9.800  37.240  1.00  0.00     0.241 C 
HETATM   18  C15 UNK     1      29.491  -8.674  37.993  1.00  0.00     0.083 A 
HETATM   19  C17 UNK     1      29.503  -6.296  38.345  1.00  0.00     0.055 A 
HETATM   20  C18 UNK     1      30.889  -8.691  37.997  1.00  0.00     0.077 A 
HETATM   21  C20 UNK     1      30.902  -6.306  38.328  1.00  0.00     0.102 A 
HETATM   22  C21 UNK     1      31.593  -7.503  38.164  1.00  0.00     0.104 A 
ENDROOT
BRANCH   7  23
HETATM   23  C9  UNK     1      19.925  -9.648  37.746  1.00  0.00    -0.037 C 
HETATM   24  C19 UNK     1      18.726  -9.212  38.162  1.00  0.00     0.019 C 
BRANCH  23  25
HETATM   25  C16 UNK     1      20.229 -11.113  37.618  1.00  0.00     0.200 C 
BRANCH  25  26
HETATM   26  O5  UNK     1      19.521 -11.835  38.616  1.00  0.00    -0.397 OA
HETATM   27  H14 UNK     1      20.176 -12.276  39.183  1.00  0.00     0.209 HD
ENDBRANCH  25  26
ENDBRANCH  23  25
ENDBRANCH   7  23
BRANCH  21  28
HETATM   28  O6  UNK     1      31.578  -5.133  38.477  1.00  0.00    -0.353 OA
HETATM   29  C22 UNK     1      31.679  -4.293  37.330  1.00  0.00     0.210 C 
ENDBRANCH  21  28
BRANCH  22  30
HETATM   30  O7  UNK     1      32.955  -7.521  38.156  1.00  0.00    -0.353 OA
HETATM   31  C23 UNK     1      33.594  -7.609  36.883  1.00  0.00     0.210 C 
ENDBRANCH  22  30
TORSDOF 5
ENDMDL
