MODEL 1
REMARK VINA RESULT:      -7.8      0.000      0.000
REMARK  2 active torsions:
REMARK  status: ('A' for Active; 'I' for Inactive)
REMARK    1  A    between atoms: C8_14  and  N1_5 
REMARK    2  A    between atoms: C1_7  and  C5_11 
ROOT
HETATM    1  O1  UNK     1      16.856   8.466  10.011  1.00  0.00    -0.291 OA
HETATM    2  O2  UNK     1      13.597  10.560  11.590  1.00  0.00    -0.274 OA
HETATM    3  O3  UNK     1      12.348   8.653  11.550  1.00  0.00    -0.259 OA
HETATM    4  N2  UNK     1      15.783   3.777   9.791  1.00  0.00    -0.191 NA
HETATM    5  C1  UNK     1      14.390   7.024  10.340  1.00  0.00     0.115 C 
HETATM    6  C2  UNK     1      14.567   8.489  10.710  1.00  0.00     0.067 A 
HETATM    7  C3  UNK     1      15.741   9.108  10.518  1.00  0.00     0.104 A 
HETATM    8  C4  UNK     1      15.728   6.359  10.014  1.00  0.00     0.086 C 
HETATM    9  C6  UNK     1      15.910  10.523  10.837  1.00  0.00     0.033 A 
HETATM   10  C7  UNK     1      13.414   9.210  11.309  1.00  0.00     0.298 A 
HETATM   11  C8  UNK     1      16.860   7.082   9.856  1.00  0.00     0.159 C 
HETATM   12  C9  UNK     1      14.822  11.214  11.363  1.00  0.00     0.092 A 
HETATM   13  C11 UNK     1      17.105  11.225  10.640  1.00  0.00     0.017 A 
HETATM   14  C12 UNK     1      14.892  12.568  11.692  1.00  0.00     0.038 A 
HETATM   15  C14 UNK     1      17.191  12.583  10.965  1.00  0.00     0.001 A 
HETATM   16  C16 UNK     1      15.758   4.932   9.891  1.00  0.00     0.100 C 
HETATM   17  C17 UNK     1      16.086  13.254  11.490  1.00  0.00     0.003 A 
ENDROOT
BRANCH   5  18
HETATM   18  C5  UNK     1      13.396   6.836   9.240  1.00  0.00    -0.004 A 
HETATM   19  C10 UNK     1      13.333   7.489   8.039  1.00  0.00     0.016 A 
HETATM   20  C13 UNK     1      12.239   7.033   7.250  1.00  0.00     0.008 A 
HETATM   21  C15 UNK     1      11.517   6.048   7.887  1.00  0.00     0.050 A 
HETATM   22  S1  UNK     1      12.158   5.678   9.432  1.00  0.00    -0.105 SA
ENDBRANCH   5  18
BRANCH  11  23
HETATM   23  N1  UNK     1      18.088   6.567   9.545  1.00  0.00    -0.379 N 
HETATM   24  H10 UNK     1      18.272   6.176   8.630  1.00  0.00     0.158 HD
HETATM   25  H9  UNK     1      18.816   6.583  10.248  1.00  0.00     0.158 HD
ENDBRANCH  11  23
TORSDOF 2
ENDMDL
MODEL 2
REMARK VINA RESULT:      -7.7     33.977     35.126
REMARK  2 active torsions:
REMARK  status: ('A' for Active; 'I' for Inactive)
REMARK    1  A    between atoms: C8_14  and  N1_5 
REMARK    2  A    between atoms: C1_7  and  C5_11 
ROOT
HETATM    1  O1  UNK     1      30.835  -5.385  38.262  1.00  0.00    -0.291 OA
HETATM    2  O2  UNK     1      31.653  -8.166  35.246  1.00  0.00    -0.274 OA
HETATM    3  O3  UNK     1      29.437  -8.684  35.118  1.00  0.00    -0.259 OA
HETATM    4  N2  UNK     1      26.068  -4.991  38.816  1.00  0.00    -0.191 NA
HETATM    5  C1  UNK     1      28.631  -6.937  37.260  1.00  0.00     0.115 C 
HETATM    6  C2  UNK     1      30.060  -7.073  36.752  1.00  0.00     0.067 A 
HETATM    7  C3  UNK     1      31.046  -6.327  37.272  1.00  0.00     0.104 A 
HETATM    8  C4  UNK     1      28.470  -5.721  38.173  1.00  0.00     0.086 C 
HETATM    9  C6  UNK     1      32.425  -6.475  36.816  1.00  0.00     0.033 A 
HETATM   10  C7  UNK     1      30.330  -8.033  35.652  1.00  0.00     0.298 A 
HETATM   11  C8  UNK     1      29.540  -5.029  38.629  1.00  0.00     0.159 C 
HETATM   12  C9  UNK     1      32.691  -7.401  35.812  1.00  0.00     0.092 A 
HETATM   13  C11 UNK     1      33.497  -5.739  37.336  1.00  0.00     0.017 A 
HETATM   14  C12 UNK     1      33.978  -7.612  35.319  1.00  0.00     0.038 A 
HETATM   15  C14 UNK     1      34.795  -5.939  36.852  1.00  0.00     0.001 A 
HETATM   16  C16 UNK     1      27.143  -5.317  38.528  1.00  0.00     0.100 C 
HETATM   17  C17 UNK     1      35.035  -6.874  35.844  1.00  0.00     0.003 A 
ENDROOT
BRANCH   5  18
HETATM   18  C5  UNK     1      28.145  -8.189  37.915  1.00  0.00    -0.004 A 
HETATM   19  C10 UNK     1      28.729  -8.889  38.935  1.00  0.00     0.016 A 
HETATM   20  C13 UNK     1      27.963 -10.036  39.291  1.00  0.00     0.008 A 
HETATM   21  C15 UNK     1      26.825 -10.156  38.524  1.00  0.00     0.050 A 
HETATM   22  S1  UNK     1      26.685  -8.890  37.379  1.00  0.00    -0.105 SA
ENDBRANCH   5  18
BRANCH  11  23
HETATM   23  N1  UNK     1      29.481  -3.947  39.463  1.00  0.00    -0.379 N 
HETATM   24  H10 UNK     1      28.594  -3.531  39.716  1.00  0.00     0.158 HD
HETATM   25  H9  UNK     1      30.345  -3.565  39.827  1.00  0.00     0.158 HD
ENDBRANCH  11  23
TORSDOF 2
ENDMDL
MODEL 3
REMARK VINA RESULT:      -7.4     33.006     34.644
REMARK  2 active torsions:
REMARK  status: ('A' for Active; 'I' for Inactive)
REMARK    1  A    between atoms: C8_14  and  N1_5 
REMARK    2  A    between atoms: C1_7  and  C5_11 
ROOT
HETATM    1  O1  UNK     1      30.491  -5.208  37.113  1.00  0.00    -0.291 OA
HETATM    2  O2  UNK     1      30.622  -9.385  37.275  1.00  0.00    -0.274 OA
HETATM    3  O3  UNK     1      32.433  -9.386  35.891  1.00  0.00    -0.259 OA
HETATM    4  N2  UNK     1      34.335  -3.585  34.707  1.00  0.00    -0.191 NA
HETATM    5  C1  UNK     1      32.477  -6.533  35.510  1.00  0.00     0.115 C 
HETATM    6  C2  UNK     1      31.488  -7.265  36.404  1.00  0.00     0.067 A 
HETATM    7  C3  UNK     1      30.576  -6.588  37.117  1.00  0.00     0.104 A 
HETATM    8  C4  UNK     1      32.452  -5.024  35.757  1.00  0.00     0.086 C 
HETATM    9  C6  UNK     1      29.600  -7.284  37.951  1.00  0.00     0.033 A 
HETATM   10  C7  UNK     1      31.571  -8.747  36.486  1.00  0.00     0.298 A 
HETATM   11  C8  UNK     1      31.488  -4.444  36.510  1.00  0.00     0.159 C 
HETATM   12  C9  UNK     1      29.649  -8.674  38.001  1.00  0.00     0.092 A 
HETATM   13  C11 UNK     1      28.614  -6.630  38.700  1.00  0.00     0.017 A 
HETATM   14  C12 UNK     1      28.753  -9.420  38.766  1.00  0.00     0.038 A 
HETATM   15  C14 UNK     1      27.708  -7.365  39.473  1.00  0.00     0.001 A 
HETATM   16  C16 UNK     1      33.492  -4.229  35.177  1.00  0.00     0.100 C 
HETATM   17  C17 UNK     1      27.777  -8.758  39.506  1.00  0.00     0.003 A 
ENDROOT
BRANCH   5  18
HETATM   18  C5  UNK     1      32.281  -6.860  34.066  1.00  0.00    -0.004 A 
HETATM   19  C10 UNK     1      31.132  -6.768  33.328  1.00  0.00     0.016 A 
HETATM   20  C13 UNK     1      31.340  -7.170  31.977  1.00  0.00     0.008 A 
HETATM   21  C15 UNK     1      32.644  -7.550  31.747  1.00  0.00     0.050 A 
HETATM   22  S1  UNK     1      33.610  -7.422  33.156  1.00  0.00    -0.105 SA
ENDBRANCH   5  18
BRANCH  11  23
HETATM   23  N1  UNK     1      31.383  -3.104  36.761  1.00  0.00    -0.379 N 
HETATM   24  H10 UNK     1      30.733  -2.527  36.243  1.00  0.00     0.158 HD
HETATM   25  H9  UNK     1      31.969  -2.695  37.478  1.00  0.00     0.158 HD
ENDBRANCH  11  23
TORSDOF 2
ENDMDL
MODEL 4
REMARK VINA RESULT:      -7.3     12.358     15.121
REMARK  2 active torsions:
REMARK  status: ('A' for Active; 'I' for Inactive)
REMARK    1  A    between atoms: C8_14  and  N1_5 
REMARK    2  A    between atoms: C1_7  and  C5_11 
ROOT
HETATM    1  O1  UNK     1      21.694  -5.785  15.053  1.00  0.00    -0.291 OA
HETATM    2  O2  UNK     1      21.261  -2.387  17.453  1.00  0.00    -0.274 OA
HETATM    3  O3  UNK     1      19.282  -1.911  16.427  1.00  0.00    -0.259 OA
HETATM    4  N2  UNK     1      17.694  -6.415  12.446  1.00  0.00    -0.191 NA
HETATM    5  C1  UNK     1      19.409  -4.107  14.571  1.00  0.00     0.115 C 
HETATM    6  C2  UNK     1      20.452  -3.826  15.643  1.00  0.00     0.067 A 
HETATM    7  C3  UNK     1      21.504  -4.642  15.807  1.00  0.00     0.104 A 
HETATM    8  C4  UNK     1      19.586  -5.499  13.962  1.00  0.00     0.086 C 
HETATM    9  C6  UNK     1      22.528  -4.362  16.809  1.00  0.00     0.033 A 
HETATM   10  C7  UNK     1      20.264  -2.639  16.517  1.00  0.00     0.298 A 
HETATM   11  C8  UNK     1      20.686  -6.247  14.209  1.00  0.00     0.159 C 
HETATM   12  C9  UNK     1      22.378  -3.230  17.605  1.00  0.00     0.092 A 
HETATM   13  C11 UNK     1      23.656  -5.167  17.012  1.00  0.00     0.017 A 
HETATM   14  C12 UNK     1      23.309  -2.882  18.583  1.00  0.00     0.038 A 
HETATM   15  C14 UNK     1      24.599  -4.831  17.989  1.00  0.00     0.001 A 
HETATM   16  C16 UNK     1      18.541  -6.006  13.124  1.00  0.00     0.100 C 
HETATM   17  C17 UNK     1      24.426  -3.690  18.774  1.00  0.00     0.003 A 
ENDROOT
BRANCH   5  18
HETATM   18  C5  UNK     1      19.378  -3.045  13.522  1.00  0.00    -0.004 A 
HETATM   19  C10 UNK     1      18.555  -1.953  13.451  1.00  0.00     0.016 A 
HETATM   20  C13 UNK     1      18.829  -1.163  12.297  1.00  0.00     0.008 A 
HETATM   21  C15 UNK     1      19.851  -1.691  11.540  1.00  0.00     0.050 A 
HETATM   22  S1  UNK     1      20.477  -3.133  12.221  1.00  0.00    -0.105 SA
ENDBRANCH   5  18
BRANCH  11  23
HETATM   23  N1  UNK     1      20.929  -7.488  13.688  1.00  0.00    -0.379 N 
HETATM   24  H10 UNK     1      20.207  -7.996  13.195  1.00  0.00     0.158 HD
HETATM   25  H9  UNK     1      21.850  -7.893  13.804  1.00  0.00     0.158 HD
ENDBRANCH  11  23
TORSDOF 2
ENDMDL
MODEL 5
REMARK VINA RESULT:      -7.2     31.532     33.153
REMARK  2 active torsions:
REMARK  status: ('A' for Active; 'I' for Inactive)
REMARK    1  A    between atoms: C8_14  and  N1_5 
REMARK    2  A    between atoms: C1_7  and  C5_11 
ROOT
HETATM    1  O1  UNK     1      31.422  -5.289  34.184  1.00  0.00    -0.291 OA
HETATM    2  O2  UNK     1      27.580  -6.912  33.862  1.00  0.00    -0.274 OA
HETATM    3  O3  UNK     1      27.546  -7.286  36.111  1.00  0.00    -0.259 OA
HETATM    4  N2  UNK     1      32.626  -4.955  38.835  1.00  0.00    -0.191 NA
HETATM    5  C1  UNK     1      30.225  -6.341  36.578  1.00  0.00     0.115 C 
HETATM    6  C2  UNK     1      29.538  -6.342  35.220  1.00  0.00     0.067 A 
HETATM    7  C3  UNK     1      30.158  -5.848  34.138  1.00  0.00     0.104 A 
HETATM    8  C4  UNK     1      31.502  -5.501  36.564  1.00  0.00     0.086 C 
HETATM    9  C6  UNK     1      29.521  -5.877  32.824  1.00  0.00     0.033 A 
HETATM   10  C7  UNK     1      28.157  -6.883  35.127  1.00  0.00     0.298 A 
HETATM   11  C8  UNK     1      32.034  -5.038  35.410  1.00  0.00     0.159 C 
HETATM   12  C9  UNK     1      28.242  -6.417  32.724  1.00  0.00     0.092 A 
HETATM   13  C11 UNK     1      30.127  -5.393  31.658  1.00  0.00     0.017 A 
HETATM   14  C12 UNK     1      27.561  -6.490  31.509  1.00  0.00     0.038 A 
HETATM   15  C14 UNK     1      29.457  -5.459  30.431  1.00  0.00     0.001 A 
HETATM   16  C16 UNK     1      32.123  -5.199  37.819  1.00  0.00     0.100 C 
HETATM   17  C17 UNK     1      28.176  -6.007  30.357  1.00  0.00     0.003 A 
ENDROOT
BRANCH   5  18
HETATM   18  C5  UNK     1      30.478  -7.724  37.083  1.00  0.00    -0.004 A 
HETATM   19  C10 UNK     1      29.978  -8.316  38.211  1.00  0.00     0.016 A 
HETATM   20  C13 UNK     1      30.449  -9.652  38.357  1.00  0.00     0.008 A 
HETATM   21  C15 UNK     1      31.289 -10.019  37.328  1.00  0.00     0.050 A 
HETATM   22  S1  UNK     1      31.506  -8.755  36.193  1.00  0.00    -0.105 SA
ENDBRANCH   5  18
BRANCH  11  23
HETATM   23  N1  UNK     1      33.181  -4.299  35.311  1.00  0.00    -0.379 N 
HETATM   24  H10 UNK     1      33.255  -3.539  34.647  1.00  0.00     0.158 HD
HETATM   25  H9  UNK     1      33.960  -4.524  35.917  1.00  0.00     0.158 HD
ENDBRANCH  11  23
TORSDOF 2
ENDMDL
MODEL 6
REMARK VINA RESULT:      -7.1     33.348     34.880
REMARK  2 active torsions:
REMARK  status: ('A' for Active; 'I' for Inactive)
REMARK    1  A    between atoms: C8_14  and  N1_5 
REMARK    2  A    between atoms: C1_7  and  C5_11 
ROOT
HETATM    1  O1  UNK     1      32.372  -6.652  37.073  1.00  0.00    -0.291 OA
HETATM    2  O2  UNK     1      30.088  -8.352  34.010  1.00  0.00    -0.274 OA
HETATM    3  O3  UNK     1      28.194  -7.481  34.932  1.00  0.00    -0.259 OA
HETATM    4  N2  UNK     1      29.552  -3.858  39.800  1.00  0.00    -0.191 NA
HETATM    5  C1  UNK     1      29.518  -6.325  37.213  1.00  0.00     0.115 C 
HETATM    6  C2  UNK     1      30.229  -7.072  36.094  1.00  0.00     0.067 A 
HETATM    7  C3  UNK     1      31.564  -7.201  36.095  1.00  0.00     0.104 A 
HETATM    8  C4  UNK     1      30.505  -5.568  38.102  1.00  0.00     0.086 C 
HETATM    9  C6  UNK     1      32.252  -7.946  35.045  1.00  0.00     0.033 A 
HETATM   10  C7  UNK     1      29.410  -7.635  34.989  1.00  0.00     0.298 A 
HETATM   11  C8  UNK     1      31.841  -5.765  38.007  1.00  0.00     0.159 C 
HETATM   12  C9  UNK     1      31.486  -8.509  34.027  1.00  0.00     0.092 A 
HETATM   13  C11 UNK     1      33.640  -8.129  35.006  1.00  0.00     0.017 A 
HETATM   14  C12 UNK     1      32.059  -9.241  32.987  1.00  0.00     0.038 A 
HETATM   15  C14 UNK     1      34.229  -8.861  33.968  1.00  0.00     0.001 A 
HETATM   16  C16 UNK     1      29.979  -4.623  39.040  1.00  0.00     0.100 C 
HETATM   17  C17 UNK     1      33.439  -9.417  32.961  1.00  0.00     0.003 A 
ENDROOT
BRANCH   5  18
HETATM   18  C5  UNK     1      28.628  -7.219  38.011  1.00  0.00    -0.004 A 
HETATM   19  C10 UNK     1      28.931  -8.432  38.568  1.00  0.00     0.016 A 
HETATM   20  C13 UNK     1      27.815  -8.986  39.260  1.00  0.00     0.008 A 
HETATM   21  C15 UNK     1      26.711  -8.166  39.199  1.00  0.00     0.050 A 
HETATM   22  S1  UNK     1      27.020  -6.735  38.311  1.00  0.00    -0.105 SA
ENDBRANCH   5  18
BRANCH  11  23
HETATM   23  N1  UNK     1      32.786  -5.145  38.778  1.00  0.00    -0.379 N 
HETATM   24  H10 UNK     1      32.931  -5.415  39.742  1.00  0.00     0.158 HD
HETATM   25  H9  UNK     1      33.343  -4.408  38.366  1.00  0.00     0.158 HD
ENDBRANCH  11  23
TORSDOF 2
ENDMDL
MODEL 7
REMARK VINA RESULT:      -7.0     31.387     32.825
REMARK  2 active torsions:
REMARK  status: ('A' for Active; 'I' for Inactive)
REMARK    1  A    between atoms: C8_14  and  N1_5 
REMARK    2  A    between atoms: C1_7  and  C5_11 
ROOT
HETATM    1  O1  UNK     1      32.323  -5.233  35.490  1.00  0.00    -0.291 OA
HETATM    2  O2  UNK     1      28.615  -7.035  36.196  1.00  0.00    -0.274 OA
HETATM    3  O3  UNK     1      28.869  -8.302  34.318  1.00  0.00    -0.259 OA
HETATM    4  N2  UNK     1      34.470  -7.410  31.768  1.00  0.00    -0.191 NA
HETATM    5  C1  UNK     1      31.377  -7.123  33.539  1.00  0.00     0.115 C 
HETATM    6  C2  UNK     1      30.608  -6.753  34.800  1.00  0.00     0.067 A 
HETATM    7  C3  UNK     1      31.099  -5.853  35.664  1.00  0.00     0.104 A 
HETATM    8  C4  UNK     1      32.801  -6.565  33.563  1.00  0.00     0.086 C 
HETATM    9  C6  UNK     1      30.353  -5.466  36.858  1.00  0.00     0.033 A 
HETATM   10  C7  UNK     1      29.312  -7.432  35.061  1.00  0.00     0.298 A 
HETATM   11  C8  UNK     1      33.196  -5.668  34.495  1.00  0.00     0.159 C 
HETATM   12  C9  UNK     1      29.120  -6.070  37.088  1.00  0.00     0.092 A 
HETATM   13  C11 UNK     1      30.807  -4.519  37.783  1.00  0.00     0.017 A 
HETATM   14  C12 UNK     1      28.337  -5.758  38.199  1.00  0.00     0.038 A 
HETATM   15  C14 UNK     1      30.034  -4.195  38.903  1.00  0.00     0.001 A 
HETATM   16  C16 UNK     1      33.723  -7.032  32.572  1.00  0.00     0.100 C 
HETATM   17  C17 UNK     1      28.800  -4.814  39.111  1.00  0.00     0.003 A 
ENDROOT
BRANCH   5  18
HETATM   18  C5  UNK     1      30.648  -6.724  32.298  1.00  0.00    -0.004 A 
HETATM   19  C10 UNK     1      30.137  -5.496  31.976  1.00  0.00     0.016 A 
HETATM   20  C13 UNK     1      29.508  -5.506  30.698  1.00  0.00     0.008 A 
HETATM   21  C15 UNK     1      29.570  -6.747  30.102  1.00  0.00     0.050 A 
HETATM   22  S1  UNK     1      30.383  -7.892  31.082  1.00  0.00    -0.105 SA
ENDBRANCH   5  18
BRANCH  11  23
HETATM   23  N1  UNK     1      34.441  -5.108  34.572  1.00  0.00    -0.379 N 
HETATM   24  H10 UNK     1      35.219  -5.620  34.967  1.00  0.00     0.158 HD
HETATM   25  H9  UNK     1      34.575  -4.166  34.224  1.00  0.00     0.158 HD
ENDBRANCH  11  23
TORSDOF 2
ENDMDL
MODEL 8
REMARK VINA RESULT:      -6.9      3.125      6.458
REMARK  2 active torsions:
REMARK  status: ('A' for Active; 'I' for Inactive)
REMARK    1  A    between atoms: C8_14  and  N1_5 
REMARK    2  A    between atoms: C1_7  and  C5_11 
ROOT
HETATM    1  O1  UNK     1      11.371   8.998  10.211  1.00  0.00    -0.291 OA
HETATM    2  O2  UNK     1      13.617   6.207   8.053  1.00  0.00    -0.274 OA
HETATM    3  O3  UNK     1      15.431   6.650   9.361  1.00  0.00    -0.259 OA
HETATM    4  N2  UNK     1      13.964  10.585  13.946  1.00  0.00    -0.191 NA
HETATM    5  C1  UNK     1      14.146   8.710  10.907  1.00  0.00     0.115 C 
HETATM    6  C2  UNK     1      13.463   7.906   9.811  1.00  0.00     0.067 A 
HETATM    7  C3  UNK     1      12.167   8.099   9.526  1.00  0.00     0.104 A 
HETATM    8  C4  UNK     1      13.135   9.494  11.746  1.00  0.00     0.086 C 
HETATM    9  C6  UNK     1      11.512   7.357   8.452  1.00  0.00     0.033 A 
HETATM   10  C7  UNK     1      14.261   6.888   9.080  1.00  0.00     0.298 A 
HETATM   11  C8  UNK     1      11.841   9.611  11.370  1.00  0.00     0.159 C 
HETATM   12  C9  UNK     1      12.264   6.429   7.738  1.00  0.00     0.092 A 
HETATM   13  C11 UNK     1      10.168   7.531   8.098  1.00  0.00     0.017 A 
HETATM   14  C12 UNK     1      11.722   5.681   6.694  1.00  0.00     0.038 A 
HETATM   15  C14 UNK     1       9.609   6.787   7.052  1.00  0.00     0.001 A 
HETATM   16  C16 UNK     1      13.593  10.097  12.962  1.00  0.00     0.100 C 
HETATM   17  C17 UNK     1      10.385   5.863   6.351  1.00  0.00     0.003 A 
ENDROOT
BRANCH   5  18
HETATM   18  C5  UNK     1      15.223   9.595  10.370  1.00  0.00    -0.004 A 
HETATM   19  C10 UNK     1      16.551   9.607  10.703  1.00  0.00     0.016 A 
HETATM   20  C13 UNK     1      17.267  10.598   9.973  1.00  0.00     0.008 A 
HETATM   21  C15 UNK     1      16.449  11.298   9.113  1.00  0.00     0.050 A 
HETATM   22  S1  UNK     1      14.825  10.759   9.188  1.00  0.00    -0.105 SA
ENDBRANCH   5  18
BRANCH  11  23
HETATM   23  N1  UNK     1      10.882  10.309  12.052  1.00  0.00    -0.379 N 
HETATM   24  H10 UNK     1      10.513   9.966  12.929  1.00  0.00     0.158 HD
HETATM   25  H9  UNK     1      10.546  11.182  11.663  1.00  0.00     0.158 HD
ENDBRANCH  11  23
TORSDOF 2
ENDMDL
MODEL 9
REMARK VINA RESULT:      -6.9     30.974     32.812
REMARK  2 active torsions:
REMARK  status: ('A' for Active; 'I' for Inactive)
REMARK    1  A    between atoms: C8_14  and  N1_5 
REMARK    2  A    between atoms: C1_7  and  C5_11 
ROOT
HETATM    1  O1  UNK     1      28.820  -6.380  34.692  1.00  0.00    -0.291 OA
HETATM    2  O2  UNK     1      30.940  -7.763  31.362  1.00  0.00    -0.274 OA
HETATM    3  O3  UNK     1      32.787  -8.071  32.662  1.00  0.00    -0.259 OA
HETATM    4  N2  UNK     1      31.520  -6.930  38.642  1.00  0.00    -0.191 NA
HETATM    5  C1  UNK     1      31.595  -7.035  35.069  1.00  0.00     0.115 C 
HETATM    6  C2  UNK     1      30.869  -7.168  33.738  1.00  0.00     0.067 A 
HETATM    7  C3  UNK     1      29.575  -6.832  33.625  1.00  0.00     0.104 A 
HETATM    8  C4  UNK     1      30.623  -6.756  36.216  1.00  0.00     0.086 C 
HETATM    9  C6  UNK     1      28.880  -6.923  32.345  1.00  0.00     0.033 A 
HETATM   10  C7  UNK     1      31.621  -7.700  32.573  1.00  0.00     0.298 A 
HETATM   11  C8  UNK     1      29.328  -6.439  35.988  1.00  0.00     0.159 C 
HETATM   12  C9  UNK     1      29.590  -7.384  31.241  1.00  0.00     0.092 A 
HETATM   13  C11 UNK     1      27.537  -6.567  32.165  1.00  0.00     0.017 A 
HETATM   14  C12 UNK     1      29.008  -7.498  29.978  1.00  0.00     0.038 A 
HETATM   15  C14 UNK     1      26.938  -6.676  30.904  1.00  0.00     0.001 A 
HETATM   16  C16 UNK     1      31.118  -6.852  37.556  1.00  0.00     0.100 C 
HETATM   17  C17 UNK     1      27.673  -7.141  29.813  1.00  0.00     0.003 A 
ENDROOT
BRANCH   5  18
HETATM   18  C5  UNK     1      32.692  -6.023  35.014  1.00  0.00    -0.004 A 
HETATM   19  C10 UNK     1      32.605  -4.704  34.658  1.00  0.00     0.016 A 
HETATM   20  C13 UNK     1      33.872  -4.057  34.731  1.00  0.00     0.008 A 
HETATM   21  C15 UNK     1      34.868  -4.915  35.140  1.00  0.00     0.050 A 
HETATM   22  S1  UNK     1      34.276  -6.495  35.436  1.00  0.00    -0.105 SA
ENDBRANCH   5  18
BRANCH  11  23
HETATM   23  N1  UNK     1      28.403  -6.156  36.955  1.00  0.00    -0.379 N 
HETATM   24  H10 UNK     1      28.400  -6.656  37.835  1.00  0.00     0.158 HD
HETATM   25  H9  UNK     1      27.717  -5.433  36.777  1.00  0.00     0.158 HD
ENDBRANCH  11  23
TORSDOF 2
ENDMDL
MODEL 10
REMARK VINA RESULT:      -6.9     32.139     33.843
REMARK  2 active torsions:
REMARK  status: ('A' for Active; 'I' for Inactive)
REMARK    1  A    between atoms: C8_14  and  N1_5 
REMARK    2  A    between atoms: C1_7  and  C5_11 
ROOT
HETATM    1  O1  UNK     1      28.535  -8.281  34.872  1.00  0.00    -0.291 OA
HETATM    2  O2  UNK     1      28.989  -6.322  38.539  1.00  0.00    -0.274 OA
HETATM    3  O3  UNK     1      30.084  -4.616  37.496  1.00  0.00    -0.259 OA
HETATM    4  N2  UNK     1      30.095  -5.415  31.330  1.00  0.00    -0.191 NA
HETATM    5  C1  UNK     1      30.020  -5.818  34.882  1.00  0.00     0.115 C 
HETATM    6  C2  UNK     1      29.397  -6.434  36.126  1.00  0.00     0.067 A 
HETATM    7  C3  UNK     1      28.727  -7.594  36.056  1.00  0.00     0.104 A 
HETATM    8  C4  UNK     1      29.554  -6.526  33.609  1.00  0.00     0.086 C 
HETATM    9  C6  UNK     1      28.156  -8.209  37.251  1.00  0.00     0.033 A 
HETATM   10  C7  UNK     1      29.529  -5.707  37.415  1.00  0.00     0.298 A 
HETATM   11  C8  UNK     1      28.867  -7.691  33.655  1.00  0.00     0.159 C 
HETATM   12  C9  UNK     1      28.310  -7.552  38.468  1.00  0.00     0.092 A 
HETATM   13  C11 UNK     1      27.465  -9.427  37.240  1.00  0.00     0.017 A 
HETATM   14  C12 UNK     1      27.802  -8.070  39.659  1.00  0.00     0.038 A 
HETATM   15  C14 UNK     1      26.949  -9.959  38.427  1.00  0.00     0.001 A 
HETATM   16  C16 UNK     1      29.852  -5.913  32.350  1.00  0.00     0.100 C 
HETATM   17  C17 UNK     1      27.117  -9.281  39.635  1.00  0.00     0.003 A 
ENDROOT
BRANCH   5  18
HETATM   18  C5  UNK     1      31.510  -5.759  34.968  1.00  0.00    -0.004 A 
HETATM   19  C10 UNK     1      32.321  -4.668  34.815  1.00  0.00     0.016 A 
HETATM   20  C13 UNK     1      33.696  -5.009  34.970  1.00  0.00     0.008 A 
HETATM   21  C15 UNK     1      33.868  -6.350  35.236  1.00  0.00     0.050 A 
HETATM   22  S1  UNK     1      32.378  -7.191  35.298  1.00  0.00    -0.105 SA
ENDBRANCH   5  18
BRANCH  11  23
HETATM   23  N1  UNK     1      28.434  -8.395  32.565  1.00  0.00    -0.379 N 
HETATM   24  H10 UNK     1      28.715  -8.131  31.629  1.00  0.00     0.158 HD
HETATM   25  H9  UNK     1      27.825  -9.190  32.709  1.00  0.00     0.158 HD
ENDBRANCH  11  23
TORSDOF 2
ENDMDL
