MODEL 1
REMARK VINA RESULT:      -9.3      0.000      0.000
REMARK  3 active torsions:
REMARK  status: ('A' for Active; 'I' for Inactive)
REMARK       I    between atoms: C12_16  and  N1_4 
REMARK    1  A    between atoms: C7_11  and  N1_4 
REMARK    2  A    between atoms: C12_16  and  C5_9 
REMARK    3  A    between atoms: C11_15  and  C7_11 
ROOT
HETATM    1  O1  UNK     1      19.025   0.678  31.661  1.00  0.00    -0.304 OA
HETATM    2  O2  UNK     1      20.496  -0.737  28.130  1.00  0.00    -0.287 OA
HETATM    3  C1  UNK     1      20.155  -1.097  30.443  1.00  0.00     0.048 A 
HETATM    4  C2  UNK     1      19.631  -0.553  31.616  1.00  0.00     0.090 A 
HETATM    5  C3  UNK     1      20.762  -2.355  30.457  1.00  0.00     0.025 A 
HETATM    6  C4  UNK     1      20.842  -3.066  31.653  1.00  0.00    -0.061 A 
HETATM    7  C5  UNK     1      18.938   1.393  30.485  1.00  0.00     0.147 A 
HETATM    8  C6  UNK     1      20.057  -0.322  29.193  1.00  0.00     0.187 A 
HETATM    9  C8  UNK     1      19.712  -1.268  32.813  1.00  0.00     0.039 A 
HETATM   10  C9  UNK     1      19.396   0.995  29.292  1.00  0.00     0.098 A 
HETATM   11  C10 UNK     1      20.318  -2.524  32.830  1.00  0.00     0.009 A 
HETATM   12  C13 UNK     1      21.490  -4.410  31.680  1.00  0.00     0.048 C 
ENDROOT
BRANCH   7  13
HETATM   13  C12 UNK     1      18.289   2.704  30.554  1.00  0.00     0.275 C 
HETATM   14  O3  UNK     1      17.108   2.811  30.892  1.00  0.00    -0.265 OA
HETATM   15  N1  UNK     1      19.131   3.746  30.206  1.00  0.00    -0.351 N 
HETATM   16  H7  UNK     1      20.088   3.542  29.930  1.00  0.00     0.163 HD
BRANCH  15  17
HETATM   17  C7  UNK     1      18.716   5.130  30.196  1.00  0.00     0.161 C 
BRANCH  17  18
HETATM   18  C11 UNK     1      18.965   5.739  31.542  1.00  0.00    -0.041 A 
HETATM   19  C14 UNK     1      20.251   6.148  31.896  1.00  0.00     0.009 A 
HETATM   20  C16 UNK     1      20.482   6.715  33.150  1.00  0.00     0.001 A 
HETATM   21  C18 UNK     1      19.428   6.874  34.048  1.00  0.00     0.000 A 
HETATM   22  C17 UNK     1      18.141   6.466  33.695  1.00  0.00     0.001 A 
HETATM   23  C15 UNK     1      17.910   5.898  32.442  1.00  0.00     0.009 A 
ENDBRANCH  17  18
ENDBRANCH  15  17
ENDBRANCH   7  13
TORSDOF 3
ENDMDL
MODEL 2
REMARK VINA RESULT:      -8.8      2.222      3.354
REMARK  3 active torsions:
REMARK  status: ('A' for Active; 'I' for Inactive)
REMARK       I    between atoms: C12_16  and  N1_4 
REMARK    1  A    between atoms: C7_11  and  N1_4 
REMARK    2  A    between atoms: C12_16  and  C5_9 
REMARK    3  A    between atoms: C11_15  and  C7_11 
ROOT
HETATM    1  O1  UNK     1      19.019  -0.259  32.980  1.00  0.00    -0.304 OA
HETATM    2  O2  UNK     1      21.423  -3.497  32.377  1.00  0.00    -0.287 OA
HETATM    3  C1  UNK     1      20.082  -2.253  33.876  1.00  0.00     0.048 A 
HETATM    4  C2  UNK     1      19.270  -1.126  34.014  1.00  0.00     0.090 A 
HETATM    5  C3  UNK     1      20.304  -3.101  34.963  1.00  0.00     0.025 A 
HETATM    6  C4  UNK     1      19.708  -2.814  36.191  1.00  0.00    -0.061 A 
HETATM    7  C5  UNK     1      19.601  -0.528  31.760  1.00  0.00     0.147 A 
HETATM    8  C6  UNK     1      20.700  -2.530  32.567  1.00  0.00     0.187 A 
HETATM    9  C8  UNK     1      18.675  -0.842  35.244  1.00  0.00     0.039 A 
HETATM   10  C9  UNK     1      20.399  -1.569  31.487  1.00  0.00     0.098 A 
HETATM   11  C10 UNK     1      18.894  -1.688  36.332  1.00  0.00     0.009 A 
HETATM   12  C13 UNK     1      19.939  -3.713  37.360  1.00  0.00     0.048 C 
ENDROOT
BRANCH   7  13
HETATM   13  C12 UNK     1      19.321   0.409  30.670  1.00  0.00     0.275 C 
HETATM   14  O3  UNK     1      19.730   0.196  29.527  1.00  0.00    -0.265 OA
HETATM   15  N1  UNK     1      18.578   1.505  31.076  1.00  0.00    -0.351 N 
HETATM   16  H7  UNK     1      18.304   1.588  32.051  1.00  0.00     0.163 HD
BRANCH  15  17
HETATM   17  C7  UNK     1      18.181   2.567  30.179  1.00  0.00     0.161 C 
BRANCH  17  18
HETATM   18  C11 UNK     1      18.558   3.891  30.771  1.00  0.00    -0.041 A 
HETATM   19  C14 UNK     1      19.251   4.826  30.002  1.00  0.00     0.009 A 
HETATM   20  C16 UNK     1      19.603   6.059  30.553  1.00  0.00     0.001 A 
HETATM   21  C18 UNK     1      19.260   6.356  31.871  1.00  0.00     0.000 A 
HETATM   22  C17 UNK     1      18.565   5.422  32.640  1.00  0.00     0.001 A 
HETATM   23  C15 UNK     1      18.215   4.188  32.090  1.00  0.00     0.009 A 
ENDBRANCH  17  18
ENDBRANCH  15  17
ENDBRANCH   7  13
TORSDOF 3
ENDMDL
MODEL 3
REMARK VINA RESULT:      -8.8     14.606     16.910
REMARK  3 active torsions:
REMARK  status: ('A' for Active; 'I' for Inactive)
REMARK       I    between atoms: C12_16  and  N1_4 
REMARK    1  A    between atoms: C7_11  and  N1_4 
REMARK    2  A    between atoms: C12_16  and  C5_9 
REMARK    3  A    between atoms: C11_15  and  C7_11 
ROOT
HETATM    1  O1  UNK     1      19.432  -1.448  14.466  1.00  0.00    -0.304 OA
HETATM    2  O2  UNK     1      18.232  -5.099  13.100  1.00  0.00    -0.287 OA
HETATM    3  C1  UNK     1      19.494  -3.135  12.716  1.00  0.00     0.048 A 
HETATM    4  C2  UNK     1      19.865  -1.897  13.243  1.00  0.00     0.090 A 
HETATM    5  C3  UNK     1      19.964  -3.540  11.465  1.00  0.00     0.025 A 
HETATM    6  C4  UNK     1      20.809  -2.699  10.744  1.00  0.00    -0.061 A 
HETATM    7  C5  UNK     1      18.596  -2.269  15.192  1.00  0.00     0.147 A 
HETATM    8  C6  UNK     1      18.599  -4.003  13.502  1.00  0.00     0.187 A 
HETATM    9  C8  UNK     1      20.711  -1.057  12.518  1.00  0.00     0.039 A 
HETATM   10  C9  UNK     1      18.161  -3.477  14.810  1.00  0.00     0.098 A 
HETATM   11  C10 UNK     1      21.183  -1.459  11.268  1.00  0.00     0.009 A 
HETATM   12  C13 UNK     1      21.317  -3.121   9.405  1.00  0.00     0.048 C 
ENDROOT
BRANCH   7  13
HETATM   13  C12 UNK     1      18.145  -1.772  16.494  1.00  0.00     0.275 C 
HETATM   14  O3  UNK     1      17.010  -2.013  16.908  1.00  0.00    -0.265 OA
HETATM   15  N1  UNK     1      19.112  -1.034  17.156  1.00  0.00    -0.351 N 
HETATM   16  H7  UNK     1      20.015  -0.884  16.713  1.00  0.00     0.163 HD
BRANCH  15  17
HETATM   17  C7  UNK     1      18.900  -0.438  18.455  1.00  0.00     0.161 C 
BRANCH  17  18
HETATM   18  C11 UNK     1      19.230   1.023  18.397  1.00  0.00    -0.041 A 
HETATM   19  C14 UNK     1      19.618   1.696  19.556  1.00  0.00     0.009 A 
HETATM   20  C16 UNK     1      19.925   3.056  19.501  1.00  0.00     0.001 A 
HETATM   21  C18 UNK     1      19.844   3.742  18.290  1.00  0.00     0.000 A 
HETATM   22  C17 UNK     1      19.457   3.068  17.131  1.00  0.00     0.001 A 
HETATM   23  C15 UNK     1      19.148   1.709  17.185  1.00  0.00     0.009 A 
ENDBRANCH  17  18
ENDBRANCH  15  17
ENDBRANCH   7  13
TORSDOF 3
ENDMDL
MODEL 4
REMARK VINA RESULT:      -8.7      1.637      7.433
REMARK  3 active torsions:
REMARK  status: ('A' for Active; 'I' for Inactive)
REMARK       I    between atoms: C12_16  and  N1_4 
REMARK    1  A    between atoms: C7_11  and  N1_4 
REMARK    2  A    between atoms: C12_16  and  C5_9 
REMARK    3  A    between atoms: C11_15  and  C7_11 
ROOT
HETATM    1  O1  UNK     1      18.041   3.636  31.941  1.00  0.00    -0.304 OA
HETATM    2  O2  UNK     1      19.823   6.466  29.607  1.00  0.00    -0.287 OA
HETATM    3  C1  UNK     1      18.737   5.946  31.643  1.00  0.00     0.048 A 
HETATM    4  C2  UNK     1      18.140   4.930  32.390  1.00  0.00     0.090 A 
HETATM    5  C3  UNK     1      18.809   7.246  32.150  1.00  0.00     0.025 A 
HETATM    6  C4  UNK     1      18.279   7.522  33.409  1.00  0.00    -0.061 A 
HETATM    7  C5  UNK     1      18.561   3.346  30.697  1.00  0.00     0.147 A 
HETATM    8  C6  UNK     1      19.288   5.624  30.315  1.00  0.00     0.187 A 
HETATM    9  C8  UNK     1      17.610   5.210  33.650  1.00  0.00     0.039 A 
HETATM   10  C9  UNK     1      19.158   4.220  29.877  1.00  0.00     0.098 A 
HETATM   11  C10 UNK     1      17.680   6.507  34.159  1.00  0.00     0.009 A 
HETATM   12  C13 UNK     1      18.348   8.908  33.959  1.00  0.00     0.048 C 
ENDROOT
BRANCH   7  13
HETATM   13  C12 UNK     1      18.445   1.961  30.237  1.00  0.00     0.275 C 
HETATM   14  O3  UNK     1      17.460   1.583  29.602  1.00  0.00    -0.265 OA
HETATM   15  N1  UNK     1      19.530   1.179  30.595  1.00  0.00    -0.351 N 
HETATM   16  H7  UNK     1      20.287   1.592  31.134  1.00  0.00     0.163 HD
BRANCH  15  17
HETATM   17  C7  UNK     1      19.642  -0.222  30.256  1.00  0.00     0.161 C 
BRANCH  17  18
HETATM   18  C11 UNK     1      19.832  -1.027  31.505  1.00  0.00    -0.041 A 
HETATM   19  C14 UNK     1      18.987  -0.831  32.597  1.00  0.00     0.009 A 
HETATM   20  C16 UNK     1      19.164  -1.581  33.760  1.00  0.00     0.001 A 
HETATM   21  C18 UNK     1      20.186  -2.527  33.830  1.00  0.00     0.000 A 
HETATM   22  C17 UNK     1      21.032  -2.725  32.738  1.00  0.00     0.001 A 
HETATM   23  C15 UNK     1      20.855  -1.974  31.575  1.00  0.00     0.009 A 
ENDBRANCH  17  18
ENDBRANCH  15  17
ENDBRANCH   7  13
TORSDOF 3
ENDMDL
MODEL 5
REMARK VINA RESULT:      -8.6      1.730      7.619
REMARK  3 active torsions:
REMARK  status: ('A' for Active; 'I' for Inactive)
REMARK       I    between atoms: C12_16  and  N1_4 
REMARK    1  A    between atoms: C7_11  and  N1_4 
REMARK    2  A    between atoms: C12_16  and  C5_9 
REMARK    3  A    between atoms: C11_15  and  C7_11 
ROOT
HETATM    1  O1  UNK     1      18.009   4.780  32.198  1.00  0.00    -0.304 OA
HETATM    2  O2  UNK     1      21.683   6.178  31.113  1.00  0.00    -0.287 OA
HETATM    3  C1  UNK     1      19.777   6.423  32.492  1.00  0.00     0.048 A 
HETATM    4  C2  UNK     1      18.527   5.893  32.814  1.00  0.00     0.090 A 
HETATM    5  C3  UNK     1      20.253   7.558  33.152  1.00  0.00     0.025 A 
HETATM    6  C4  UNK     1      19.471   8.160  34.136  1.00  0.00    -0.061 A 
HETATM    7  C5  UNK     1      18.771   4.173  31.222  1.00  0.00     0.147 A 
HETATM    8  C6  UNK     1      20.581   5.766  31.447  1.00  0.00     0.187 A 
HETATM    9  C8  UNK     1      17.746   6.497  33.800  1.00  0.00     0.039 A 
HETATM   10  C9  UNK     1      19.982   4.573  30.815  1.00  0.00     0.098 A 
HETATM   11  C10 UNK     1      18.219   7.632  34.460  1.00  0.00     0.009 A 
HETATM   12  C13 UNK     1      19.970   9.375  34.845  1.00  0.00     0.048 C 
ENDROOT
BRANCH   7  13
HETATM   13  C12 UNK     1      18.200   2.989  30.578  1.00  0.00     0.275 C 
HETATM   14  O3  UNK     1      17.022   2.674  30.756  1.00  0.00    -0.265 OA
HETATM   15  N1  UNK     1      19.112   2.309  29.789  1.00  0.00    -0.351 N 
HETATM   16  H7  UNK     1      20.067   2.651  29.723  1.00  0.00     0.163 HD
BRANCH  15  17
HETATM   17  C7  UNK     1      18.783   1.108  29.055  1.00  0.00     0.161 C 
BRANCH  17  18
HETATM   18  C11 UNK     1      19.417  -0.076  29.719  1.00  0.00    -0.041 A 
HETATM   19  C14 UNK     1      20.131  -1.002  28.958  1.00  0.00     0.009 A 
HETATM   20  C16 UNK     1      20.722  -2.105  29.577  1.00  0.00     0.001 A 
HETATM   21  C18 UNK     1      20.599  -2.280  30.954  1.00  0.00     0.000 A 
HETATM   22  C17 UNK     1      19.885  -1.353  31.716  1.00  0.00     0.001 A 
HETATM   23  C15 UNK     1      19.294  -0.251  31.097  1.00  0.00     0.009 A 
ENDBRANCH  17  18
ENDBRANCH  15  17
ENDBRANCH   7  13
TORSDOF 3
ENDMDL
MODEL 6
REMARK VINA RESULT:      -8.6      1.284      2.379
REMARK  3 active torsions:
REMARK  status: ('A' for Active; 'I' for Inactive)
REMARK       I    between atoms: C12_16  and  N1_4 
REMARK    1  A    between atoms: C7_11  and  N1_4 
REMARK    2  A    between atoms: C12_16  and  C5_9 
REMARK    3  A    between atoms: C11_15  and  C7_11 
ROOT
HETATM    1  O1  UNK     1      19.676   0.917  29.503  1.00  0.00    -0.304 OA
HETATM    2  O2  UNK     1      18.806   0.181  33.419  1.00  0.00    -0.287 OA
HETATM    3  C1  UNK     1      19.756  -0.603  31.399  1.00  0.00     0.048 A 
HETATM    4  C2  UNK     1      20.023  -0.286  30.067  1.00  0.00     0.090 A 
HETATM    5  C3  UNK     1      20.131  -1.843  31.919  1.00  0.00     0.025 A 
HETATM    6  C4  UNK     1      20.775  -2.766  31.096  1.00  0.00    -0.061 A 
HETATM    7  C5  UNK     1      19.038   1.841  30.304  1.00  0.00     0.147 A 
HETATM    8  C6  UNK     1      19.073   0.393  32.245  1.00  0.00     0.187 A 
HETATM    9  C8  UNK     1      20.668  -1.212  29.246  1.00  0.00     0.039 A 
HETATM   10  C9  UNK     1      18.721   1.671  31.594  1.00  0.00     0.098 A 
HETATM   11  C10 UNK     1      21.044  -2.452  29.762  1.00  0.00     0.009 A 
HETATM   12  C13 UNK     1      21.179  -4.096  31.641  1.00  0.00     0.048 C 
ENDROOT
BRANCH   7  13
HETATM   13  C12 UNK     1      18.677   3.118  29.684  1.00  0.00     0.275 C 
HETATM   14  O3  UNK     1      17.982   3.156  28.667  1.00  0.00    -0.265 OA
HETATM   15  N1  UNK     1      19.194   4.212  30.357  1.00  0.00    -0.351 N 
HETATM   16  H7  UNK     1      19.768   4.064  31.182  1.00  0.00     0.163 HD
BRANCH  15  17
HETATM   17  C7  UNK     1      18.975   5.576  29.933  1.00  0.00     0.161 C 
BRANCH  17  18
HETATM   18  C11 UNK     1      18.678   6.431  31.127  1.00  0.00    -0.041 A 
HETATM   19  C14 UNK     1      17.474   7.132  31.201  1.00  0.00     0.009 A 
HETATM   20  C16 UNK     1      17.198   7.928  32.313  1.00  0.00     0.001 A 
HETATM   21  C18 UNK     1      18.125   8.023  33.350  1.00  0.00     0.000 A 
HETATM   22  C17 UNK     1      19.330   7.322  33.277  1.00  0.00     0.001 A 
HETATM   23  C15 UNK     1      19.607   6.526  32.164  1.00  0.00     0.009 A 
ENDBRANCH  17  18
ENDBRANCH  15  17
ENDBRANCH   7  13
TORSDOF 3
ENDMDL
MODEL 7
REMARK VINA RESULT:      -8.5     10.842     14.217
REMARK  3 active torsions:
REMARK  status: ('A' for Active; 'I' for Inactive)
REMARK       I    between atoms: C12_16  and  N1_4 
REMARK    1  A    between atoms: C7_11  and  N1_4 
REMARK    2  A    between atoms: C12_16  and  C5_9 
REMARK    3  A    between atoms: C11_15  and  C7_11 
ROOT
HETATM    1  O1  UNK     1      22.034  -9.223  35.491  1.00  0.00    -0.304 OA
HETATM    2  O2  UNK     1      19.220 -11.058  37.804  1.00  0.00    -0.287 OA
HETATM    3  C1  UNK     1      19.787  -9.226  36.419  1.00  0.00     0.048 A 
HETATM    4  C2  UNK     1      20.795  -8.652  35.644  1.00  0.00     0.090 A 
HETATM    5  C3  UNK     1      18.545  -8.599  36.539  1.00  0.00     0.025 A 
HETATM    6  C4  UNK     1      18.317  -7.393  35.878  1.00  0.00    -0.061 A 
HETATM    7  C5  UNK     1      22.274 -10.417  36.139  1.00  0.00     0.147 A 
HETATM    8  C6  UNK     1      20.056 -10.501  37.107  1.00  0.00     0.187 A 
HETATM    9  C8  UNK     1      20.564  -7.444  34.983  1.00  0.00     0.039 A 
HETATM   10  C9  UNK     1      21.402 -11.076  36.912  1.00  0.00     0.098 A 
HETATM   11  C10 UNK     1      19.324  -6.816  35.101  1.00  0.00     0.009 A 
HETATM   12  C13 UNK     1      16.994  -6.713  36.001  1.00  0.00     0.048 C 
ENDROOT
BRANCH   7  13
HETATM   13  C12 UNK     1      23.602 -11.010  35.964  1.00  0.00     0.275 C 
HETATM   14  O3  UNK     1      23.755 -12.039  35.304  1.00  0.00    -0.265 OA
HETATM   15  N1  UNK     1      24.602 -10.299  36.605  1.00  0.00    -0.351 N 
HETATM   16  H7  UNK     1      24.360  -9.466  37.135  1.00  0.00     0.163 HD
BRANCH  15  17
HETATM   17  C7  UNK     1      25.993 -10.691  36.578  1.00  0.00     0.161 C 
BRANCH  17  18
HETATM   18  C11 UNK     1      26.791  -9.769  37.449  1.00  0.00    -0.041 A 
HETATM   19  C14 UNK     1      26.970 -10.067  38.800  1.00  0.00     0.009 A 
HETATM   20  C16 UNK     1      27.713  -9.208  39.610  1.00  0.00     0.001 A 
HETATM   21  C18 UNK     1      28.278  -8.054  39.069  1.00  0.00     0.000 A 
HETATM   22  C17 UNK     1      28.101  -7.756  37.717  1.00  0.00     0.001 A 
HETATM   23  C15 UNK     1      27.357  -8.614  36.907  1.00  0.00     0.009 A 
ENDBRANCH  17  18
ENDBRANCH  15  17
ENDBRANCH   7  13
TORSDOF 3
ENDMDL
MODEL 8
REMARK VINA RESULT:      -8.5      6.652      8.850
REMARK  3 active torsions:
REMARK  status: ('A' for Active; 'I' for Inactive)
REMARK       I    between atoms: C12_16  and  N1_4 
REMARK    1  A    between atoms: C7_11  and  N1_4 
REMARK    2  A    between atoms: C12_16  and  C5_9 
REMARK    3  A    between atoms: C11_15  and  C7_11 
ROOT
HETATM    1  O1  UNK     1      20.092  -5.532  38.072  1.00  0.00    -0.304 OA
HETATM    2  O2  UNK     1      18.509  -7.504  34.872  1.00  0.00    -0.287 OA
HETATM    3  C1  UNK     1      19.364  -7.626  37.075  1.00  0.00     0.048 A 
HETATM    4  C2  UNK     1      19.901  -6.890  38.132  1.00  0.00     0.090 A 
HETATM    5  C3  UNK     1      19.192  -9.007  37.191  1.00  0.00     0.025 A 
HETATM    6  C4  UNK     1      19.562  -9.648  38.373  1.00  0.00    -0.061 A 
HETATM    7  C5  UNK     1      19.732  -4.883  36.910  1.00  0.00     0.147 A 
HETATM    8  C6  UNK     1      18.983  -6.921  35.838  1.00  0.00     0.187 A 
HETATM    9  C8  UNK     1      20.270  -7.535  39.313  1.00  0.00     0.039 A 
HETATM   10  C9  UNK     1      19.207  -5.462  35.822  1.00  0.00     0.098 A 
HETATM   11  C10 UNK     1      20.100  -8.914  39.432  1.00  0.00     0.009 A 
HETATM   12  C13 UNK     1      19.384 -11.124  38.507  1.00  0.00     0.048 C 
ENDROOT
BRANCH   7  13
HETATM   13  C12 UNK     1      19.944  -3.435  36.866  1.00  0.00     0.275 C 
HETATM   14  O3  UNK     1      20.492  -2.845  37.799  1.00  0.00    -0.265 OA
HETATM   15  N1  UNK     1      19.471  -2.852  35.703  1.00  0.00    -0.351 N 
HETATM   16  H7  UNK     1      19.021  -3.434  35.001  1.00  0.00     0.163 HD
BRANCH  15  17
HETATM   17  C7  UNK     1      19.564  -1.436  35.433  1.00  0.00     0.161 C 
BRANCH  17  18
HETATM   18  C11 UNK     1      18.253  -0.778  35.739  1.00  0.00    -0.041 A 
HETATM   19  C14 UNK     1      18.027  -0.230  37.002  1.00  0.00     0.009 A 
HETATM   20  C16 UNK     1      16.805   0.382  37.287  1.00  0.00     0.001 A 
HETATM   21  C18 UNK     1      15.813   0.446  36.310  1.00  0.00     0.000 A 
HETATM   22  C17 UNK     1      16.039  -0.101  35.046  1.00  0.00     0.001 A 
HETATM   23  C15 UNK     1      17.260  -0.714  34.761  1.00  0.00     0.009 A 
ENDBRANCH  17  18
ENDBRANCH  15  17
ENDBRANCH   7  13
TORSDOF 3
ENDMDL
MODEL 9
REMARK VINA RESULT:      -8.5      5.101      9.474
REMARK  3 active torsions:
REMARK  status: ('A' for Active; 'I' for Inactive)
REMARK       I    between atoms: C12_16  and  N1_4 
REMARK    1  A    between atoms: C7_11  and  N1_4 
REMARK    2  A    between atoms: C12_16  and  C5_9 
REMARK    3  A    between atoms: C11_15  and  C7_11 
ROOT
HETATM    1  O1  UNK     1      20.497  -2.970  34.463  1.00  0.00    -0.304 OA
HETATM    2  O2  UNK     1      17.846   0.054  33.780  1.00  0.00    -0.287 OA
HETATM    3  C1  UNK     1      19.432  -1.457  32.885  1.00  0.00     0.048 A 
HETATM    4  C2  UNK     1      20.321  -2.489  33.189  1.00  0.00     0.090 A 
HETATM    5  C3  UNK     1      19.294  -1.008  31.570  1.00  0.00     0.025 A 
HETATM    6  C4  UNK     1      20.054  -1.596  30.560  1.00  0.00    -0.061 A 
HETATM    7  C5  UNK     1      19.753  -2.398  35.473  1.00  0.00     0.147 A 
HETATM    8  C6  UNK     1      18.642  -0.854  33.974  1.00  0.00     0.187 A 
HETATM    9  C8  UNK     1      21.080  -3.076  32.175  1.00  0.00     0.039 A 
HETATM   10  C9  UNK     1      18.866  -1.406  35.326  1.00  0.00     0.098 A 
HETATM   11  C10 UNK     1      20.945  -2.628  30.861  1.00  0.00     0.009 A 
HETATM   12  C13 UNK     1      19.916  -1.121  29.152  1.00  0.00     0.048 C 
ENDROOT
BRANCH   7  13
HETATM   13  C12 UNK     1      19.955  -2.925  36.824  1.00  0.00     0.275 C 
HETATM   14  O3  UNK     1      19.544  -2.315  37.812  1.00  0.00    -0.265 OA
HETATM   15  N1  UNK     1      20.634  -4.132  36.840  1.00  0.00    -0.351 N 
HETATM   16  H7  UNK     1      20.941  -4.542  35.961  1.00  0.00     0.163 HD
BRANCH  15  17
HETATM   17  C7  UNK     1      20.954  -4.845  38.055  1.00  0.00     0.161 C 
BRANCH  17  18
HETATM   18  C11 UNK     1      20.263  -6.175  38.054  1.00  0.00    -0.041 A 
HETATM   19  C14 UNK     1      20.333  -6.997  39.178  1.00  0.00     0.009 A 
HETATM   20  C16 UNK     1      19.690  -8.236  39.176  1.00  0.00     0.001 A 
HETATM   21  C18 UNK     1      18.978  -8.650  38.052  1.00  0.00     0.000 A 
HETATM   22  C17 UNK     1      18.907  -7.827  36.927  1.00  0.00     0.001 A 
HETATM   23  C15 UNK     1      19.551  -6.589  36.928  1.00  0.00     0.009 A 
ENDBRANCH  17  18
ENDBRANCH  15  17
ENDBRANCH   7  13
TORSDOF 3
ENDMDL
MODEL 10
REMARK VINA RESULT:      -8.4      6.358      8.394
REMARK  3 active torsions:
REMARK  status: ('A' for Active; 'I' for Inactive)
REMARK       I    between atoms: C12_16  and  N1_4 
REMARK    1  A    between atoms: C7_11  and  N1_4 
REMARK    2  A    between atoms: C12_16  and  C5_9 
REMARK    3  A    between atoms: C11_15  and  C7_11 
ROOT
HETATM    1  O1  UNK     1      21.499  -4.214  37.237  1.00  0.00    -0.304 OA
HETATM    2  O2  UNK     1      18.325  -6.774  37.285  1.00  0.00    -0.287 OA
HETATM    3  C1  UNK     1      20.519  -6.293  38.027  1.00  0.00     0.048 A 
HETATM    4  C2  UNK     1      21.567  -5.374  37.966  1.00  0.00     0.090 A 
HETATM    5  C3  UNK     1      20.645  -7.459  38.786  1.00  0.00     0.025 A 
HETATM    6  C4  UNK     1      21.827  -7.700  39.484  1.00  0.00    -0.061 A 
HETATM    7  C5  UNK     1      20.336  -3.961  36.541  1.00  0.00     0.147 A 
HETATM    8  C6  UNK     1      19.281  -6.012  37.278  1.00  0.00     0.187 A 
HETATM    9  C8  UNK     1      22.750  -5.619  38.667  1.00  0.00     0.039 A 
HETATM   10  C9  UNK     1      19.256  -4.751  36.509  1.00  0.00     0.098 A 
HETATM   11  C10 UNK     1      22.878  -6.783  39.425  1.00  0.00     0.009 A 
HETATM   12  C13 UNK     1      21.972  -8.944  40.297  1.00  0.00     0.048 C 
ENDROOT
BRANCH   7  13
HETATM   13  C12 UNK     1      20.283  -2.717  35.768  1.00  0.00     0.275 C 
HETATM   14  O3  UNK     1      21.312  -2.101  35.486  1.00  0.00    -0.265 OA
HETATM   15  N1  UNK     1      18.994  -2.349  35.421  1.00  0.00    -0.351 N 
HETATM   16  H7  UNK     1      18.213  -2.928  35.720  1.00  0.00     0.163 HD
BRANCH  15  17
HETATM   17  C7  UNK     1      18.689  -1.158  34.661  1.00  0.00     0.161 C 
BRANCH  17  18
HETATM   18  C11 UNK     1      17.957  -0.182  35.530  1.00  0.00    -0.041 A 
HETATM   19  C14 UNK     1      16.577  -0.296  35.698  1.00  0.00     0.009 A 
HETATM   20  C16 UNK     1      15.896   0.614  36.507  1.00  0.00     0.001 A 
HETATM   21  C18 UNK     1      16.594   1.636  37.148  1.00  0.00     0.000 A 
HETATM   22  C17 UNK     1      17.975   1.750  36.982  1.00  0.00     0.001 A 
HETATM   23  C15 UNK     1      18.657   0.841  36.172  1.00  0.00     0.009 A 
ENDBRANCH  17  18
ENDBRANCH  15  17
ENDBRANCH   7  13
TORSDOF 3
ENDMDL
