MODEL 1
REMARK VINA RESULT:      -9.8      0.000      0.000
REMARK  10 active torsions:
REMARK  status: ('A' for Active; 'I' for Inactive)
REMARK    1  A    between atoms: C4_15  and  O2_2 
REMARK    2  A    between atoms: C7_18  and  O2_2 
REMARK    3  A    between atoms: C1_12  and  O3_3 
REMARK    4  A    between atoms: C2_13  and  O4_4 
REMARK    5  A    between atoms: C3_14  and  O5_5 
REMARK    6  A    between atoms: C6_17  and  O7_7 
REMARK    7  A    between atoms: C15_26  and  O9_9 
REMARK    8  A    between atoms: C17_28  and  O11_11 
REMARK    9  A    between atoms: C5_16  and  C6_17 
REMARK   10  A    between atoms: C16_27  and  C8_19 
ROOT
HETATM    1  O6  UNK     1      19.799  -1.492  33.619  1.00  0.00    -0.340 OA
HETATM    2  O10 UNK     1      17.244   1.161  35.427  1.00  0.00    -0.292 OA
HETATM    3  C7  UNK     1      19.594  -3.018  36.917  1.00  0.00     0.077 A 
HETATM    4  C8  UNK     1      18.846  -0.746  32.844  1.00  0.00     0.172 C 
HETATM    5  C9  UNK     1      18.551   0.605  33.493  1.00  0.00     0.121 C 
HETATM    6  C10 UNK     1      19.405  -1.675  34.918  1.00  0.00     0.089 A 
HETATM    7  C11 UNK     1      18.521  -0.820  35.583  1.00  0.00     0.076 A 
HETATM    8  C12 UNK     1      19.953  -2.766  35.593  1.00  0.00     0.074 A 
HETATM    9  C13 UNK     1      18.012   0.377  34.881  1.00  0.00     0.167 C 
HETATM   10  C14 UNK     1      18.694  -2.176  37.572  1.00  0.00     0.074 A 
HETATM   11  C15 UNK     1      18.158  -1.071  36.909  1.00  0.00     0.085 A 
ENDROOT
BRANCH   3  12
HETATM   12  O2  UNK     1      20.123  -4.095  37.576  1.00  0.00    -0.318 OA
BRANCH  12  13
HETATM   13  C4  UNK     1      20.888  -5.011  36.795  1.00  0.00     0.298 C 
HETATM   14  C2  UNK     1      20.098  -6.298  36.533  1.00  0.00     0.205 C 
HETATM   15  C1  UNK     1      19.895  -7.116  37.812  1.00  0.00     0.183 C 
HETATM   16  C3  UNK     1      21.254  -7.340  38.483  1.00  0.00     0.188 C 
HETATM   17  C5  UNK     1      22.015  -6.024  38.647  1.00  0.00     0.255 C 
HETATM   18  O1  UNK     1      22.141  -5.322  37.410  1.00  0.00    -0.340 OA
BRANCH  14  19
HETATM   19  O4  UNK     1      18.851  -5.988  35.926  1.00  0.00    -0.388 OA
HETATM   20  H7  UNK     1      18.362  -6.821  35.821  1.00  0.00     0.210 HD
ENDBRANCH  14  19
BRANCH  15  21
HETATM   21  O3  UNK     1      19.004  -6.444  38.704  1.00  0.00    -0.390 OA
HETATM   22  H6  UNK     1      19.123  -5.490  38.568  1.00  0.00     0.210 HD
ENDBRANCH  15  21
BRANCH  16  23
HETATM   23  O5  UNK     1      21.075  -7.950  39.757  1.00  0.00    -0.390 OA
HETATM   24  H8  UNK     1      21.006  -8.910  39.621  1.00  0.00     0.210 HD
ENDBRANCH  16  23
BRANCH  17  25
HETATM   25  C6  UNK     1      23.437  -6.279  39.029  1.00  0.00     0.290 C 
HETATM   26  O8  UNK     1      24.264  -5.397  39.218  1.00  0.00    -0.262 OA
BRANCH  25  27
HETATM   27  O7  UNK     1      23.649  -7.622  39.127  1.00  0.00    -0.324 OA
HETATM   28  C19 UNK     1      24.958  -8.067  38.754  1.00  0.00     0.213 C 
ENDBRANCH  25  27
ENDBRANCH  17  25
ENDBRANCH  12  13
ENDBRANCH   3  12
BRANCH  11  29
HETATM   29  O9  UNK     1      17.298  -0.273  37.601  1.00  0.00    -0.360 OA
HETATM   30  H20 UNK     1      17.164   0.566  37.135  1.00  0.00     0.217 HD
ENDBRANCH  11  29
BRANCH   4  31
HETATM   31  C16 UNK     1      19.398  -0.571  31.446  1.00  0.00     0.005 A 
HETATM   32  C17 UNK     1      20.124  -1.594  30.832  1.00  0.00     0.074 A 
HETATM   33  C20 UNK     1      20.625  -1.415  29.543  1.00  0.00     0.037 A 
HETATM   34  C22 UNK     1      20.403  -0.216  28.866  1.00  0.00     0.003 A 
HETATM   35  C21 UNK     1      19.678   0.806  29.480  1.00  0.00     0.001 A 
HETATM   36  C18 UNK     1      19.176   0.628  30.769  1.00  0.00     0.012 A 
BRANCH  32  37
HETATM   37  O11 UNK     1      20.350  -2.771  31.478  1.00  0.00    -0.360 OA
HETATM   38  H22 UNK     1      20.596  -3.449  30.825  1.00  0.00     0.217 HD
ENDBRANCH  32  37
ENDBRANCH   4  31
TORSDOF 10
ENDMDL
MODEL 2
REMARK VINA RESULT:      -9.6      1.686      2.455
REMARK  10 active torsions:
REMARK  status: ('A' for Active; 'I' for Inactive)
REMARK    1  A    between atoms: C4_15  and  O2_2 
REMARK    2  A    between atoms: C7_18  and  O2_2 
REMARK    3  A    between atoms: C1_12  and  O3_3 
REMARK    4  A    between atoms: C2_13  and  O4_4 
REMARK    5  A    between atoms: C3_14  and  O5_5 
REMARK    6  A    between atoms: C6_17  and  O7_7 
REMARK    7  A    between atoms: C15_26  and  O9_9 
REMARK    8  A    between atoms: C17_28  and  O11_11 
REMARK    9  A    between atoms: C5_16  and  C6_17 
REMARK   10  A    between atoms: C16_27  and  C8_19 
ROOT
HETATM    1  O6  UNK     1      20.011  -1.949  33.543  1.00  0.00    -0.340 OA
HETATM    2  O10 UNK     1      17.490   0.450  35.715  1.00  0.00    -0.292 OA
HETATM    3  C7  UNK     1      19.992  -3.795  36.681  1.00  0.00     0.077 A 
HETATM    4  C8  UNK     1      19.008  -1.156  32.888  1.00  0.00     0.172 C 
HETATM    5  C9  UNK     1      18.716   0.118  33.680  1.00  0.00     0.121 C 
HETATM    6  C10 UNK     1      19.682  -2.268  34.834  1.00  0.00     0.089 A 
HETATM    7  C11 UNK     1      18.813  -1.505  35.619  1.00  0.00     0.076 A 
HETATM    8  C12 UNK     1      20.283  -3.407  35.373  1.00  0.00     0.074 A 
HETATM    9  C13 UNK     1      18.247  -0.258  35.061  1.00  0.00     0.167 C 
HETATM   10  C14 UNK     1      19.107  -3.043  37.454  1.00  0.00     0.074 A 
HETATM   11  C15 UNK     1      18.518  -1.893  36.928  1.00  0.00     0.085 A 
ENDROOT
BRANCH   3  12
HETATM   12  O2  UNK     1      20.572  -4.918  37.205  1.00  0.00    -0.318 OA
BRANCH  12  13
HETATM   13  C4  UNK     1      19.743  -6.071  37.327  1.00  0.00     0.298 C 
HETATM   14  C2  UNK     1      19.954  -6.754  38.683  1.00  0.00     0.205 C 
HETATM   15  C1  UNK     1      21.342  -7.390  38.795  1.00  0.00     0.183 C 
HETATM   16  C3  UNK     1      21.569  -8.307  37.589  1.00  0.00     0.188 C 
HETATM   17  C5  UNK     1      21.272  -7.581  36.276  1.00  0.00     0.255 C 
HETATM   18  O1  UNK     1      19.965  -7.006  36.268  1.00  0.00    -0.340 OA
BRANCH  14  19
HETATM   19  O4  UNK     1      19.736  -5.824  39.735  1.00  0.00    -0.388 OA
HETATM   20  H7  UNK     1      19.507  -4.971  39.330  1.00  0.00     0.210 HD
ENDBRANCH  14  19
BRANCH  15  21
HETATM   21  O3  UNK     1      22.354  -6.384  38.853  1.00  0.00    -0.390 OA
HETATM   22  H6  UNK     1      22.844  -6.515  39.682  1.00  0.00     0.210 HD
ENDBRANCH  15  21
BRANCH  16  23
HETATM   23  O5  UNK     1      22.913  -8.779  37.580  1.00  0.00    -0.390 OA
HETATM   24  H8  UNK     1      23.346  -8.464  38.391  1.00  0.00     0.210 HD
ENDBRANCH  16  23
BRANCH  17  25
HETATM   25  C6  UNK     1      21.215  -8.548  35.138  1.00  0.00     0.290 C 
HETATM   26  O8  UNK     1      21.301  -8.226  33.960  1.00  0.00    -0.262 OA
BRANCH  25  27
HETATM   27  O7  UNK     1      21.052  -9.813  35.621  1.00  0.00    -0.324 OA
HETATM   28  C19 UNK     1      21.847 -10.820  34.987  1.00  0.00     0.213 C 
ENDBRANCH  25  27
ENDBRANCH  17  25
ENDBRANCH  12  13
ENDBRANCH   3  12
BRANCH  11  29
HETATM   29  O9  UNK     1      17.675  -1.187  37.733  1.00  0.00    -0.360 OA
HETATM   30  H20 UNK     1      16.752  -1.373  37.504  1.00  0.00     0.217 HD
ENDBRANCH  11  29
BRANCH   4  31
HETATM   31  C16 UNK     1      19.491  -0.832  31.491  1.00  0.00     0.005 A 
HETATM   32  C17 UNK     1      20.117  -1.804  30.709  1.00  0.00     0.074 A 
HETATM   33  C20 UNK     1      20.555  -1.488  29.423  1.00  0.00     0.037 A 
HETATM   34  C22 UNK     1      20.369  -0.201  28.918  1.00  0.00     0.003 A 
HETATM   35  C21 UNK     1      19.744   0.770  29.700  1.00  0.00     0.001 A 
HETATM   36  C18 UNK     1      19.305   0.455  30.986  1.00  0.00     0.012 A 
BRANCH  32  37
HETATM   37  O11 UNK     1      20.306  -3.065  31.186  1.00  0.00    -0.360 OA
HETATM   38  H22 UNK     1      19.895  -3.701  30.575  1.00  0.00     0.217 HD
ENDBRANCH  32  37
ENDBRANCH   4  31
TORSDOF 10
ENDMDL
MODEL 3
REMARK VINA RESULT:      -9.4      5.072      7.929
REMARK  10 active torsions:
REMARK  status: ('A' for Active; 'I' for Inactive)
REMARK    1  A    between atoms: C4_15  and  O2_2 
REMARK    2  A    between atoms: C7_18  and  O2_2 
REMARK    3  A    between atoms: C1_12  and  O3_3 
REMARK    4  A    between atoms: C2_13  and  O4_4 
REMARK    5  A    between atoms: C3_14  and  O5_5 
REMARK    6  A    between atoms: C6_17  and  O7_7 
REMARK    7  A    between atoms: C15_26  and  O9_9 
REMARK    8  A    between atoms: C17_28  and  O11_11 
REMARK    9  A    between atoms: C5_16  and  C6_17 
REMARK   10  A    between atoms: C16_27  and  C8_19 
ROOT
HETATM    1  O6  UNK     1      17.783   5.940  33.543  1.00  0.00    -0.340 OA
HETATM    2  O10 UNK     1      18.761   5.231  29.622  1.00  0.00    -0.292 OA
HETATM    3  C7  UNK     1      18.345   2.347  33.711  1.00  0.00     0.077 A 
HETATM    4  C8  UNK     1      18.380   6.969  32.738  1.00  0.00     0.172 C 
HETATM    5  C9  UNK     1      18.000   6.803  31.267  1.00  0.00     0.121 C 
HETATM    6  C10 UNK     1      18.104   4.677  33.119  1.00  0.00     0.089 A 
HETATM    7  C11 UNK     1      18.466   4.374  31.803  1.00  0.00     0.076 A 
HETATM    8  C12 UNK     1      18.028   3.658  34.070  1.00  0.00     0.074 A 
HETATM    9  C13 UNK     1      18.462   5.451  30.790  1.00  0.00     0.167 C 
HETATM   10  C14 UNK     1      18.727   2.051  32.402  1.00  0.00     0.074 A 
HETATM   11  C15 UNK     1      18.785   3.062  31.442  1.00  0.00     0.085 A 
ENDROOT
BRANCH   3  12
HETATM   12  O2  UNK     1      18.283   1.349  34.646  1.00  0.00    -0.318 OA
BRANCH  12  13
HETATM   13  C4  UNK     1      18.006   0.036  34.164  1.00  0.00     0.298 C 
HETATM   14  C2  UNK     1      16.687  -0.490  34.741  1.00  0.00     0.205 C 
HETATM   15  C1  UNK     1      16.785  -0.754  36.246  1.00  0.00     0.183 C 
HETATM   16  C3  UNK     1      17.992  -1.658  36.517  1.00  0.00     0.188 C 
HETATM   17  C5  UNK     1      19.256  -1.109  35.853  1.00  0.00     0.255 C 
HETATM   18  O1  UNK     1      19.067  -0.877  34.456  1.00  0.00    -0.340 OA
BRANCH  14  19
HETATM   19  O4  UNK     1      15.633   0.419  34.454  1.00  0.00    -0.388 OA
HETATM   20  H7  UNK     1      14.806   0.019  34.772  1.00  0.00     0.210 HD
ENDBRANCH  14  19
BRANCH  15  21
HETATM   21  O3  UNK     1      16.910   0.472  36.967  1.00  0.00    -0.390 OA
HETATM   22  H6  UNK     1      17.463   0.295  37.746  1.00  0.00     0.210 HD
ENDBRANCH  15  21
BRANCH  16  23
HETATM   23  O5  UNK     1      18.206  -1.782  37.919  1.00  0.00    -0.390 OA
HETATM   24  H8  UNK     1      17.455  -2.272  38.294  1.00  0.00     0.210 HD
ENDBRANCH  16  23
BRANCH  17  25
HETATM   25  C6  UNK     1      20.350  -2.126  35.874  1.00  0.00     0.290 C 
HETATM   26  O8  UNK     1      21.524  -1.875  35.638  1.00  0.00    -0.262 OA
BRANCH  25  27
HETATM   27  O7  UNK     1      19.831  -3.348  36.189  1.00  0.00    -0.324 OA
HETATM   28  C19 UNK     1      20.608  -4.129  37.102  1.00  0.00     0.213 C 
ENDBRANCH  25  27
ENDBRANCH  17  25
ENDBRANCH  12  13
ENDBRANCH   3  12
BRANCH  11  29
HETATM   29  O9  UNK     1      19.148   2.715  30.176  1.00  0.00    -0.360 OA
HETATM   30  H20 UNK     1      19.771   3.362  29.812  1.00  0.00     0.217 HD
ENDBRANCH  11  29
BRANCH   4  31
HETATM   31  C16 UNK     1      17.931   8.313  33.268  1.00  0.00     0.005 A 
HETATM   32  C17 UNK     1      16.573   8.604  33.418  1.00  0.00     0.074 A 
HETATM   33  C20 UNK     1      16.177   9.847  33.909  1.00  0.00     0.037 A 
HETATM   34  C22 UNK     1      17.135  10.802  34.250  1.00  0.00     0.003 A 
HETATM   35  C21 UNK     1      18.491  10.512  34.100  1.00  0.00     0.001 A 
HETATM   36  C18 UNK     1      18.889   9.268  33.609  1.00  0.00     0.012 A 
BRANCH  32  37
HETATM   37  O11 UNK     1      15.624   7.683  33.090  1.00  0.00    -0.360 OA
HETATM   38  H22 UNK     1      15.852   7.285  32.232  1.00  0.00     0.217 HD
ENDBRANCH  32  37
ENDBRANCH   4  31
TORSDOF 10
ENDMDL
MODEL 4
REMARK VINA RESULT:      -9.0     27.923     31.623
REMARK  10 active torsions:
REMARK  status: ('A' for Active; 'I' for Inactive)
REMARK    1  A    between atoms: C4_15  and  O2_2 
REMARK    2  A    between atoms: C7_18  and  O2_2 
REMARK    3  A    between atoms: C1_12  and  O3_3 
REMARK    4  A    between atoms: C2_13  and  O4_4 
REMARK    5  A    between atoms: C3_14  and  O5_5 
REMARK    6  A    between atoms: C6_17  and  O7_7 
REMARK    7  A    between atoms: C15_26  and  O9_9 
REMARK    8  A    between atoms: C17_28  and  O11_11 
REMARK    9  A    between atoms: C5_16  and  C6_17 
REMARK   10  A    between atoms: C16_27  and  C8_19 
ROOT
HETATM    1  O6  UNK     1      13.046   8.016   8.455  1.00  0.00    -0.340 OA
HETATM    2  O10 UNK     1      15.171   5.065  10.355  1.00  0.00    -0.292 OA
HETATM    3  C7  UNK     1      16.086   9.868   9.215  1.00  0.00     0.077 A 
HETATM    4  C8  UNK     1      12.815   6.631   8.147  1.00  0.00     0.172 C 
HETATM    5  C9  UNK     1      13.096   5.747   9.361  1.00  0.00     0.121 C 
HETATM    6  C10 UNK     1      14.311   8.255   8.924  1.00  0.00     0.089 A 
HETATM    7  C11 UNK     1      15.093   7.287   9.559  1.00  0.00     0.076 A 
HETATM    8  C12 UNK     1      14.803   9.552   8.766  1.00  0.00     0.074 A 
HETATM    9  C13 UNK     1      14.526   5.942   9.792  1.00  0.00     0.167 C 
HETATM   10  C14 UNK     1      16.874   8.894   9.830  1.00  0.00     0.074 A 
HETATM   11  C15 UNK     1      16.379   7.602  10.008  1.00  0.00     0.085 A 
ENDROOT
BRANCH   3  12
HETATM   12  O2  UNK     1      16.574  11.136   9.050  1.00  0.00    -0.318 OA
BRANCH  12  13
HETATM   13  C4  UNK     1      16.871  11.539   7.715  1.00  0.00     0.298 C 
HETATM   14  C2  UNK     1      18.267  12.166   7.632  1.00  0.00     0.205 C 
HETATM   15  C1  UNK     1      18.335  13.513   8.357  1.00  0.00     0.183 C 
HETATM   16  C3  UNK     1      17.211  14.416   7.840  1.00  0.00     0.188 C 
HETATM   17  C5  UNK     1      15.860  13.702   7.886  1.00  0.00     0.255 C 
HETATM   18  O1  UNK     1      15.895  12.449   7.200  1.00  0.00    -0.340 OA
BRANCH  14  19
HETATM   19  O4  UNK     1      19.237  11.264   8.146  1.00  0.00    -0.388 OA
HETATM   20  H7  UNK     1      18.963  11.021   9.047  1.00  0.00     0.210 HD
ENDBRANCH  14  19
BRANCH  15  21
HETATM   21  O3  UNK     1      18.218  13.332   9.769  1.00  0.00    -0.390 OA
HETATM   22  H6  UNK     1      19.067  13.591  10.165  1.00  0.00     0.210 HD
ENDBRANCH  15  21
BRANCH  16  23
HETATM   23  O5  UNK     1      17.146  15.609   8.615  1.00  0.00    -0.390 OA
HETATM   24  H8  UNK     1      16.707  15.396   9.455  1.00  0.00     0.210 HD
ENDBRANCH  16  23
BRANCH  17  25
HETATM   25  C6  UNK     1      14.829  14.468   7.122  1.00  0.00     0.290 C 
HETATM   26  O8  UNK     1      14.597  14.305   5.931  1.00  0.00    -0.262 OA
BRANCH  25  27
HETATM   27  O7  UNK     1      14.211  15.355   7.953  1.00  0.00    -0.324 OA
HETATM   28  C19 UNK     1      13.065  14.851   8.648  1.00  0.00     0.213 C 
ENDBRANCH  25  27
ENDBRANCH  17  25
ENDBRANCH  12  13
ENDBRANCH   3  12
BRANCH  11  29
HETATM   29  O9  UNK     1      17.184   6.695  10.629  1.00  0.00    -0.360 OA
HETATM   30  H20 UNK     1      18.019   6.595  10.148  1.00  0.00     0.217 HD
ENDBRANCH  11  29
BRANCH   4  31
HETATM   31  C16 UNK     1      11.385   6.477   7.678  1.00  0.00     0.005 A 
HETATM   32  C17 UNK     1      11.096   6.256   6.331  1.00  0.00     0.074 A 
HETATM   33  C20 UNK     1       9.772   6.115   5.916  1.00  0.00     0.037 A 
HETATM   34  C22 UNK     1       8.736   6.196   6.847  1.00  0.00     0.003 A 
HETATM   35  C21 UNK     1       9.025   6.417   8.193  1.00  0.00     0.001 A 
HETATM   36  C18 UNK     1      10.349   6.558   8.609  1.00  0.00     0.012 A 
BRANCH  32  37
HETATM   37  O11 UNK     1      12.095   6.174   5.409  1.00  0.00    -0.360 OA
HETATM   38  H22 UNK     1      12.335   7.071   5.121  1.00  0.00     0.217 HD
ENDBRANCH  32  37
ENDBRANCH   4  31
TORSDOF 10
ENDMDL
MODEL 5
REMARK VINA RESULT:      -9.0     27.930     31.465
REMARK  10 active torsions:
REMARK  status: ('A' for Active; 'I' for Inactive)
REMARK    1  A    between atoms: C4_15  and  O2_2 
REMARK    2  A    between atoms: C7_18  and  O2_2 
REMARK    3  A    between atoms: C1_12  and  O3_3 
REMARK    4  A    between atoms: C2_13  and  O4_4 
REMARK    5  A    between atoms: C3_14  and  O5_5 
REMARK    6  A    between atoms: C6_17  and  O7_7 
REMARK    7  A    between atoms: C15_26  and  O9_9 
REMARK    8  A    between atoms: C17_28  and  O11_11 
REMARK    9  A    between atoms: C5_16  and  C6_17 
REMARK   10  A    between atoms: C16_27  and  C8_19 
ROOT
HETATM    1  O6  UNK     1      13.071   8.259   8.314  1.00  0.00    -0.340 OA
HETATM    2  O10 UNK     1      14.980   5.425  10.585  1.00  0.00    -0.292 OA
HETATM    3  C7  UNK     1      16.169  10.041   9.007  1.00  0.00     0.077 A 
HETATM    4  C8  UNK     1      12.784   6.863   8.137  1.00  0.00     0.172 C 
HETATM    5  C9  UNK     1      12.978   6.095   9.444  1.00  0.00     0.121 C 
HETATM    6  C10 UNK     1      14.329   8.489   8.808  1.00  0.00     0.089 A 
HETATM    7  C11 UNK     1      15.040   7.556   9.568  1.00  0.00     0.076 A 
HETATM    8  C12 UNK     1      14.889   9.739   8.541  1.00  0.00     0.074 A 
HETATM    9  C13 UNK     1      14.400   6.268   9.911  1.00  0.00     0.167 C 
HETATM   10  C14 UNK     1      16.885   9.100   9.748  1.00  0.00     0.074 A 
HETATM   11  C15 UNK     1      16.322   7.857  10.035  1.00  0.00     0.085 A 
ENDROOT
BRANCH   3  12
HETATM   12  O2  UNK     1      16.724  11.263   8.736  1.00  0.00    -0.318 OA
BRANCH  12  13
HETATM   13  C4  UNK     1      18.133  11.379   8.912  1.00  0.00     0.298 C 
HETATM   14  C2  UNK     1      18.467  12.475   9.931  1.00  0.00     0.205 C 
HETATM   15  C1  UNK     1      18.131  13.871   9.401  1.00  0.00     0.183 C 
HETATM   16  C3  UNK     1      18.798  14.062   8.035  1.00  0.00     0.188 C 
HETATM   17  C5  UNK     1      18.479  12.898   7.096  1.00  0.00     0.255 C 
HETATM   18  O1  UNK     1      18.809  11.636   7.678  1.00  0.00    -0.340 OA
BRANCH  14  19
HETATM   19  O4  UNK     1      17.794  12.221  11.156  1.00  0.00    -0.388 OA
HETATM   20  H7  UNK     1      17.199  11.466  11.013  1.00  0.00     0.210 HD
ENDBRANCH  14  19
BRANCH  15  21
HETATM   21  O3  UNK     1      16.717  14.043   9.294  1.00  0.00    -0.390 OA
HETATM   22  H6  UNK     1      16.530  14.341   8.388  1.00  0.00     0.210 HD
ENDBRANCH  15  21
BRANCH  16  23
HETATM   23  O5  UNK     1      18.365  15.283   7.446  1.00  0.00    -0.390 OA
HETATM   24  H8  UNK     1      18.716  16.015   7.982  1.00  0.00     0.210 HD
ENDBRANCH  16  23
BRANCH  17  25
HETATM   25  C6  UNK     1      19.353  12.941   5.885  1.00  0.00     0.290 C 
HETATM   26  O8  UNK     1      19.111  12.345   4.844  1.00  0.00    -0.262 OA
BRANCH  25  27
HETATM   27  O7  UNK     1      20.435  13.735   6.130  1.00  0.00    -0.324 OA
HETATM   28  C19 UNK     1      21.249  14.035   4.992  1.00  0.00     0.213 C 
ENDBRANCH  25  27
ENDBRANCH  17  25
ENDBRANCH  12  13
ENDBRANCH   3  12
BRANCH  11  29
HETATM   29  O9  UNK     1      17.059   6.983  10.776  1.00  0.00    -0.360 OA
HETATM   30  H20 UNK     1      17.954   7.326  10.916  1.00  0.00     0.217 HD
ENDBRANCH  11  29
BRANCH   4  31
HETATM   31  C16 UNK     1      11.366   6.725   7.629  1.00  0.00     0.005 A 
HETATM   32  C17 UNK     1      11.115   6.379   6.301  1.00  0.00     0.074 A 
HETATM   33  C20 UNK     1       9.801   6.256   5.849  1.00  0.00     0.037 A 
HETATM   34  C22 UNK     1       8.737   6.481   6.723  1.00  0.00     0.003 A 
HETATM   35  C21 UNK     1       8.988   6.828   8.051  1.00  0.00     0.001 A 
HETATM   36  C18 UNK     1      10.302   6.950   8.503  1.00  0.00     0.012 A 
BRANCH  32  37
HETATM   37  O11 UNK     1      12.141   6.156   5.433  1.00  0.00    -0.360 OA
HETATM   38  H22 UNK     1      11.814   5.627   4.685  1.00  0.00     0.217 HD
ENDBRANCH  32  37
ENDBRANCH   4  31
TORSDOF 10
ENDMDL
MODEL 6
REMARK VINA RESULT:      -8.9      2.109      8.783
REMARK  10 active torsions:
REMARK  status: ('A' for Active; 'I' for Inactive)
REMARK    1  A    between atoms: C4_15  and  O2_2 
REMARK    2  A    between atoms: C7_18  and  O2_2 
REMARK    3  A    between atoms: C1_12  and  O3_3 
REMARK    4  A    between atoms: C2_13  and  O4_4 
REMARK    5  A    between atoms: C3_14  and  O5_5 
REMARK    6  A    between atoms: C6_17  and  O7_7 
REMARK    7  A    between atoms: C15_26  and  O9_9 
REMARK    8  A    between atoms: C17_28  and  O11_11 
REMARK    9  A    between atoms: C5_16  and  C6_17 
REMARK   10  A    between atoms: C16_27  and  C8_19 
ROOT
HETATM    1  O6  UNK     1      22.493  -7.576  36.786  1.00  0.00    -0.340 OA
HETATM    2  O10 UNK     1      19.811 -10.669  36.521  1.00  0.00    -0.292 OA
HETATM    3  C7  UNK     1      19.403  -5.665  36.558  1.00  0.00     0.077 A 
HETATM    4  C8  UNK     1      22.790  -8.857  37.365  1.00  0.00     0.172 C 
HETATM    5  C9  UNK     1      22.108  -9.981  36.587  1.00  0.00     0.121 C 
HETATM    6  C10 UNK     1      21.148  -7.330  36.695  1.00  0.00     0.089 A 
HETATM    7  C11 UNK     1      20.183  -8.339  36.624  1.00  0.00     0.076 A 
HETATM    8  C12 UNK     1      20.756  -5.991  36.646  1.00  0.00     0.074 A 
HETATM    9  C13 UNK     1      20.620  -9.751  36.594  1.00  0.00     0.167 C 
HETATM   10  C14 UNK     1      18.440  -6.675  36.509  1.00  0.00     0.074 A 
HETATM   11  C15 UNK     1      18.827  -8.015  36.537  1.00  0.00     0.085 A 
ENDROOT
BRANCH   3  12
HETATM   12  O2  UNK     1      19.017  -4.352  36.522  1.00  0.00    -0.318 OA
BRANCH  12  13
HETATM   13  C4  UNK     1      20.056  -3.378  36.583  1.00  0.00     0.298 C 
HETATM   14  C2  UNK     1      19.544  -2.072  37.199  1.00  0.00     0.205 C 
HETATM   15  C1  UNK     1      18.541  -1.361  36.286  1.00  0.00     0.183 C 
HETATM   16  C3  UNK     1      19.162  -1.196  34.895  1.00  0.00     0.188 C 
HETATM   17  C5  UNK     1      19.715  -2.523  34.374  1.00  0.00     0.255 C 
HETATM   18  O1  UNK     1      20.626  -3.121  35.297  1.00  0.00    -0.340 OA
BRANCH  14  19
HETATM   19  O4  UNK     1      18.974  -2.327  38.476  1.00  0.00    -0.388 OA
HETATM   20  H7  UNK     1      18.303  -1.643  38.640  1.00  0.00     0.210 HD
ENDBRANCH  14  19
BRANCH  15  21
HETATM   21  O3  UNK     1      17.322  -2.101  36.202  1.00  0.00    -0.390 OA
HETATM   22  H6  UNK     1      17.024  -2.064  35.279  1.00  0.00     0.210 HD
ENDBRANCH  15  21
BRANCH  16  23
HETATM   23  O5  UNK     1      18.192  -0.692  33.983  1.00  0.00    -0.390 OA
HETATM   24  H8  UNK     1      17.999  -1.391  33.335  1.00  0.00     0.210 HD
ENDBRANCH  16  23
BRANCH  17  25
HETATM   25  C6  UNK     1      20.565  -2.304  33.165  1.00  0.00     0.290 C 
HETATM   26  O8  UNK     1      21.787  -2.370  33.165  1.00  0.00    -0.262 OA
BRANCH  25  27
HETATM   27  O7  UNK     1      19.770  -2.025  32.093  1.00  0.00    -0.324 OA
HETATM   28  C19 UNK     1      20.392  -2.165  30.811  1.00  0.00     0.213 C 
ENDBRANCH  25  27
ENDBRANCH  17  25
ENDBRANCH  12  13
ENDBRANCH   3  12
BRANCH  11  29
HETATM   29  O9  UNK     1      17.847  -8.959  36.469  1.00  0.00    -0.360 OA
HETATM   30  H20 UNK     1      18.228  -9.832  36.294  1.00  0.00     0.217 HD
ENDBRANCH  11  29
BRANCH   4  31
HETATM   31  C16 UNK     1      24.293  -9.038  37.381  1.00  0.00     0.005 A 
HETATM   32  C17 UNK     1      25.108  -8.168  38.108  1.00  0.00     0.074 A 
HETATM   33  C20 UNK     1      26.491  -8.350  38.112  1.00  0.00     0.037 A 
HETATM   34  C22 UNK     1      27.060  -9.399  37.390  1.00  0.00     0.003 A 
HETATM   35  C21 UNK     1      26.245 -10.267  36.663  1.00  0.00     0.001 A 
HETATM   36  C18 UNK     1      24.862 -10.086  36.659  1.00  0.00     0.012 A 
BRANCH  32  37
HETATM   37  O11 UNK     1      24.569  -7.139  38.819  1.00  0.00    -0.360 OA
HETATM   38  H22 UNK     1      23.599  -7.204  38.785  1.00  0.00     0.217 HD
ENDBRANCH  32  37
ENDBRANCH   4  31
TORSDOF 10
ENDMDL
MODEL 7
REMARK VINA RESULT:      -8.8     27.915     30.932
REMARK  10 active torsions:
REMARK  status: ('A' for Active; 'I' for Inactive)
REMARK    1  A    between atoms: C4_15  and  O2_2 
REMARK    2  A    between atoms: C7_18  and  O2_2 
REMARK    3  A    between atoms: C1_12  and  O3_3 
REMARK    4  A    between atoms: C2_13  and  O4_4 
REMARK    5  A    between atoms: C3_14  and  O5_5 
REMARK    6  A    between atoms: C6_17  and  O7_7 
REMARK    7  A    between atoms: C15_26  and  O9_9 
REMARK    8  A    between atoms: C17_28  and  O11_11 
REMARK    9  A    between atoms: C5_16  and  C6_17 
REMARK   10  A    between atoms: C16_27  and  C8_19 
ROOT
HETATM    1  O6  UNK     1      13.053   8.221   8.310  1.00  0.00    -0.340 OA
HETATM    2  O10 UNK     1      14.942   5.384  10.595  1.00  0.00    -0.292 OA
HETATM    3  C7  UNK     1      16.158   9.989   9.006  1.00  0.00     0.077 A 
HETATM    4  C8  UNK     1      12.761   6.825   8.137  1.00  0.00     0.172 C 
HETATM    5  C9  UNK     1      12.947   6.060   9.447  1.00  0.00     0.121 C 
HETATM    6  C10 UNK     1      14.311   8.445   8.806  1.00  0.00     0.089 A 
HETATM    7  C11 UNK     1      15.015   7.512   9.571  1.00  0.00     0.076 A 
HETATM    8  C12 UNK     1      14.879   9.691   8.537  1.00  0.00     0.074 A 
HETATM    9  C13 UNK     1      14.368   6.228   9.916  1.00  0.00     0.167 C 
HETATM   10  C14 UNK     1      16.868   9.047   9.752  1.00  0.00     0.074 A 
HETATM   11  C15 UNK     1      16.298   7.807  10.041  1.00  0.00     0.085 A 
ENDROOT
BRANCH   3  12
HETATM   12  O2  UNK     1      16.720  11.207   8.732  1.00  0.00    -0.318 OA
BRANCH  12  13
HETATM   13  C4  UNK     1      17.420  11.844   9.798  1.00  0.00     0.298 C 
HETATM   14  C2  UNK     1      16.989  13.308   9.936  1.00  0.00     0.205 C 
HETATM   15  C1  UNK     1      17.451  14.155   8.747  1.00  0.00     0.183 C 
HETATM   16  C3  UNK     1      18.958  13.962   8.551  1.00  0.00     0.188 C 
HETATM   17  C5  UNK     1      19.323  12.478   8.494  1.00  0.00     0.255 C 
HETATM   18  O1  UNK     1      18.838  11.765   9.633  1.00  0.00    -0.340 OA
BRANCH  14  19
HETATM   19  O4  UNK     1      15.579  13.388  10.097  1.00  0.00    -0.388 OA
HETATM   20  H7  UNK     1      15.329  14.325  10.037  1.00  0.00     0.210 HD
ENDBRANCH  14  19
BRANCH  15  21
HETATM   21  O3  UNK     1      16.744  13.789   7.561  1.00  0.00    -0.390 OA
HETATM   22  H6  UNK     1      16.143  13.062   7.795  1.00  0.00     0.210 HD
ENDBRANCH  15  21
BRANCH  16  23
HETATM   23  O5  UNK     1      19.382  14.603   7.353  1.00  0.00    -0.390 OA
HETATM   24  H8  UNK     1      19.537  15.541   7.555  1.00  0.00     0.210 HD
ENDBRANCH  16  23
BRANCH  17  25
HETATM   25  C6  UNK     1      20.802  12.293   8.595  1.00  0.00     0.290 C 
HETATM   26  O8  UNK     1      21.399  11.306   8.185  1.00  0.00    -0.262 OA
BRANCH  25  27
HETATM   27  O7  UNK     1      21.358  13.379   9.205  1.00  0.00    -0.324 OA
HETATM   28  C19 UNK     1      22.140  13.097  10.370  1.00  0.00     0.213 C 
ENDBRANCH  25  27
ENDBRANCH  17  25
ENDBRANCH  12  13
ENDBRANCH   3  12
BRANCH  11  29
HETATM   29  O9  UNK     1      17.028   6.932  10.787  1.00  0.00    -0.360 OA
HETATM   30  H20 UNK     1      17.936   7.254  10.897  1.00  0.00     0.217 HD
ENDBRANCH  11  29
BRANCH   4  31
HETATM   31  C16 UNK     1      11.342   6.693   7.625  1.00  0.00     0.005 A 
HETATM   32  C17 UNK     1      11.093   6.362   6.292  1.00  0.00     0.074 A 
HETATM   33  C20 UNK     1       9.780   6.244   5.837  1.00  0.00     0.037 A 
HETATM   34  C22 UNK     1       8.716   6.458   6.713  1.00  0.00     0.003 A 
HETATM   35  C21 UNK     1       8.965   6.790   8.044  1.00  0.00     0.001 A 
HETATM   36  C18 UNK     1      10.278   6.907   8.500  1.00  0.00     0.012 A 
BRANCH  32  37
HETATM   37  O11 UNK     1      12.121   6.149   5.424  1.00  0.00    -0.360 OA
HETATM   38  H22 UNK     1      12.957   6.128   5.921  1.00  0.00     0.217 HD
ENDBRANCH  32  37
ENDBRANCH   4  31
TORSDOF 10
ENDMDL
MODEL 8
REMARK VINA RESULT:      -8.7      5.442     11.760
REMARK  10 active torsions:
REMARK  status: ('A' for Active; 'I' for Inactive)
REMARK    1  A    between atoms: C4_15  and  O2_2 
REMARK    2  A    between atoms: C7_18  and  O2_2 
REMARK    3  A    between atoms: C1_12  and  O3_3 
REMARK    4  A    between atoms: C2_13  and  O4_4 
REMARK    5  A    between atoms: C3_14  and  O5_5 
REMARK    6  A    between atoms: C6_17  and  O7_7 
REMARK    7  A    between atoms: C15_26  and  O9_9 
REMARK    8  A    between atoms: C17_28  and  O11_11 
REMARK    9  A    between atoms: C5_16  and  C6_17 
REMARK   10  A    between atoms: C16_27  and  C8_19 
ROOT
HETATM    1  O6  UNK     1      18.723   1.026  34.231  1.00  0.00    -0.340 OA
HETATM    2  O10 UNK     1      19.181   0.306  30.218  1.00  0.00    -0.292 OA
HETATM    3  C7  UNK     1      18.012   4.357  32.945  1.00  0.00     0.077 A 
HETATM    4  C8  UNK     1      18.489  -0.284  33.689  1.00  0.00     0.172 C 
HETATM    5  C9  UNK     1      19.361  -0.531  32.459  1.00  0.00     0.121 C 
HETATM    6  C10 UNK     1      18.530   2.026  33.314  1.00  0.00     0.089 A 
HETATM    7  C11 UNK     1      18.650   1.840  31.934  1.00  0.00     0.076 A 
HETATM    8  C12 UNK     1      18.226   3.291  33.820  1.00  0.00     0.074 A 
HETATM    9  C13 UNK     1      19.052   0.514  31.419  1.00  0.00     0.167 C 
HETATM   10  C14 UNK     1      18.111   4.163  31.567  1.00  0.00     0.074 A 
HETATM   11  C15 UNK     1      18.434   2.906  31.056  1.00  0.00     0.085 A 
ENDROOT
BRANCH   3  12
HETATM   12  O2  UNK     1      17.702   5.595  33.440  1.00  0.00    -0.318 OA
BRANCH  12  13
HETATM   13  C4  UNK     1      17.770   6.686  32.525  1.00  0.00     0.298 C 
HETATM   14  C2  UNK     1      18.731   7.766  33.034  1.00  0.00     0.205 C 
HETATM   15  C1  UNK     1      18.190   8.473  34.279  1.00  0.00     0.183 C 
HETATM   16  C3  UNK     1      16.773   8.980  33.990  1.00  0.00     0.188 C 
HETATM   17  C5  UNK     1      15.892   7.868  33.420  1.00  0.00     0.255 C 
HETATM   18  O1  UNK     1      16.483   7.255  32.273  1.00  0.00    -0.340 OA
BRANCH  14  19
HETATM   19  O4  UNK     1      20.009   7.200  33.287  1.00  0.00    -0.388 OA
HETATM   20  H7  UNK     1      20.094   7.086  34.249  1.00  0.00     0.210 HD
ENDBRANCH  14  19
BRANCH  15  21
HETATM   21  O3  UNK     1      18.183   7.587  35.400  1.00  0.00    -0.390 OA
HETATM   22  H6  UNK     1      18.244   6.682  35.053  1.00  0.00     0.210 HD
ENDBRANCH  15  21
BRANCH  16  23
HETATM   23  O5  UNK     1      16.184   9.491  35.182  1.00  0.00    -0.390 OA
HETATM   24  H8  UNK     1      15.309   9.081  35.283  1.00  0.00     0.210 HD
ENDBRANCH  16  23
BRANCH  17  25
HETATM   25  C6  UNK     1      14.618   8.429  32.876  1.00  0.00     0.290 C 
HETATM   26  O8  UNK     1      13.648   7.750  32.566  1.00  0.00    -0.262 OA
BRANCH  25  27
HETATM   27  O7  UNK     1      14.719   9.786  32.784  1.00  0.00    -0.324 OA
HETATM   28  C19 UNK     1      13.542  10.516  33.145  1.00  0.00     0.213 C 
ENDBRANCH  25  27
ENDBRANCH  17  25
ENDBRANCH  12  13
ENDBRANCH   3  12
BRANCH  11  29
HETATM   29  O9  UNK     1      18.534   2.777  29.704  1.00  0.00    -0.360 OA
HETATM   30  H20 UNK     1      18.312   3.612  29.265  1.00  0.00     0.217 HD
ENDBRANCH  11  29
BRANCH   4  31
HETATM   31  C16 UNK     1      18.767  -1.306  34.769  1.00  0.00     0.005 A 
HETATM   32  C17 UNK     1      17.978  -1.360  35.920  1.00  0.00     0.074 A 
HETATM   33  C20 UNK     1      18.248  -2.309  36.906  1.00  0.00     0.037 A 
HETATM   34  C22 UNK     1      19.306  -3.204  36.744  1.00  0.00     0.003 A 
HETATM   35  C21 UNK     1      20.094  -3.149  35.594  1.00  0.00     0.001 A 
HETATM   36  C18 UNK     1      19.824  -2.201  34.607  1.00  0.00     0.012 A 
BRANCH  32  37
HETATM   37  O11 UNK     1      16.942  -0.494  36.095  1.00  0.00    -0.360 OA
HETATM   38  H22 UNK     1      16.119  -0.919  35.797  1.00  0.00     0.217 HD
ENDBRANCH  32  37
ENDBRANCH   4  31
TORSDOF 10
ENDMDL
MODEL 9
REMARK VINA RESULT:      -8.5     10.694     14.335
REMARK  10 active torsions:
REMARK  status: ('A' for Active; 'I' for Inactive)
REMARK    1  A    between atoms: C4_15  and  O2_2 
REMARK    2  A    between atoms: C7_18  and  O2_2 
REMARK    3  A    between atoms: C1_12  and  O3_3 
REMARK    4  A    between atoms: C2_13  and  O4_4 
REMARK    5  A    between atoms: C3_14  and  O5_5 
REMARK    6  A    between atoms: C6_17  and  O7_7 
REMARK    7  A    between atoms: C15_26  and  O9_9 
REMARK    8  A    between atoms: C17_28  and  O11_11 
REMARK    9  A    between atoms: C5_16  and  C6_17 
REMARK   10  A    between atoms: C16_27  and  C8_19 
ROOT
HETATM    1  O6  UNK     1      31.645  -8.402  31.002  1.00  0.00    -0.340 OA
HETATM    2  O10 UNK     1      34.670  -7.597  28.350  1.00  0.00    -0.292 OA
HETATM    3  C7  UNK     1      34.168  -7.189  33.329  1.00  0.00     0.077 A 
HETATM    4  C8  UNK     1      31.353  -8.061  29.637  1.00  0.00     0.172 C 
HETATM    5  C9  UNK     1      32.480  -8.509  28.708  1.00  0.00     0.121 C 
HETATM    6  C10 UNK     1      32.839  -7.890  31.437  1.00  0.00     0.089 A 
HETATM    7  C11 UNK     1      33.899  -7.574  30.582  1.00  0.00     0.076 A 
HETATM    8  C12 UNK     1      32.981  -7.710  32.814  1.00  0.00     0.074 A 
HETATM    9  C13 UNK     1      33.763  -7.846  29.135  1.00  0.00     0.167 C 
HETATM   10  C14 UNK     1      35.217  -6.854  32.471  1.00  0.00     0.074 A 
HETATM   11  C15 UNK     1      35.089  -7.050  31.096  1.00  0.00     0.085 A 
ENDROOT
BRANCH   3  12
HETATM   12  O2  UNK     1      34.303  -7.001  34.678  1.00  0.00    -0.318 OA
BRANCH  12  13
HETATM   13  C4  UNK     1      34.190  -5.662  35.153  1.00  0.00     0.298 C 
HETATM   14  C2  UNK     1      34.997  -5.471  36.443  1.00  0.00     0.205 C 
HETATM   15  C1  UNK     1      34.390  -6.242  37.618  1.00  0.00     0.183 C 
HETATM   16  C3  UNK     1      32.908  -5.873  37.745  1.00  0.00     0.188 C 
HETATM   17  C5  UNK     1      32.183  -6.020  36.407  1.00  0.00     0.255 C 
HETATM   18  O1  UNK     1      32.828  -5.283  35.367  1.00  0.00    -0.340 OA
BRANCH  14  19
HETATM   19  O4  UNK     1      36.349  -5.852  36.231  1.00  0.00    -0.388 OA
HETATM   20  H7  UNK     1      36.394  -6.821  36.292  1.00  0.00     0.210 HD
ENDBRANCH  14  19
BRANCH  15  21
HETATM   21  O3  UNK     1      34.538  -7.650  37.429  1.00  0.00    -0.390 OA
HETATM   22  H6  UNK     1      34.664  -7.802  36.477  1.00  0.00     0.210 HD
ENDBRANCH  15  21
BRANCH  16  23
HETATM   23  O5  UNK     1      32.281  -6.700  38.720  1.00  0.00    -0.390 OA
HETATM   24  H8  UNK     1      32.978  -7.182  39.197  1.00  0.00     0.210 HD
ENDBRANCH  16  23
BRANCH  17  25
HETATM   25  C6  UNK     1      30.829  -5.391  36.467  1.00  0.00     0.290 C 
HETATM   26  O8  UNK     1      29.872  -5.761  35.800  1.00  0.00    -0.262 OA
BRANCH  25  27
HETATM   27  O7  UNK     1      30.842  -4.364  37.364  1.00  0.00    -0.324 OA
HETATM   28  C19 UNK     1      29.650  -4.212  38.142  1.00  0.00     0.213 C 
ENDBRANCH  25  27
ENDBRANCH  17  25
ENDBRANCH  12  13
ENDBRANCH   3  12
BRANCH  11  29
HETATM   29  O9  UNK     1      36.149  -6.722  30.307  1.00  0.00    -0.360 OA
HETATM   30  H20 UNK     1      36.026  -7.068  29.410  1.00  0.00     0.217 HD
ENDBRANCH  11  29
BRANCH   4  31
HETATM   31  C16 UNK     1      30.040  -8.707  29.252  1.00  0.00     0.005 A 
HETATM   32  C17 UNK     1      28.857  -8.363  29.909  1.00  0.00     0.074 A 
HETATM   33  C20 UNK     1      27.655  -8.968  29.542  1.00  0.00     0.037 A 
HETATM   34  C22 UNK     1      27.634  -9.917  28.519  1.00  0.00     0.003 A 
HETATM   35  C21 UNK     1      28.816 -10.261  27.864  1.00  0.00     0.001 A 
HETATM   36  C18 UNK     1      30.019  -9.656  28.230  1.00  0.00     0.012 A 
BRANCH  32  37
HETATM   37  O11 UNK     1      28.859  -7.439  30.909  1.00  0.00    -0.360 OA
HETATM   38  H22 UNK     1      27.944  -7.289  31.204  1.00  0.00     0.217 HD
ENDBRANCH  32  37
ENDBRANCH   4  31
TORSDOF 10
ENDMDL
MODEL 10
REMARK VINA RESULT:      -8.5     10.543     14.513
REMARK  10 active torsions:
REMARK  status: ('A' for Active; 'I' for Inactive)
REMARK    1  A    between atoms: C4_15  and  O2_2 
REMARK    2  A    between atoms: C7_18  and  O2_2 
REMARK    3  A    between atoms: C1_12  and  O3_3 
REMARK    4  A    between atoms: C2_13  and  O4_4 
REMARK    5  A    between atoms: C3_14  and  O5_5 
REMARK    6  A    between atoms: C6_17  and  O7_7 
REMARK    7  A    between atoms: C15_26  and  O9_9 
REMARK    8  A    between atoms: C17_28  and  O11_11 
REMARK    9  A    between atoms: C5_16  and  C6_17 
REMARK   10  A    between atoms: C16_27  and  C8_19 
ROOT
HETATM    1  O6  UNK     1      30.320  -7.329  36.488  1.00  0.00    -0.340 OA
HETATM    2  O10 UNK     1      30.671  -3.391  37.586  1.00  0.00    -0.292 OA
HETATM    3  C7  UNK     1      32.996  -6.321  34.236  1.00  0.00     0.077 A 
HETATM    4  C8  UNK     1      29.968  -6.903  37.814  1.00  0.00     0.172 C 
HETATM    5  C9  UNK     1      29.472  -5.457  37.811  1.00  0.00     0.121 C 
HETATM    6  C10 UNK     1      31.252  -6.517  35.896  1.00  0.00     0.089 A 
HETATM    7  C11 UNK     1      31.436  -5.176  36.240  1.00  0.00     0.076 A 
HETATM    8  C12 UNK     1      32.024  -7.085  34.881  1.00  0.00     0.074 A 
HETATM    9  C13 UNK     1      30.555  -4.567  37.260  1.00  0.00     0.167 C 
HETATM   10  C14 UNK     1      33.192  -4.987  34.597  1.00  0.00     0.074 A 
HETATM   11  C15 UNK     1      32.410  -4.408  35.596  1.00  0.00     0.085 A 
ENDROOT
BRANCH   3  12
HETATM   12  O2  UNK     1      33.761  -6.880  33.249  1.00  0.00    -0.318 OA
BRANCH  12  13
HETATM   13  C4  UNK     1      33.420  -8.205  32.847  1.00  0.00     0.298 C 
HETATM   14  C2  UNK     1      34.649  -9.119  32.880  1.00  0.00     0.205 C 
HETATM   15  C1  UNK     1      35.669  -8.748  31.799  1.00  0.00     0.183 C 
HETATM   16  C3  UNK     1      34.961  -8.699  30.441  1.00  0.00     0.188 C 
HETATM   17  C5  UNK     1      33.706  -7.827  30.501  1.00  0.00     0.255 C 
HETATM   18  O1  UNK     1      32.823  -8.234  31.547  1.00  0.00    -0.340 OA
BRANCH  14  19
HETATM   19  O4  UNK     1      35.244  -9.088  34.170  1.00  0.00    -0.388 OA
HETATM   20  H7  UNK     1      36.180  -9.329  34.067  1.00  0.00     0.210 HD
ENDBRANCH  14  19
BRANCH  15  21
HETATM   21  O3  UNK     1      36.277  -7.489  32.090  1.00  0.00    -0.390 OA
HETATM   22  H6  UNK     1      36.717  -7.186  31.278  1.00  0.00     0.210 HD
ENDBRANCH  15  21
BRANCH  16  23
HETATM   23  O5  UNK     1      35.846  -8.193  29.447  1.00  0.00    -0.390 OA
HETATM   24  H8  UNK     1      36.694  -8.660  29.536  1.00  0.00     0.210 HD
ENDBRANCH  16  23
BRANCH  17  25
HETATM   25  C6  UNK     1      32.874  -8.012  29.275  1.00  0.00     0.290 C 
HETATM   26  O8  UNK     1      33.022  -8.929  28.477  1.00  0.00    -0.262 OA
BRANCH  25  27
HETATM   27  O7  UNK     1      31.948  -7.013  29.197  1.00  0.00    -0.324 OA
HETATM   28  C19 UNK     1      30.616  -7.432  28.878  1.00  0.00     0.213 C 
ENDBRANCH  25  27
ENDBRANCH  17  25
ENDBRANCH  12  13
ENDBRANCH   3  12
BRANCH  11  29
HETATM   29  O9  UNK     1      32.632  -3.098  35.897  1.00  0.00    -0.360 OA
HETATM   30  H20 UNK     1      32.447  -2.928  36.833  1.00  0.00     0.217 HD
ENDBRANCH  11  29
BRANCH   4  31
HETATM   31  C16 UNK     1      28.910  -7.841  38.354  1.00  0.00     0.005 A 
HETATM   32  C17 UNK     1      29.195  -9.191  38.562  1.00  0.00     0.074 A 
HETATM   33  C20 UNK     1      28.208 -10.042  39.061  1.00  0.00     0.037 A 
HETATM   34  C22 UNK     1      26.938  -9.545  39.351  1.00  0.00     0.003 A 
HETATM   35  C21 UNK     1      26.654  -8.195  39.142  1.00  0.00     0.001 A 
HETATM   36  C18 UNK     1      27.640  -7.344  38.644  1.00  0.00     0.012 A 
BRANCH  32  37
HETATM   37  O11 UNK     1      30.430  -9.694  38.285  1.00  0.00    -0.360 OA
HETATM   38  H22 UNK     1      30.439 -10.645  38.490  1.00  0.00     0.217 HD
ENDBRANCH  32  37
ENDBRANCH   4  31
TORSDOF 10
ENDMDL
