MODEL 1
REMARK VINA RESULT:      -7.9      0.000      0.000
REMARK  3 active torsions:
REMARK  status: ('A' for Active; 'I' for Inactive)
REMARK    1  A    between atoms: C16_20  and  O2_2 
REMARK    2  A    between atoms: C7_11  and  N1_4 
REMARK    3  A    between atoms: C7_11  and  C8_12 
ROOT
HETATM    1  O1  UNK     1      18.803   0.690  33.363  1.00  0.00    -0.275 OA
HETATM    2  O3  UNK     1      18.271   1.419  35.465  1.00  0.00    -0.260 OA
HETATM    3  C8  UNK     1      18.192   3.285  32.416  1.00  0.00    -0.011 A 
HETATM    4  C9  UNK     1      18.639   2.241  31.483  1.00  0.00     0.006 A 
HETATM    5  C10 UNK     1      18.081   2.987  33.719  1.00  0.00     0.092 A 
HETATM    6  C11 UNK     1      18.930   0.973  31.989  1.00  0.00     0.093 A 
HETATM    7  C12 UNK     1      18.791   2.441  30.105  1.00  0.00     0.017 A 
HETATM    8  C13 UNK     1      18.385   1.654  34.267  1.00  0.00     0.288 A 
HETATM    9  C14 UNK     1      19.359  -0.075  31.172  1.00  0.00     0.075 A 
HETATM   10  C15 UNK     1      19.221   1.401  29.274  1.00  0.00     0.038 A 
HETATM   11  C16 UNK     1      19.505   0.144  29.806  1.00  0.00     0.070 A 
ENDROOT
BRANCH   3  12
HETATM   12  C7  UNK     1      17.872   4.648  31.907  1.00  0.00     0.312 C 
BRANCH  12  13
HETATM   13  N1  UNK     1      18.054   5.677  32.933  1.00  0.00     0.092 N 
HETATM   14  C1  UNK     1      19.325   6.376  32.717  1.00  0.00     0.272 C 
HETATM   15  C3  UNK     1      19.569   7.656  33.522  1.00  0.00     0.030 C 
HETATM   16  C5  UNK     1      19.066   7.610  34.961  1.00  0.00     0.002 C 
HETATM   17  C6  UNK     1      17.589   7.979  35.065  1.00  0.00     0.002 C 
HETATM   18  C4  UNK     1      16.621   6.963  34.467  1.00  0.00     0.030 C 
HETATM   19  C2  UNK     1      16.888   6.558  33.015  1.00  0.00     0.272 C 
ENDBRANCH  12  13
ENDBRANCH   3  12
BRANCH  11  20
HETATM   20  O2  UNK     1      19.924  -0.863  28.994  1.00  0.00    -0.356 OA
HETATM   21  C17 UNK     1      20.432  -2.037  29.623  1.00  0.00     0.210 C 
ENDBRANCH  11  20
TORSDOF 3
ENDMDL
MODEL 2
REMARK VINA RESULT:      -7.8      1.963      4.081
REMARK  3 active torsions:
REMARK  status: ('A' for Active; 'I' for Inactive)
REMARK    1  A    between atoms: C16_20  and  O2_2 
REMARK    2  A    between atoms: C7_11  and  N1_4 
REMARK    3  A    between atoms: C7_11  and  C8_12 
ROOT
HETATM    1  O1  UNK     1      20.118  -0.933  30.637  1.00  0.00    -0.275 OA
HETATM    2  O3  UNK     1      20.636  -0.533  28.445  1.00  0.00    -0.260 OA
HETATM    3  C8  UNK     1      18.693   1.511  30.642  1.00  0.00    -0.011 A 
HETATM    4  C9  UNK     1      18.755   0.686  31.857  1.00  0.00     0.006 A 
HETATM    5  C10 UNK     1      19.320   1.086  29.536  1.00  0.00     0.092 A 
HETATM    6  C11 UNK     1      19.469  -0.513  31.814  1.00  0.00     0.093 A 
HETATM    7  C12 UNK     1      18.138   1.032  33.066  1.00  0.00     0.017 A 
HETATM    8  C13 UNK     1      20.075  -0.177  29.476  1.00  0.00     0.288 A 
HETATM    9  C14 UNK     1      19.578  -1.355  32.922  1.00  0.00     0.075 A 
HETATM   10  C15 UNK     1      18.239   0.198  34.185  1.00  0.00     0.038 A 
HETATM   11  C16 UNK     1      18.957  -0.994  34.114  1.00  0.00     0.070 A 
ENDROOT
BRANCH   3  12
HETATM   12  C7  UNK     1      17.941   2.797  30.656  1.00  0.00     0.312 C 
BRANCH  12  13
HETATM   13  N1  UNK     1      18.743   3.900  31.188  1.00  0.00     0.092 N 
HETATM   14  C1  UNK     1      19.296   4.692  30.084  1.00  0.00     0.272 C 
HETATM   15  C3  UNK     1      19.940   6.036  30.437  1.00  0.00     0.030 C 
HETATM   16  C5  UNK     1      20.747   6.037  31.731  1.00  0.00     0.002 C 
HETATM   17  C6  UNK     1      19.868   6.283  32.954  1.00  0.00     0.002 C 
HETATM   18  C4  UNK     1      18.906   5.151  33.303  1.00  0.00     0.030 C 
HETATM   19  C2  UNK     1      17.989   4.680  32.170  1.00  0.00     0.272 C 
ENDBRANCH  12  13
ENDBRANCH   3  12
BRANCH  11  20
HETATM   20  O2  UNK     1      19.051  -1.801  35.204  1.00  0.00    -0.356 OA
HETATM   21  C17 UNK     1      20.358  -2.214  35.599  1.00  0.00     0.210 C 
ENDBRANCH  11  20
TORSDOF 3
ENDMDL
MODEL 3
REMARK VINA RESULT:      -7.6     23.196     24.909
REMARK  3 active torsions:
REMARK  status: ('A' for Active; 'I' for Inactive)
REMARK    1  A    between atoms: C16_20  and  O2_2 
REMARK    2  A    between atoms: C7_11  and  N1_4 
REMARK    3  A    between atoms: C7_11  and  C8_12 
ROOT
HETATM    1  O1  UNK     1      16.289   6.022   9.827  1.00  0.00    -0.275 OA
HETATM    2  O3  UNK     1      15.336   3.943   9.849  1.00  0.00    -0.260 OA
HETATM    3  C8  UNK     1      13.678   7.110   9.790  1.00  0.00    -0.011 A 
HETATM    4  C9  UNK     1      14.851   7.996   9.788  1.00  0.00     0.006 A 
HETATM    5  C10 UNK     1      13.867   5.783   9.811  1.00  0.00     0.092 A 
HETATM    6  C11 UNK     1      16.122   7.420   9.806  1.00  0.00     0.093 A 
HETATM    7  C12 UNK     1      14.771   9.394   9.769  1.00  0.00     0.017 A 
HETATM    8  C13 UNK     1      15.202   5.162   9.831  1.00  0.00     0.288 A 
HETATM    9  C14 UNK     1      17.288   8.188   9.806  1.00  0.00     0.075 A 
HETATM   10  C15 UNK     1      15.931  10.178   9.768  1.00  0.00     0.038 A 
HETATM   11  C16 UNK     1      17.188   9.576   9.787  1.00  0.00     0.070 A 
ENDROOT
BRANCH   3  12
HETATM   12  C7  UNK     1      12.308   7.693   9.770  1.00  0.00     0.312 C 
BRANCH  12  13
HETATM   13  N1  UNK     1      11.483   7.128   8.700  1.00  0.00     0.092 N 
HETATM   14  C1  UNK     1      10.064   7.372   8.983  1.00  0.00     0.272 C 
HETATM   15  C3  UNK     1       9.064   7.093   7.857  1.00  0.00     0.030 C 
HETATM   16  C5  UNK     1       9.377   5.858   7.018  1.00  0.00     0.002 C 
HETATM   17  C6  UNK     1      10.363   6.163   5.894  1.00  0.00     0.002 C 
HETATM   18  C4  UNK     1      11.785   6.481   6.344  1.00  0.00     0.030 C 
HETATM   19  C2  UNK     1      11.924   7.595   7.385  1.00  0.00     0.272 C 
ENDBRANCH  12  13
ENDBRANCH   3  12
BRANCH  11  20
HETATM   20  O2  UNK     1      18.311  10.342   9.787  1.00  0.00    -0.356 OA
HETATM   21  C17 UNK     1      18.336  11.462   8.904  1.00  0.00     0.210 C 
ENDBRANCH  11  20
TORSDOF 3
ENDMDL
MODEL 4
REMARK VINA RESULT:      -7.5      6.161      9.156
REMARK  3 active torsions:
REMARK  status: ('A' for Active; 'I' for Inactive)
REMARK    1  A    between atoms: C16_20  and  O2_2 
REMARK    2  A    between atoms: C7_11  and  N1_4 
REMARK    3  A    between atoms: C7_11  and  C8_12 
ROOT
HETATM    1  O1  UNK     1      17.847  -0.689  35.505  1.00  0.00    -0.275 OA
HETATM    2  O3  UNK     1      17.098  -0.603  37.665  1.00  0.00    -0.260 OA
HETATM    3  C8  UNK     1      19.769  -2.585  36.353  1.00  0.00    -0.011 A 
HETATM    4  C9  UNK     1      19.711  -2.166  34.945  1.00  0.00     0.006 A 
HETATM    5  C10 UNK     1      18.899  -2.055  37.224  1.00  0.00     0.092 A 
HETATM    6  C11 UNK     1      18.749  -1.229  34.566  1.00  0.00     0.093 A 
HETATM    7  C12 UNK     1      20.569  -2.654  33.951  1.00  0.00     0.017 A 
HETATM    8  C13 UNK     1      17.878  -1.066  36.839  1.00  0.00     0.288 A 
HETATM    9  C14 UNK     1      18.625  -0.777  33.251  1.00  0.00     0.075 A 
HETATM   10  C15 UNK     1      20.457  -2.211  32.628  1.00  0.00     0.038 A 
HETATM   11  C16 UNK     1      19.487  -1.274  32.278  1.00  0.00     0.070 A 
ENDROOT
BRANCH   3  12
HETATM   12  C7  UNK     1      20.785  -3.583  36.789  1.00  0.00     0.312 C 
BRANCH  12  13
HETATM   13  N1  UNK     1      20.177  -4.854  37.184  1.00  0.00     0.092 N 
HETATM   14  C1  UNK     1      19.733  -5.585  35.992  1.00  0.00     0.272 C 
HETATM   15  C3  UNK     1      19.314  -7.047  36.179  1.00  0.00     0.030 C 
HETATM   16  C5  UNK     1      18.543  -7.330  37.464  1.00  0.00     0.002 C 
HETATM   17  C6  UNK     1      19.473  -7.579  38.648  1.00  0.00     0.002 C 
HETATM   18  C4  UNK     1      20.253  -6.359  39.131  1.00  0.00     0.030 C 
HETATM   19  C2  UNK     1      21.063  -5.618  38.064  1.00  0.00     0.272 C 
ENDBRANCH  12  13
ENDBRANCH   3  12
BRANCH  11  20
HETATM   20  O2  UNK     1      19.382  -0.848  30.991  1.00  0.00    -0.356 OA
HETATM   21  C17 UNK     1      20.564  -0.342  30.375  1.00  0.00     0.210 C 
ENDBRANCH  11  20
TORSDOF 3
ENDMDL
MODEL 5
REMARK VINA RESULT:      -7.4     15.299     16.784
REMARK  3 active torsions:
REMARK  status: ('A' for Active; 'I' for Inactive)
REMARK    1  A    between atoms: C16_20  and  O2_2 
REMARK    2  A    between atoms: C7_11  and  N1_4 
REMARK    3  A    between atoms: C7_11  and  C8_12 
ROOT
HETATM    1  O1  UNK     1      28.657  -5.618  39.580  1.00  0.00    -0.275 OA
HETATM    2  O3  UNK     1      29.498  -3.529  39.980  1.00  0.00    -0.260 OA
HETATM    3  C8  UNK     1      29.933  -5.540  37.056  1.00  0.00    -0.011 A 
HETATM    4  C9  UNK     1      29.153  -6.720  37.456  1.00  0.00     0.006 A 
HETATM    5  C10 UNK     1      30.030  -4.507  37.905  1.00  0.00     0.092 A 
HETATM    6  C11 UNK     1      28.538  -6.720  38.709  1.00  0.00     0.093 A 
HETATM    7  C12 UNK     1      28.987  -7.853  36.651  1.00  0.00     0.017 A 
HETATM    8  C13 UNK     1      29.387  -4.493  39.230  1.00  0.00     0.288 A 
HETATM    9  C14 UNK     1      27.779  -7.798  39.167  1.00  0.00     0.075 A 
HETATM   10  C15 UNK     1      28.229  -8.943  37.096  1.00  0.00     0.038 A 
HETATM   11  C16 UNK     1      27.626  -8.916  38.352  1.00  0.00     0.070 A 
ENDROOT
BRANCH   3  12
HETATM   12  C7  UNK     1      30.601  -5.509  35.725  1.00  0.00     0.312 C 
BRANCH  12  13
HETATM   13  N1  UNK     1      32.060  -5.559  35.837  1.00  0.00     0.092 N 
HETATM   14  C1  UNK     1      32.491  -6.934  36.112  1.00  0.00     0.272 C 
HETATM   15  C3  UNK     1      33.988  -7.237  36.000  1.00  0.00     0.030 C 
HETATM   16  C5  UNK     1      34.903  -6.132  36.519  1.00  0.00     0.002 C 
HETATM   17  C6  UNK     1      35.170  -5.065  35.461  1.00  0.00     0.002 C 
HETATM   18  C4  UNK     1      33.971  -4.195  35.096  1.00  0.00     0.030 C 
HETATM   19  C2  UNK     1      32.704  -4.946  34.675  1.00  0.00     0.272 C 
ENDBRANCH  12  13
ENDBRANCH   3  12
BRANCH  11  20
HETATM   20  O2  UNK     1      26.892  -9.977  38.780  1.00  0.00    -0.356 OA
HETATM   21  C17 UNK     1      26.977 -10.312  40.164  1.00  0.00     0.210 C 
ENDBRANCH  11  20
TORSDOF 3
ENDMDL
MODEL 6
REMARK VINA RESULT:      -7.4     22.826     24.569
REMARK  3 active torsions:
REMARK  status: ('A' for Active; 'I' for Inactive)
REMARK    1  A    between atoms: C16_20  and  O2_2 
REMARK    2  A    between atoms: C7_11  and  N1_4 
REMARK    3  A    between atoms: C7_11  and  C8_12 
ROOT
HETATM    1  O1  UNK     1      13.970   4.652   8.881  1.00  0.00    -0.275 OA
HETATM    2  O3  UNK     1      16.034   4.116   9.709  1.00  0.00    -0.260 OA
HETATM    3  C8  UNK     1      14.234   7.176  10.131  1.00  0.00    -0.011 A 
HETATM    4  C9  UNK     1      13.024   6.852   9.362  1.00  0.00     0.006 A 
HETATM    5  C10 UNK     1      15.207   6.258  10.228  1.00  0.00     0.092 A 
HETATM    6  C11 UNK     1      12.932   5.596   8.761  1.00  0.00     0.093 A 
HETATM    7  C12 UNK     1      11.949   7.733   9.195  1.00  0.00     0.017 A 
HETATM    8  C13 UNK     1      15.123   4.930   9.598  1.00  0.00     0.288 A 
HETATM    9  C14 UNK     1      11.818   5.207   8.014  1.00  0.00     0.075 A 
HETATM   10  C15 UNK     1      10.825   7.359   8.448  1.00  0.00     0.038 A 
HETATM   11  C16 UNK     1      10.760   6.097   7.858  1.00  0.00     0.070 A 
ENDROOT
BRANCH   3  12
HETATM   12  C7  UNK     1      14.363   8.508  10.786  1.00  0.00     0.312 C 
BRANCH  12  13
HETATM   13  N1  UNK     1      15.097   9.463   9.955  1.00  0.00     0.092 N 
HETATM   14  C1  UNK     1      14.277  10.658   9.727  1.00  0.00     0.272 C 
HETATM   15  C3  UNK     1      14.967  11.877   9.107  1.00  0.00     0.030 C 
HETATM   16  C5  UNK     1      15.987  11.549   8.022  1.00  0.00     0.002 C 
HETATM   17  C6  UNK     1      17.361  11.228   8.605  1.00  0.00     0.002 C 
HETATM   18  C4  UNK     1      17.448   9.919   9.384  1.00  0.00     0.030 C 
HETATM   19  C2  UNK     1      16.424   9.740  10.508  1.00  0.00     0.272 C 
ENDBRANCH  12  13
ENDBRANCH   3  12
BRANCH  11  20
HETATM   20  O2  UNK     1       9.667   5.739   7.133  1.00  0.00    -0.356 OA
HETATM   21  C17 UNK     1       9.623   6.159   5.771  1.00  0.00     0.210 C 
ENDBRANCH  11  20
TORSDOF 3
ENDMDL
MODEL 7
REMARK VINA RESULT:      -7.3      4.348      8.440
REMARK  3 active torsions:
REMARK  status: ('A' for Active; 'I' for Inactive)
REMARK    1  A    between atoms: C16_20  and  O2_2 
REMARK    2  A    between atoms: C7_11  and  N1_4 
REMARK    3  A    between atoms: C7_11  and  C8_12 
ROOT
HETATM    1  O1  UNK     1      15.120   9.345  34.012  1.00  0.00    -0.275 OA
HETATM    2  O3  UNK     1      13.802   7.476  33.970  1.00  0.00    -0.260 OA
HETATM    3  C8  UNK     1      17.373   7.635  34.052  1.00  0.00    -0.011 A 
HETATM    4  C9  UNK     1      17.549   9.094  34.064  1.00  0.00     0.006 A 
HETATM    5  C10 UNK     1      16.131   7.132  34.020  1.00  0.00     0.092 A 
HETATM    6  C11 UNK     1      16.413   9.904  34.044  1.00  0.00     0.093 A 
HETATM    7  C12 UNK     1      18.798   9.728  34.096  1.00  0.00     0.017 A 
HETATM    8  C13 UNK     1      14.923   7.973  33.998  1.00  0.00     0.288 A 
HETATM    9  C14 UNK     1      16.491  11.298  34.054  1.00  0.00     0.075 A 
HETATM   10  C15 UNK     1      18.892  11.124  34.106  1.00  0.00     0.038 A 
HETATM   11  C16 UNK     1      17.740  11.909  34.085  1.00  0.00     0.070 A 
ENDROOT
BRANCH   3  12
HETATM   12  C7  UNK     1      18.566   6.744  34.074  1.00  0.00     0.312 C 
BRANCH  12  13
HETATM   13  N1  UNK     1      18.785   6.082  32.787  1.00  0.00     0.092 N 
HETATM   14  C1  UNK     1      20.055   6.532  32.205  1.00  0.00     0.272 C 
HETATM   15  C3  UNK     1      20.587   5.761  30.994  1.00  0.00     0.030 C 
HETATM   16  C5  UNK     1      19.517   5.315  30.002  1.00  0.00     0.002 C 
HETATM   17  C6  UNK     1      18.878   3.989  30.406  1.00  0.00     0.002 C 
HETATM   18  C4  UNK     1      18.003   4.041  31.655  1.00  0.00     0.030 C 
HETATM   19  C2  UNK     1      18.660   4.629  32.907  1.00  0.00     0.272 C 
ENDBRANCH  12  13
ENDBRANCH   3  12
BRANCH  11  20
HETATM   20  O2  UNK     1      17.838  13.265  34.094  1.00  0.00    -0.356 OA
HETATM   21  C17 UNK     1      18.603  13.869  33.053  1.00  0.00     0.210 C 
ENDBRANCH  11  20
TORSDOF 3
ENDMDL
MODEL 8
REMARK VINA RESULT:      -7.2     22.372     24.980
REMARK  3 active torsions:
REMARK  status: ('A' for Active; 'I' for Inactive)
REMARK    1  A    between atoms: C16_20  and  O2_2 
REMARK    2  A    between atoms: C7_11  and  N1_4 
REMARK    3  A    between atoms: C7_11  and  C8_12 
ROOT
HETATM    1  O1  UNK     1      15.261   6.170  10.623  1.00  0.00    -0.275 OA
HETATM    2  O3  UNK     1      15.630   4.025   9.920  1.00  0.00    -0.260 OA
HETATM    3  C8  UNK     1      13.764   6.582   8.259  1.00  0.00    -0.011 A 
HETATM    4  C9  UNK     1      13.927   7.671   9.232  1.00  0.00     0.006 A 
HETATM    5  C10 UNK     1      14.334   5.395   8.511  1.00  0.00     0.092 A 
HETATM    6  C11 UNK     1      14.673   7.428  10.386  1.00  0.00     0.093 A 
HETATM    7  C12 UNK     1      13.376   8.948   9.072  1.00  0.00     0.017 A 
HETATM    8  C13 UNK     1      15.123   5.124   9.724  1.00  0.00     0.288 A 
HETATM    9  C14 UNK     1      14.878   8.407  11.361  1.00  0.00     0.075 A 
HETATM   10  C15 UNK     1      13.571   9.940  10.040  1.00  0.00     0.038 A 
HETATM   11  C16 UNK     1      14.321   9.669  11.184  1.00  0.00     0.070 A 
ENDROOT
BRANCH   3  12
HETATM   12  C7  UNK     1      12.974   6.810   7.016  1.00  0.00     0.312 C 
BRANCH  12  13
HETATM   13  N1  UNK     1      11.537   6.647   7.238  1.00  0.00     0.092 N 
HETATM   14  C1  UNK     1      10.830   6.652   5.952  1.00  0.00     0.272 C 
HETATM   15  C3  UNK     1       9.358   6.230   5.956  1.00  0.00     0.030 C 
HETATM   16  C5  UNK     1       8.559   6.716   7.161  1.00  0.00     0.002 C 
HETATM   17  C6  UNK     1       8.698   5.780   8.357  1.00  0.00     0.002 C 
HETATM   18  C4  UNK     1      10.077   5.758   9.010  1.00  0.00     0.030 C 
HETATM   19  C2  UNK     1      11.256   5.479   8.074  1.00  0.00     0.272 C 
ENDBRANCH  12  13
ENDBRANCH   3  12
BRANCH  11  20
HETATM   20  O2  UNK     1      14.507  10.636  12.123  1.00  0.00    -0.356 OA
HETATM   21  C17 UNK     1      13.427  10.888  13.019  1.00  0.00     0.210 C 
ENDBRANCH  11  20
TORSDOF 3
ENDMDL
MODEL 9
REMARK VINA RESULT:      -7.1     14.693     17.402
REMARK  3 active torsions:
REMARK  status: ('A' for Active; 'I' for Inactive)
REMARK    1  A    between atoms: C16_20  and  O2_2 
REMARK    2  A    between atoms: C7_11  and  N1_4 
REMARK    3  A    between atoms: C7_11  and  C8_12 
ROOT
HETATM    1  O1  UNK     1      29.476  -9.439  38.212  1.00  0.00    -0.275 OA
HETATM    2  O3  UNK     1      31.330 -10.761  37.997  1.00  0.00    -0.260 OA
HETATM    3  C8  UNK     1      31.207  -7.205  38.349  1.00  0.00    -0.011 A 
HETATM    4  C9  UNK     1      29.751  -7.022  38.434  1.00  0.00     0.006 A 
HETATM    5  C10 UNK     1      31.698  -8.445  38.206  1.00  0.00     0.092 A 
HETATM    6  C11 UNK     1      28.931  -8.149  38.363  1.00  0.00     0.093 A 
HETATM    7  C12 UNK     1      29.131  -5.775  38.583  1.00  0.00     0.017 A 
HETATM    8  C13 UNK     1      30.845  -9.642  38.129  1.00  0.00     0.288 A 
HETATM    9  C14 UNK     1      27.539  -8.063  38.436  1.00  0.00     0.075 A 
HETATM   10  C15 UNK     1      27.737  -5.673  38.657  1.00  0.00     0.038 A 
HETATM   11  C16 UNK     1      26.942  -6.816  38.583  1.00  0.00     0.070 A 
ENDROOT
BRANCH   3  12
HETATM   12  C7  UNK     1      32.110  -6.023  38.423  1.00  0.00     0.312 C 
BRANCH  12  13
HETATM   13  N1  UNK     1      32.855  -5.818  37.180  1.00  0.00     0.092 N 
HETATM   14  C1  UNK     1      32.518  -4.510  36.606  1.00  0.00     0.272 C 
HETATM   15  C3  UNK     1      33.388  -4.003  35.453  1.00  0.00     0.030 C 
HETATM   16  C5  UNK     1      33.821  -5.077  34.460  1.00  0.00     0.002 C 
HETATM   17  C6  UNK     1      35.080  -5.807  34.920  1.00  0.00     0.002 C 
HETATM   18  C4  UNK     1      34.904  -6.704  36.142  1.00  0.00     0.030 C 
HETATM   19  C2  UNK     1      34.288  -6.038  37.376  1.00  0.00     0.272 C 
ENDBRANCH  12  13
ENDBRANCH   3  12
BRANCH  11  20
HETATM   20  O2  UNK     1      25.588  -6.711  38.655  1.00  0.00    -0.356 OA
HETATM   21  C17 UNK     1      24.845  -7.926  38.734  1.00  0.00     0.210 C 
ENDBRANCH  11  20
TORSDOF 3
ENDMDL
MODEL 10
REMARK VINA RESULT:      -7.0     15.026     16.507
REMARK  3 active torsions:
REMARK  status: ('A' for Active; 'I' for Inactive)
REMARK    1  A    between atoms: C16_20  and  O2_2 
REMARK    2  A    between atoms: C7_11  and  N1_4 
REMARK    3  A    between atoms: C7_11  and  C8_12 
ROOT
HETATM    1  O1  UNK     1      30.924  -3.721  38.302  1.00  0.00    -0.275 OA
HETATM    2  O3  UNK     1      29.464  -3.575  40.056  1.00  0.00    -0.260 OA
HETATM    3  C8  UNK     1      29.279  -5.757  37.230  1.00  0.00    -0.011 A 
HETATM    4  C9  UNK     1      30.495  -5.335  36.520  1.00  0.00     0.006 A 
HETATM    5  C10 UNK     1      28.965  -5.162  38.389  1.00  0.00     0.092 A 
HETATM    6  C11 UNK     1      31.281  -4.328  37.081  1.00  0.00     0.093 A 
HETATM    7  C12 UNK     1      30.918  -5.887  35.304  1.00  0.00     0.017 A 
HETATM    8  C13 UNK     1      29.783  -4.097  38.993  1.00  0.00     0.288 A 
HETATM    9  C14 UNK     1      32.451  -3.869  36.473  1.00  0.00     0.075 A 
HETATM   10  C15 UNK     1      32.088  -5.437  34.682  1.00  0.00     0.038 A 
HETATM   11  C16 UNK     1      32.853  -4.429  35.265  1.00  0.00     0.070 A 
ENDROOT
BRANCH   3  12
HETATM   12  C7  UNK     1      28.420  -6.831  36.657  1.00  0.00     0.312 C 
BRANCH  12  13
HETATM   13  N1  UNK     1      28.040  -7.827  37.660  1.00  0.00     0.092 N 
HETATM   14  C1  UNK     1      26.592  -8.059  37.608  1.00  0.00     0.272 C 
HETATM   15  C3  UNK     1      26.042  -9.254  38.393  1.00  0.00     0.030 C 
HETATM   16  C5  UNK     1      26.710  -9.491  39.744  1.00  0.00     0.002 C 
HETATM   17  C6  UNK     1      27.982 -10.324  39.616  1.00  0.00     0.002 C 
HETATM   18  C4  UNK     1      29.149  -9.629  38.920  1.00  0.00     0.030 C 
HETATM   19  C2  UNK     1      28.849  -9.041  37.538  1.00  0.00     0.272 C 
ENDBRANCH  12  13
ENDBRANCH   3  12
BRANCH  11  20
HETATM   20  O2  UNK     1      33.989  -3.995  34.656  1.00  0.00    -0.356 OA
HETATM   21  C17 UNK     1      34.919  -4.988  34.228  1.00  0.00     0.210 C 
ENDBRANCH  11  20
TORSDOF 3
ENDMDL
