MODEL 1
REMARK VINA RESULT:      -7.9      0.000      0.000
REMARK  4 active torsions:
REMARK  status: ('A' for Active; 'I' for Inactive)
REMARK    1  A    between atoms: C4_8  and  O1_3 
REMARK    2  A    between atoms: C3_7  and  C9_13 
REMARK    3  A    between atoms: C12_16  and  C9_13 
REMARK    4  A    between atoms: C13_17  and  C14_18 
ROOT
HETATM    1  C1  UNK     1      15.529  10.004   8.722  1.00  0.00     0.008 A 
HETATM    2  C2  UNK     1      16.836   9.776   9.216  1.00  0.00    -0.023 A 
HETATM    3  C3  UNK     1      14.776   7.960   9.807  1.00  0.00     0.048 A 
HETATM    4  C4  UNK     1      14.510   9.086   9.027  1.00  0.00     0.090 A 
HETATM    5  C5  UNK     1      17.085   8.637  10.000  1.00  0.00     0.013 A 
HETATM    6  C6  UNK     1      16.061   7.737  10.293  1.00  0.00     0.019 A 
HETATM    7  C7  UNK     1      15.279  11.142   7.939  1.00  0.00     0.015 A 
HETATM    8  C8  UNK     1      17.854  10.693   8.912  1.00  0.00     0.012 A 
HETATM    9  C10 UNK     1      16.303  12.043   7.646  1.00  0.00     0.001 A 
HETATM   10  C11 UNK     1      17.588  11.819   8.132  1.00  0.00     0.001 A 
ENDROOT
BRANCH   3  11
HETATM   11  C9  UNK     1      13.725   7.002  10.128  1.00  0.00     0.184 C 
HETATM   12  O2  UNK     1      12.683   7.370  10.687  1.00  0.00    -0.287 OA
BRANCH  11  13
HETATM   13  C12 UNK     1      13.947   5.556   9.793  1.00  0.00     0.056 C 
HETATM   14  C14 UNK     1      13.147   4.928   8.918  1.00  0.00     0.019 C 
BRANCH  14  15
HETATM   15  C13 UNK     1      12.013   5.561   8.221  1.00  0.00     0.007 A 
HETATM   16  C15 UNK     1      12.240   6.352   7.094  1.00  0.00     0.045 A 
HETATM   17 Cl1  UNK     1      13.830   6.633   6.468  1.00  0.00    -0.083 Cl
HETATM   18  C17 UNK     1      11.168   6.949   6.433  1.00  0.00     0.025 A 
HETATM   19  C19 UNK     1       9.866   6.753   6.897  1.00  0.00     0.003 A 
HETATM   20  C18 UNK     1       9.639   5.963   8.023  1.00  0.00     0.025 A 
HETATM   21  C16 UNK     1      10.712   5.366   8.684  1.00  0.00     0.045 A 
HETATM   22 Cl2  UNK     1      10.362   4.396  10.075  1.00  0.00    -0.083 Cl
ENDBRANCH  14  15
ENDBRANCH  11  13
ENDBRANCH   3  11
BRANCH   4  23
HETATM   23  O1  UNK     1      13.238   9.282   8.564  1.00  0.00    -0.359 OA
HETATM   24  H9  UNK     1      13.229   9.248   7.594  1.00  0.00     0.217 HD
ENDBRANCH   4  23
TORSDOF 4
ENDMDL
MODEL 2
REMARK VINA RESULT:      -7.9     22.528     24.737
REMARK  4 active torsions:
REMARK  status: ('A' for Active; 'I' for Inactive)
REMARK    1  A    between atoms: C4_8  and  O1_3 
REMARK    2  A    between atoms: C3_7  and  C9_13 
REMARK    3  A    between atoms: C12_16  and  C9_13 
REMARK    4  A    between atoms: C13_17  and  C14_18 
ROOT
HETATM    1  C1  UNK     1      19.566  -0.108  31.303  1.00  0.00     0.008 A 
HETATM    2  C2  UNK     1      19.857  -0.421  29.954  1.00  0.00    -0.023 A 
HETATM    3  C3  UNK     1      18.830   2.108  30.618  1.00  0.00     0.048 A 
HETATM    4  C4  UNK     1      19.052   1.161  31.619  1.00  0.00     0.090 A 
HETATM    5  C5  UNK     1      19.626   0.545  28.960  1.00  0.00     0.013 A 
HETATM    6  C6  UNK     1      19.116   1.799  29.292  1.00  0.00     0.019 A 
HETATM    7  C7  UNK     1      19.796  -1.072  32.297  1.00  0.00     0.015 A 
HETATM    8  C8  UNK     1      20.370  -1.689  29.638  1.00  0.00     0.012 A 
HETATM    9  C10 UNK     1      20.307  -2.328  31.966  1.00  0.00     0.001 A 
HETATM   10  C11 UNK     1      20.593  -2.636  30.639  1.00  0.00     0.001 A 
ENDROOT
BRANCH   3  11
HETATM   11  C9  UNK     1      18.298   3.426  30.936  1.00  0.00     0.184 C 
HETATM   12  O2  UNK     1      17.748   3.642  32.026  1.00  0.00    -0.287 OA
BRANCH  11  13
HETATM   13  C12 UNK     1      18.402   4.510  29.903  1.00  0.00     0.056 C 
HETATM   14  C14 UNK     1      18.687   5.771  30.263  1.00  0.00     0.019 C 
BRANCH  14  15
HETATM   15  C13 UNK     1      18.917   6.211  31.651  1.00  0.00     0.007 A 
HETATM   16  C15 UNK     1      17.842   6.620  32.440  1.00  0.00     0.045 A 
HETATM   17 Cl1  UNK     1      16.215   6.638  31.848  1.00  0.00    -0.083 Cl
HETATM   18  C17 UNK     1      18.058   7.035  33.753  1.00  0.00     0.025 A 
HETATM   19  C19 UNK     1      19.351   7.039  34.279  1.00  0.00     0.003 A 
HETATM   20  C18 UNK     1      20.426   6.630  33.490  1.00  0.00     0.025 A 
HETATM   21  C16 UNK     1      20.208   6.215  32.177  1.00  0.00     0.045 A 
HETATM   22 Cl2  UNK     1      21.585   5.719  31.251  1.00  0.00    -0.083 Cl
ENDBRANCH  14  15
ENDBRANCH  11  13
ENDBRANCH   3  11
BRANCH   4  23
HETATM   23  O1  UNK     1      18.761   1.490  32.914  1.00  0.00    -0.359 OA
HETATM   24  H9  UNK     1      17.823   1.721  32.995  1.00  0.00     0.217 HD
ENDBRANCH   4  23
TORSDOF 4
ENDMDL
MODEL 3
REMARK VINA RESULT:      -7.9     22.521     24.689
REMARK  4 active torsions:
REMARK  status: ('A' for Active; 'I' for Inactive)
REMARK    1  A    between atoms: C4_8  and  O1_3 
REMARK    2  A    between atoms: C3_7  and  C9_13 
REMARK    3  A    between atoms: C12_16  and  C9_13 
REMARK    4  A    between atoms: C13_17  and  C14_18 
ROOT
HETATM    1  C1  UNK     1      19.564  -0.099  31.303  1.00  0.00     0.008 A 
HETATM    2  C2  UNK     1      19.850  -0.417  29.954  1.00  0.00    -0.023 A 
HETATM    3  C3  UNK     1      18.827   2.115  30.613  1.00  0.00     0.048 A 
HETATM    4  C4  UNK     1      19.052   1.171  31.616  1.00  0.00     0.090 A 
HETATM    5  C5  UNK     1      19.617   0.546  28.958  1.00  0.00     0.013 A 
HETATM    6  C6  UNK     1      19.109   1.802  29.287  1.00  0.00     0.019 A 
HETATM    7  C7  UNK     1      19.796  -1.060  32.300  1.00  0.00     0.015 A 
HETATM    8  C8  UNK     1      20.361  -1.687  29.641  1.00  0.00     0.012 A 
HETATM    9  C10 UNK     1      20.304  -2.318  31.971  1.00  0.00     0.001 A 
HETATM   10  C11 UNK     1      20.586  -2.630  30.645  1.00  0.00     0.001 A 
ENDROOT
BRANCH   3  11
HETATM   11  C9  UNK     1      18.298   3.435  30.928  1.00  0.00     0.184 C 
HETATM   12  O2  UNK     1      17.739   3.651  32.013  1.00  0.00    -0.287 OA
BRANCH  11  13
HETATM   13  C12 UNK     1      18.416   4.520  29.897  1.00  0.00     0.056 C 
HETATM   14  C14 UNK     1      18.702   5.779  30.262  1.00  0.00     0.019 C 
BRANCH  14  15
HETATM   15  C13 UNK     1      18.922   6.216  31.653  1.00  0.00     0.007 A 
HETATM   16  C15 UNK     1      20.210   6.220  32.187  1.00  0.00     0.045 A 
HETATM   17 Cl1  UNK     1      21.592   5.719  31.272  1.00  0.00    -0.083 Cl
HETATM   18  C17 UNK     1      20.419   6.635  33.502  1.00  0.00     0.025 A 
HETATM   19  C19 UNK     1      19.338   7.049  34.282  1.00  0.00     0.003 A 
HETATM   20  C18 UNK     1      18.050   7.046  33.747  1.00  0.00     0.025 A 
HETATM   21  C16 UNK     1      17.842   6.630  32.433  1.00  0.00     0.045 A 
HETATM   22 Cl2  UNK     1      16.220   6.650  31.829  1.00  0.00    -0.083 Cl
ENDBRANCH  14  15
ENDBRANCH  11  13
ENDBRANCH   3  11
BRANCH   4  23
HETATM   23  O1  UNK     1      18.765   1.505  32.911  1.00  0.00    -0.359 OA
HETATM   24  H9  UNK     1      19.043   0.791  33.507  1.00  0.00     0.217 HD
ENDBRANCH   4  23
TORSDOF 4
ENDMDL
MODEL 4
REMARK VINA RESULT:      -7.9     35.107     36.702
REMARK  4 active torsions:
REMARK  status: ('A' for Active; 'I' for Inactive)
REMARK    1  A    between atoms: C4_8  and  O1_3 
REMARK    2  A    between atoms: C3_7  and  C9_13 
REMARK    3  A    between atoms: C12_16  and  C9_13 
REMARK    4  A    between atoms: C13_17  and  C14_18 
ROOT
HETATM    1  C1  UNK     1      29.182  -7.645  38.587  1.00  0.00     0.008 A 
HETATM    2  C2  UNK     1      27.985  -6.900  38.704  1.00  0.00    -0.023 A 
HETATM    3  C3  UNK     1      30.428  -5.576  38.289  1.00  0.00     0.048 A 
HETATM    4  C4  UNK     1      30.396  -6.968  38.380  1.00  0.00     0.090 A 
HETATM    5  C5  UNK     1      28.037  -5.499  38.610  1.00  0.00     0.013 A 
HETATM    6  C6  UNK     1      29.251  -4.844  38.405  1.00  0.00     0.019 A 
HETATM    7  C7  UNK     1      29.132  -9.045  38.681  1.00  0.00     0.015 A 
HETATM    8  C8  UNK     1      26.772  -7.576  38.911  1.00  0.00     0.012 A 
HETATM    9  C10 UNK     1      27.918  -9.701  38.887  1.00  0.00     0.001 A 
HETATM   10  C11 UNK     1      26.740  -8.968  39.001  1.00  0.00     0.001 A 
ENDROOT
BRANCH   3  11
HETATM   11  C9  UNK     1      31.682  -4.866  38.075  1.00  0.00     0.184 C 
HETATM   12  O2  UNK     1      32.627  -4.996  38.865  1.00  0.00    -0.287 OA
BRANCH  11  13
HETATM   13  C12 UNK     1      31.792  -3.948  36.892  1.00  0.00     0.056 C 
HETATM   14  C14 UNK     1      32.159  -4.424  35.692  1.00  0.00     0.019 C 
BRANCH  14  15
HETATM   15  C13 UNK     1      32.479  -5.835  35.416  1.00  0.00     0.007 A 
HETATM   16  C15 UNK     1      31.483  -6.702  34.968  1.00  0.00     0.045 A 
HETATM   17 Cl1  UNK     1      29.849  -6.183  34.720  1.00  0.00    -0.083 Cl
HETATM   18  C17 UNK     1      31.786  -8.037  34.704  1.00  0.00     0.025 A 
HETATM   19  C19 UNK     1      33.087  -8.506  34.886  1.00  0.00     0.003 A 
HETATM   20  C18 UNK     1      34.084  -7.639  35.334  1.00  0.00     0.025 A 
HETATM   21  C16 UNK     1      33.780  -6.304  35.598  1.00  0.00     0.045 A 
HETATM   22 Cl2  UNK     1      35.063  -5.281  36.151  1.00  0.00    -0.083 Cl
ENDBRANCH  14  15
ENDBRANCH  11  13
ENDBRANCH   3  11
BRANCH   4  23
HETATM   23  O1  UNK     1      31.568  -7.664  38.265  1.00  0.00    -0.359 OA
HETATM   24  H9  UNK     1      32.196  -7.168  37.716  1.00  0.00     0.217 HD
ENDBRANCH   4  23
TORSDOF 4
ENDMDL
MODEL 5
REMARK VINA RESULT:      -7.9     35.113     36.681
REMARK  4 active torsions:
REMARK  status: ('A' for Active; 'I' for Inactive)
REMARK    1  A    between atoms: C4_8  and  O1_3 
REMARK    2  A    between atoms: C3_7  and  C9_13 
REMARK    3  A    between atoms: C12_16  and  C9_13 
REMARK    4  A    between atoms: C13_17  and  C14_18 
ROOT
HETATM    1  C1  UNK     1      29.181  -7.647  38.587  1.00  0.00     0.008 A 
HETATM    2  C2  UNK     1      27.985  -6.900  38.702  1.00  0.00    -0.023 A 
HETATM    3  C3  UNK     1      30.431  -5.579  38.298  1.00  0.00     0.048 A 
HETATM    4  C4  UNK     1      30.396  -6.971  38.386  1.00  0.00     0.090 A 
HETATM    5  C5  UNK     1      28.039  -5.499  38.611  1.00  0.00     0.013 A 
HETATM    6  C6  UNK     1      29.254  -4.845  38.411  1.00  0.00     0.019 A 
HETATM    7  C7  UNK     1      29.128  -9.047  38.678  1.00  0.00     0.015 A 
HETATM    8  C8  UNK     1      26.770  -7.574  38.903  1.00  0.00     0.012 A 
HETATM    9  C10 UNK     1      27.913  -9.702  38.878  1.00  0.00     0.001 A 
HETATM   10  C11 UNK     1      26.736  -8.967  38.991  1.00  0.00     0.001 A 
ENDROOT
BRANCH   3  11
HETATM   11  C9  UNK     1      31.687  -4.870  38.089  1.00  0.00     0.184 C 
HETATM   12  O2  UNK     1      32.631  -5.008  38.879  1.00  0.00    -0.287 OA
BRANCH  11  13
HETATM   13  C12 UNK     1      31.800  -3.945  36.912  1.00  0.00     0.056 C 
HETATM   14  C14 UNK     1      32.167  -4.414  35.710  1.00  0.00     0.019 C 
BRANCH  14  15
HETATM   15  C13 UNK     1      32.485  -5.824  35.424  1.00  0.00     0.007 A 
HETATM   16  C15 UNK     1      33.783  -6.297  35.611  1.00  0.00     0.045 A 
HETATM   17 Cl1  UNK     1      35.067  -5.279  36.172  1.00  0.00    -0.083 Cl
HETATM   18  C17 UNK     1      34.085  -7.632  35.343  1.00  0.00     0.025 A 
HETATM   19  C19 UNK     1      33.086  -8.495  34.890  1.00  0.00     0.003 A 
HETATM   20  C18 UNK     1      31.787  -8.022  34.703  1.00  0.00     0.025 A 
HETATM   21  C16 UNK     1      31.487  -6.687  34.971  1.00  0.00     0.045 A 
HETATM   22 Cl2  UNK     1      29.856  -6.162  34.719  1.00  0.00    -0.083 Cl
ENDBRANCH  14  15
ENDBRANCH  11  13
ENDBRANCH   3  11
BRANCH   4  23
HETATM   23  O1  UNK     1      31.568  -7.668  38.273  1.00  0.00    -0.359 OA
HETATM   24  H9  UNK     1      31.500  -8.512  38.748  1.00  0.00     0.217 HD
ENDBRANCH   4  23
TORSDOF 4
ENDMDL
MODEL 6
REMARK VINA RESULT:      -7.8     34.213     35.778
REMARK  4 active torsions:
REMARK  status: ('A' for Active; 'I' for Inactive)
REMARK    1  A    between atoms: C4_8  and  O1_3 
REMARK    2  A    between atoms: C3_7  and  C9_13 
REMARK    3  A    between atoms: C12_16  and  C9_13 
REMARK    4  A    between atoms: C13_17  and  C14_18 
ROOT
HETATM    1  C1  UNK     1      30.903  -5.467  36.052  1.00  0.00     0.008 A 
HETATM    2  C2  UNK     1      31.878  -5.054  36.992  1.00  0.00    -0.023 A 
HETATM    3  C3  UNK     1      29.359  -5.931  37.875  1.00  0.00     0.048 A 
HETATM    4  C4  UNK     1      29.649  -5.902  36.511  1.00  0.00     0.090 A 
HETATM    5  C5  UNK     1      31.569  -5.089  38.362  1.00  0.00     0.013 A 
HETATM    6  C6  UNK     1      30.318  -5.525  38.799  1.00  0.00     0.019 A 
HETATM    7  C7  UNK     1      31.211  -5.432  34.683  1.00  0.00     0.015 A 
HETATM    8  C8  UNK     1      33.132  -4.618  36.535  1.00  0.00     0.012 A 
HETATM    9  C10 UNK     1      32.462  -4.996  34.246  1.00  0.00     0.001 A 
HETATM   10  C11 UNK     1      33.421  -4.590  35.170  1.00  0.00     0.001 A 
ENDROOT
BRANCH   3  11
HETATM   11  C9  UNK     1      28.061  -6.381  38.359  1.00  0.00     0.184 C 
HETATM   12  O2  UNK     1      27.018  -5.829  37.981  1.00  0.00    -0.287 OA
BRANCH  11  13
HETATM   13  C12 UNK     1      28.017  -7.508  39.350  1.00  0.00     0.056 C 
HETATM   14  C14 UNK     1      28.269  -8.768  38.961  1.00  0.00     0.019 C 
BRANCH  14  15
HETATM   15  C13 UNK     1      28.601  -9.165  37.581  1.00  0.00     0.007 A 
HETATM   16  C15 UNK     1      27.582  -9.404  36.660  1.00  0.00     0.045 A 
HETATM   17 Cl1  UNK     1      25.907  -9.256  37.075  1.00  0.00    -0.083 Cl
HETATM   18  C17 UNK     1      27.895  -9.778  35.353  1.00  0.00     0.025 A 
HETATM   19  C19 UNK     1      29.230  -9.911  34.967  1.00  0.00     0.003 A 
HETATM   20  C18 UNK     1      30.249  -9.672  35.889  1.00  0.00     0.025 A 
HETATM   21  C16 UNK     1      29.935  -9.298  37.195  1.00  0.00     0.045 A 
HETATM   22 Cl2  UNK     1      31.247  -9.015  38.289  1.00  0.00    -0.083 Cl
ENDBRANCH  14  15
ENDBRANCH  11  13
ENDBRANCH   3  11
BRANCH   4  23
HETATM   23  O1  UNK     1      28.688  -6.306  35.624  1.00  0.00    -0.359 OA
HETATM   24  H9  UNK     1      28.648  -7.275  35.596  1.00  0.00     0.217 HD
ENDBRANCH   4  23
TORSDOF 4
ENDMDL
MODEL 7
REMARK VINA RESULT:      -7.7     35.375     36.860
REMARK  4 active torsions:
REMARK  status: ('A' for Active; 'I' for Inactive)
REMARK    1  A    between atoms: C4_8  and  O1_3 
REMARK    2  A    between atoms: C3_7  and  C9_13 
REMARK    3  A    between atoms: C12_16  and  C9_13 
REMARK    4  A    between atoms: C13_17  and  C14_18 
ROOT
HETATM    1  C1  UNK     1      33.644  -7.339  36.649  1.00  0.00     0.008 A 
HETATM    2  C2  UNK     1      33.950  -7.842  35.362  1.00  0.00    -0.023 A 
HETATM    3  C3  UNK     1      31.783  -8.899  36.804  1.00  0.00     0.048 A 
HETATM    4  C4  UNK     1      32.557  -7.878  37.357  1.00  0.00     0.090 A 
HETATM    5  C5  UNK     1      33.160  -8.870  34.821  1.00  0.00     0.013 A 
HETATM    6  C6  UNK     1      32.085  -9.394  35.538  1.00  0.00     0.019 A 
HETATM    7  C7  UNK     1      34.433  -6.312  37.190  1.00  0.00     0.015 A 
HETATM    8  C8  UNK     1      35.037  -7.304  34.655  1.00  0.00     0.012 A 
HETATM    9  C10 UNK     1      35.510  -5.788  36.473  1.00  0.00     0.001 A 
HETATM   10  C11 UNK     1      35.810  -6.283  35.208  1.00  0.00     0.001 A 
ENDROOT
BRANCH   3  11
HETATM   11  C9  UNK     1      30.653  -9.464  37.530  1.00  0.00     0.184 C 
HETATM   12  O2  UNK     1      30.806  -9.947  38.661  1.00  0.00    -0.287 OA
BRANCH  11  13
HETATM   13  C12 UNK     1      29.307  -9.476  36.866  1.00  0.00     0.056 C 
HETATM   14  C14 UNK     1      28.562  -8.361  36.817  1.00  0.00     0.019 C 
BRANCH  14  15
HETATM   15  C13 UNK     1      28.963  -7.062  37.385  1.00  0.00     0.007 A 
HETATM   16  C15 UNK     1      28.680  -6.766  38.718  1.00  0.00     0.045 A 
HETATM   17 Cl1  UNK     1      27.855  -7.880  39.757  1.00  0.00    -0.083 Cl
HETATM   18  C17 UNK     1      29.061  -5.538  39.257  1.00  0.00     0.025 A 
HETATM   19  C19 UNK     1      29.728  -4.605  38.462  1.00  0.00     0.003 A 
HETATM   20  C18 UNK     1      30.012  -4.901  37.129  1.00  0.00     0.025 A 
HETATM   21  C16 UNK     1      29.630  -6.129  36.591  1.00  0.00     0.045 A 
HETATM   22 Cl2  UNK     1      30.013  -6.435  34.930  1.00  0.00    -0.083 Cl
ENDBRANCH  14  15
ENDBRANCH  11  13
ENDBRANCH   3  11
BRANCH   4  23
HETATM   23  O1  UNK     1      32.239  -7.411  38.603  1.00  0.00    -0.359 OA
HETATM   24  H9  UNK     1      31.895  -6.506  38.540  1.00  0.00     0.217 HD
ENDBRANCH   4  23
TORSDOF 4
ENDMDL
MODEL 8
REMARK VINA RESULT:      -7.7     32.289     34.547
REMARK  4 active torsions:
REMARK  status: ('A' for Active; 'I' for Inactive)
REMARK    1  A    between atoms: C4_8  and  O1_3 
REMARK    2  A    between atoms: C3_7  and  C9_13 
REMARK    3  A    between atoms: C12_16  and  C9_13 
REMARK    4  A    between atoms: C13_17  and  C14_18 
ROOT
HETATM    1  C1  UNK     1      28.448  -7.150  32.987  1.00  0.00     0.008 A 
HETATM    2  C2  UNK     1      28.907  -8.280  32.268  1.00  0.00    -0.023 A 
HETATM    3  C3  UNK     1      28.230  -8.525  34.984  1.00  0.00     0.048 A 
HETATM    4  C4  UNK     1      28.115  -7.290  34.345  1.00  0.00     0.090 A 
HETATM    5  C5  UNK     1      29.017  -9.516  32.928  1.00  0.00     0.013 A 
HETATM    6  C6  UNK     1      28.681  -9.635  34.276  1.00  0.00     0.019 A 
HETATM    7  C7  UNK     1      28.338  -5.915  32.329  1.00  0.00     0.015 A 
HETATM    8  C8  UNK     1      29.241  -8.141  30.912  1.00  0.00     0.012 A 
HETATM    9  C10 UNK     1      28.675  -5.795  30.980  1.00  0.00     0.001 A 
HETATM   10  C11 UNK     1      29.125  -6.906  30.273  1.00  0.00     0.001 A 
ENDROOT
BRANCH   3  11
HETATM   11  C9  UNK     1      27.886  -8.678  36.391  1.00  0.00     0.184 C 
HETATM   12  O2  UNK     1      26.791  -8.289  36.821  1.00  0.00    -0.287 OA
BRANCH  11  13
HETATM   13  C12 UNK     1      28.899  -9.290  37.314  1.00  0.00     0.056 C 
HETATM   14  C14 UNK     1      29.783  -8.517  37.963  1.00  0.00     0.019 C 
BRANCH  14  15
HETATM   15  C13 UNK     1      29.855  -7.050  37.846  1.00  0.00     0.007 A 
HETATM   16  C15 UNK     1      29.061  -6.245  38.662  1.00  0.00     0.045 A 
HETATM   17 Cl1  UNK     1      27.967  -6.908  39.830  1.00  0.00    -0.083 Cl
HETATM   18  C17 UNK     1      29.129  -4.857  38.553  1.00  0.00     0.025 A 
HETATM   19  C19 UNK     1      29.995  -4.272  37.628  1.00  0.00     0.003 A 
HETATM   20  C18 UNK     1      30.789  -5.077  36.811  1.00  0.00     0.025 A 
HETATM   21  C16 UNK     1      30.720  -6.465  36.921  1.00  0.00     0.045 A 
HETATM   22 Cl2  UNK     1      31.733  -7.407  35.879  1.00  0.00    -0.083 Cl
ENDBRANCH  14  15
ENDBRANCH  11  13
ENDBRANCH   3  11
BRANCH   4  23
HETATM   23  O1  UNK     1      27.670  -6.214  35.064  1.00  0.00    -0.359 OA
HETATM   24  H9  UNK     1      26.913  -5.805  34.616  1.00  0.00     0.217 HD
ENDBRANCH   4  23
TORSDOF 4
ENDMDL
MODEL 9
REMARK VINA RESULT:      -7.6     32.291     34.504
REMARK  4 active torsions:
REMARK  status: ('A' for Active; 'I' for Inactive)
REMARK    1  A    between atoms: C4_8  and  O1_3 
REMARK    2  A    between atoms: C3_7  and  C9_13 
REMARK    3  A    between atoms: C12_16  and  C9_13 
REMARK    4  A    between atoms: C13_17  and  C14_18 
ROOT
HETATM    1  C1  UNK     1      28.440  -7.152  32.989  1.00  0.00     0.008 A 
HETATM    2  C2  UNK     1      28.900  -8.281  32.270  1.00  0.00    -0.023 A 
HETATM    3  C3  UNK     1      28.227  -8.524  34.987  1.00  0.00     0.048 A 
HETATM    4  C4  UNK     1      28.109  -7.290  34.347  1.00  0.00     0.090 A 
HETATM    5  C5  UNK     1      29.013  -9.516  32.931  1.00  0.00     0.013 A 
HETATM    6  C6  UNK     1      28.679  -9.634  34.280  1.00  0.00     0.019 A 
HETATM    7  C7  UNK     1      28.326  -5.918  32.329  1.00  0.00     0.015 A 
HETATM    8  C8  UNK     1      29.232  -8.143  30.913  1.00  0.00     0.012 A 
HETATM    9  C10 UNK     1      28.661  -5.798  30.980  1.00  0.00     0.001 A 
HETATM   10  C11 UNK     1      29.112  -6.909  30.273  1.00  0.00     0.001 A 
ENDROOT
BRANCH   3  11
HETATM   11  C9  UNK     1      27.885  -8.677  36.395  1.00  0.00     0.184 C 
HETATM   12  O2  UNK     1      26.793  -8.283  36.827  1.00  0.00    -0.287 OA
BRANCH  11  13
HETATM   13  C12 UNK     1      28.898  -9.292  37.316  1.00  0.00     0.056 C 
HETATM   14  C14 UNK     1      29.784  -8.523  37.966  1.00  0.00     0.019 C 
BRANCH  14  15
HETATM   15  C13 UNK     1      29.859  -7.055  37.851  1.00  0.00     0.007 A 
HETATM   16  C15 UNK     1      30.723  -6.471  36.925  1.00  0.00     0.045 A 
HETATM   17 Cl1  UNK     1      31.737  -7.413  35.885  1.00  0.00    -0.083 Cl
HETATM   18  C17 UNK     1      30.793  -5.083  36.815  1.00  0.00     0.025 A 
HETATM   19  C19 UNK     1      29.996  -4.278  37.630  1.00  0.00     0.003 A 
HETATM   20  C18 UNK     1      29.132  -4.862  38.556  1.00  0.00     0.025 A 
HETATM   21  C16 UNK     1      29.063  -6.251  38.666  1.00  0.00     0.045 A 
HETATM   22 Cl2  UNK     1      27.970  -6.912  39.834  1.00  0.00    -0.083 Cl
ENDBRANCH  14  15
ENDBRANCH  11  13
ENDBRANCH   3  11
BRANCH   4  23
HETATM   23  O1  UNK     1      27.663  -6.215  35.065  1.00  0.00    -0.359 OA
HETATM   24  H9  UNK     1      28.258  -6.045  35.812  1.00  0.00     0.217 HD
ENDBRANCH   4  23
TORSDOF 4
ENDMDL
MODEL 10
REMARK VINA RESULT:      -7.6      2.025      6.469
REMARK  4 active torsions:
REMARK  status: ('A' for Active; 'I' for Inactive)
REMARK    1  A    between atoms: C4_8  and  O1_3 
REMARK    2  A    between atoms: C3_7  and  C9_13 
REMARK    3  A    between atoms: C12_16  and  C9_13 
REMARK    4  A    between atoms: C13_17  and  C14_18 
ROOT
HETATM    1  C1  UNK     1      10.714   5.818   8.476  1.00  0.00     0.008 A 
HETATM    2  C2  UNK     1      10.651   6.350   7.166  1.00  0.00    -0.023 A 
HETATM    3  C3  UNK     1      13.142   5.981   8.412  1.00  0.00     0.048 A 
HETATM    4  C4  UNK     1      11.968   5.640   9.085  1.00  0.00     0.090 A 
HETATM    5  C5  UNK     1      11.843   6.687   6.503  1.00  0.00     0.013 A 
HETATM    6  C6  UNK     1      13.079   6.503   7.124  1.00  0.00     0.019 A 
HETATM    7  C7  UNK     1       9.524   5.481   9.139  1.00  0.00     0.015 A 
HETATM    8  C8  UNK     1       9.399   6.528   6.557  1.00  0.00     0.012 A 
HETATM    9  C10 UNK     1       8.287   5.665   8.518  1.00  0.00     0.001 A 
HETATM   10  C11 UNK     1       8.225   6.187   7.230  1.00  0.00     0.001 A 
ENDROOT
BRANCH   3  11
HETATM   11  C9  UNK     1      14.445   5.799   9.036  1.00  0.00     0.184 C 
HETATM   12  O2  UNK     1      15.430   5.469   8.361  1.00  0.00    -0.287 OA
BRANCH  11  13
HETATM   13  C12 UNK     1      14.562   5.990  10.521  1.00  0.00     0.056 C 
HETATM   14  C14 UNK     1      14.976   7.162  11.026  1.00  0.00     0.019 C 
BRANCH  14  15
HETATM   15  C13 UNK     1      15.345   8.337  10.217  1.00  0.00     0.007 A 
HETATM   16  C15 UNK     1      14.361   9.230   9.795  1.00  0.00     0.045 A 
HETATM   17 Cl1  UNK     1      12.687   9.013  10.184  1.00  0.00    -0.083 Cl
HETATM   18  C17 UNK     1      14.709  10.344   9.031  1.00  0.00     0.025 A 
HETATM   19  C19 UNK     1      16.044  10.565   8.690  1.00  0.00     0.003 A 
HETATM   20  C18 UNK     1      17.029   9.672   9.113  1.00  0.00     0.025 A 
HETATM   21  C16 UNK     1      16.679   8.559   9.876  1.00  0.00     0.045 A 
HETATM   22 Cl2  UNK     1      17.949   7.490  10.369  1.00  0.00    -0.083 Cl
ENDBRANCH  14  15
ENDBRANCH  11  13
ENDBRANCH   3  11
BRANCH   4  23
HETATM   23  O1  UNK     1      12.058   5.130  10.351  1.00  0.00    -0.359 OA
HETATM   24  H9  UNK     1      12.953   4.790  10.509  1.00  0.00     0.217 HD
ENDBRANCH   4  23
TORSDOF 4
ENDMDL
