MODEL 1
REMARK VINA RESULT:      -7.4      0.000      0.000
REMARK  5 active torsions:
REMARK  status: ('A' for Active; 'I' for Inactive)
REMARK    1  A    between atoms: C6_10  and  O1_1 
REMARK       I    between atoms: C7_11  and  N1_4 
REMARK    2  A    between atoms: C1_5  and  C6_10 
REMARK    3  A    between atoms: C7_11  and  C8_12 
REMARK    4  A    between atoms: C8_12  and  C9_13 
REMARK    5  A    between atoms: C10_14  and  C12_16 
ROOT
HETATM    1  C8  UNK     1      30.905  -7.460  37.380  1.00  0.00     0.043 C 
HETATM    2  C10 UNK     1      31.504  -6.259  37.453  1.00  0.00     0.029 C 
ENDROOT
BRANCH   1   3
HETATM    3  C7  UNK     1      31.501  -8.397  36.407  1.00  0.00     0.254 C 
HETATM    4  O3  UNK     1      32.521  -9.000  36.747  1.00  0.00    -0.267 OA
HETATM    5  N1  UNK     1      30.870  -8.543  35.175  1.00  0.00    -0.348 N 
HETATM    6  C4  UNK     1      31.425  -9.466  34.186  1.00  0.00     0.127 C 
HETATM    7  C5  UNK     1      29.662  -7.842  34.721  1.00  0.00     0.127 C 
HETATM    8  C2  UNK     1      30.394 -10.532  33.815  1.00  0.00     0.034 C 
HETATM    9  C1  UNK     1      29.047  -9.930  33.394  1.00  0.00     0.088 C 
HETATM   10  C3  UNK     1      28.565  -8.844  34.363  1.00  0.00     0.034 C 
BRANCH   9  11
HETATM   11  C6  UNK     1      29.132  -9.403  31.991  1.00  0.00     0.262 C 
HETATM   12  O2  UNK     1      30.017  -9.701  31.200  1.00  0.00    -0.265 OA
BRANCH  11  13
HETATM   13  O1  UNK     1      28.086  -8.560  31.756  1.00  0.00    -0.326 OA
HETATM   14  C11 UNK     1      27.593  -8.552  30.413  1.00  0.00     0.213 C 
ENDBRANCH  11  13
ENDBRANCH   9  11
ENDBRANCH   1   3
BRANCH   1  15
HETATM   15  C9  UNK     1      29.743  -7.883  38.175  1.00  0.00    -0.021 A 
HETATM   16  C13 UNK     1      28.938  -6.923  38.771  1.00  0.00     0.012 A 
HETATM   17  C15 UNK     1      27.835  -7.324  39.524  1.00  0.00     0.001 A 
HETATM   18  C19 UNK     1      27.550  -8.682  39.674  1.00  0.00     0.000 A 
HETATM   19  C16 UNK     1      28.367  -9.638  39.070  1.00  0.00     0.001 A 
HETATM   20  C14 UNK     1      29.469  -9.236  38.315  1.00  0.00     0.012 A 
ENDBRANCH   1  15
BRANCH   2  21
HETATM   21  C12 UNK     1      32.667  -5.827  36.662  1.00  0.00    -0.035 A 
HETATM   22  C17 UNK     1      33.943  -6.002  37.176  1.00  0.00     0.011 A 
HETATM   23  C20 UNK     1      35.046  -5.591  36.426  1.00  0.00     0.001 A 
HETATM   24  C22 UNK     1      34.859  -5.013  35.171  1.00  0.00     0.000 A 
HETATM   25  C21 UNK     1      33.571  -4.842  34.666  1.00  0.00     0.001 A 
HETATM   26  C18 UNK     1      32.468  -5.252  35.416  1.00  0.00     0.011 A 
ENDBRANCH   2  21
TORSDOF 5
ENDMDL
MODEL 2
REMARK VINA RESULT:      -7.4      2.397      6.898
REMARK  5 active torsions:
REMARK  status: ('A' for Active; 'I' for Inactive)
REMARK    1  A    between atoms: C6_10  and  O1_1 
REMARK       I    between atoms: C7_11  and  N1_4 
REMARK    2  A    between atoms: C1_5  and  C6_10 
REMARK    3  A    between atoms: C7_11  and  C8_12 
REMARK    4  A    between atoms: C8_12  and  C9_13 
REMARK    5  A    between atoms: C10_14  and  C12_16 
ROOT
HETATM    1  C8  UNK     1      28.319  -8.162  35.016  1.00  0.00     0.043 C 
HETATM    2  C10 UNK     1      28.166  -9.354  35.618  1.00  0.00     0.029 C 
ENDROOT
BRANCH   1   3
HETATM    3  C7  UNK     1      28.436  -7.009  35.930  1.00  0.00     0.254 C 
HETATM    4  O3  UNK     1      27.393  -6.534  36.384  1.00  0.00    -0.267 OA
HETATM    5  N1  UNK     1      29.712  -6.539  36.223  1.00  0.00    -0.348 N 
HETATM    6  C4  UNK     1      29.871  -5.401  37.129  1.00  0.00     0.127 C 
HETATM    7  C5  UNK     1      30.981  -7.062  35.701  1.00  0.00     0.127 C 
HETATM    8  C2  UNK     1      30.729  -5.794  38.332  1.00  0.00     0.034 C 
HETATM    9  C1  UNK     1      32.061  -6.434  37.923  1.00  0.00     0.088 C 
HETATM   10  C3  UNK     1      31.885  -7.513  36.848  1.00  0.00     0.034 C 
BRANCH   9  11
HETATM   11  C6  UNK     1      33.027  -5.376  37.473  1.00  0.00     0.262 C 
HETATM   12  O2  UNK     1      32.691  -4.288  37.027  1.00  0.00    -0.265 OA
BRANCH  11  13
HETATM   13  O1  UNK     1      34.304  -5.823  37.642  1.00  0.00    -0.326 OA
HETATM   14  C11 UNK     1      35.125  -5.794  36.470  1.00  0.00     0.213 C 
ENDBRANCH  11  13
ENDBRANCH   9  11
ENDBRANCH   1   3
BRANCH   1  15
HETATM   15  C9  UNK     1      28.379  -7.942  33.563  1.00  0.00    -0.021 A 
HETATM   16  C13 UNK     1      28.758  -8.985  32.731  1.00  0.00     0.012 A 
HETATM   17  C15 UNK     1      28.814  -8.777  31.353  1.00  0.00     0.001 A 
HETATM   18  C19 UNK     1      28.490  -7.528  30.823  1.00  0.00     0.000 A 
HETATM   19  C16 UNK     1      28.110  -6.487  31.670  1.00  0.00     0.001 A 
HETATM   20  C14 UNK     1      28.053  -6.695  33.048  1.00  0.00     0.012 A 
ENDBRANCH   1  15
BRANCH   2  21
HETATM   21  C12 UNK     1      28.105  -9.582  37.070  1.00  0.00    -0.035 A 
HETATM   22  C17 UNK     1      26.873  -9.769  37.680  1.00  0.00     0.011 A 
HETATM   23  C20 UNK     1      26.816  -9.984  39.057  1.00  0.00     0.001 A 
HETATM   24  C22 UNK     1      27.991 -10.011  39.808  1.00  0.00     0.000 A 
HETATM   25  C21 UNK     1      29.223  -9.821  39.184  1.00  0.00     0.001 A 
HETATM   26  C18 UNK     1      29.280  -9.605  37.806  1.00  0.00     0.011 A 
ENDBRANCH   2  21
TORSDOF 5
ENDMDL
MODEL 3
REMARK VINA RESULT:      -7.4      1.335      1.841
REMARK  5 active torsions:
REMARK  status: ('A' for Active; 'I' for Inactive)
REMARK    1  A    between atoms: C6_10  and  O1_1 
REMARK       I    between atoms: C7_11  and  N1_4 
REMARK    2  A    between atoms: C1_5  and  C6_10 
REMARK    3  A    between atoms: C7_11  and  C8_12 
REMARK    4  A    between atoms: C8_12  and  C9_13 
REMARK    5  A    between atoms: C10_14  and  C12_16 
ROOT
HETATM    1  C8  UNK     1      30.840  -7.336  37.468  1.00  0.00     0.043 C 
HETATM    2  C10 UNK     1      31.643  -6.322  37.835  1.00  0.00     0.029 C 
ENDROOT
BRANCH   1   3
HETATM    3  C7  UNK     1      31.174  -7.959  36.171  1.00  0.00     0.254 C 
HETATM    4  O3  UNK     1      32.012  -8.863  36.172  1.00  0.00    -0.267 OA
HETATM    5  N1  UNK     1      30.517  -7.490  35.038  1.00  0.00    -0.348 N 
HETATM    6  C4  UNK     1      30.815  -8.084  33.734  1.00  0.00     0.127 C 
HETATM    7  C5  UNK     1      29.522  -6.412  34.984  1.00  0.00     0.127 C 
HETATM    8  C2  UNK     1      29.547  -8.668  33.113  1.00  0.00     0.034 C 
HETATM    9  C1  UNK     1      28.391  -7.661  33.070  1.00  0.00     0.088 C 
HETATM   10  C3  UNK     1      28.205  -6.929  34.405  1.00  0.00     0.034 C 
BRANCH   9  11
HETATM   11  C6  UNK     1      28.596  -6.688  31.945  1.00  0.00     0.262 C 
HETATM   12  O2  UNK     1      28.411  -5.482  32.040  1.00  0.00    -0.265 OA
BRANCH  11  13
HETATM   13  O1  UNK     1      29.009  -7.358  30.832  1.00  0.00    -0.326 OA
HETATM   14  C11 UNK     1      29.976  -6.676  30.027  1.00  0.00     0.213 C 
ENDBRANCH  11  13
ENDBRANCH   9  11
ENDBRANCH   1   3
BRANCH   1  15
HETATM   15  C9  UNK     1      29.700  -7.846  38.243  1.00  0.00    -0.021 A 
HETATM   16  C13 UNK     1      29.516  -9.215  38.366  1.00  0.00     0.012 A 
HETATM   17  C15 UNK     1      28.434  -9.699  39.102  1.00  0.00     0.001 A 
HETATM   18  C19 UNK     1      27.547  -8.807  39.706  1.00  0.00     0.000 A 
HETATM   19  C16 UNK     1      27.743  -7.432  39.574  1.00  0.00     0.001 A 
HETATM   20  C14 UNK     1      28.825  -6.948  38.839  1.00  0.00     0.012 A 
ENDBRANCH   1  15
BRANCH   2  21
HETATM   21  C12 UNK     1      32.785  -5.807  37.066  1.00  0.00    -0.035 A 
HETATM   22  C17 UNK     1      34.045  -6.351  37.271  1.00  0.00     0.011 A 
HETATM   23  C20 UNK     1      35.129  -5.861  36.542  1.00  0.00     0.001 A 
HETATM   24  C22 UNK     1      34.941  -4.835  35.616  1.00  0.00     0.000 A 
HETATM   25  C21 UNK     1      33.670  -4.297  35.420  1.00  0.00     0.001 A 
HETATM   26  C18 UNK     1      32.585  -4.785  36.149  1.00  0.00     0.011 A 
ENDBRANCH   2  21
TORSDOF 5
ENDMDL
MODEL 4
REMARK VINA RESULT:      -7.4      1.655      2.336
REMARK  5 active torsions:
REMARK  status: ('A' for Active; 'I' for Inactive)
REMARK    1  A    between atoms: C6_10  and  O1_1 
REMARK       I    between atoms: C7_11  and  N1_4 
REMARK    2  A    between atoms: C1_5  and  C6_10 
REMARK    3  A    between atoms: C7_11  and  C8_12 
REMARK    4  A    between atoms: C8_12  and  C9_13 
REMARK    5  A    between atoms: C10_14  and  C12_16 
ROOT
HETATM    1  C8  UNK     1      30.928  -7.410  37.366  1.00  0.00     0.043 C 
HETATM    2  C10 UNK     1      32.211  -7.759  37.567  1.00  0.00     0.029 C 
ENDROOT
BRANCH   1   3
HETATM    3  C7  UNK     1      30.703  -6.471  36.249  1.00  0.00     0.254 C 
HETATM    4  O3  UNK     1      30.904  -5.274  36.462  1.00  0.00    -0.267 OA
HETATM    5  N1  UNK     1      30.284  -6.999  35.032  1.00  0.00    -0.348 N 
HETATM    6  C4  UNK     1      30.055  -6.102  33.898  1.00  0.00     0.127 C 
HETATM    7  C5  UNK     1      30.022  -8.412  34.732  1.00  0.00     0.127 C 
HETATM    8  C2  UNK     1      30.950  -6.491  32.723  1.00  0.00     0.034 C 
HETATM    9  C1  UNK     1      30.832  -7.975  32.355  1.00  0.00     0.088 C 
HETATM   10  C3  UNK     1      30.910  -8.888  33.584  1.00  0.00     0.034 C 
BRANCH   9  11
HETATM   11  C6  UNK     1      29.568  -8.217  31.582  1.00  0.00     0.262 C 
HETATM   12  O2  UNK     1      28.835  -9.182  31.752  1.00  0.00    -0.265 OA
BRANCH  11  13
HETATM   13  O1  UNK     1      29.382  -7.208  30.683  1.00  0.00    -0.326 OA
HETATM   14  C11 UNK     1      29.653  -7.543  29.319  1.00  0.00     0.213 C 
ENDBRANCH  11  13
ENDBRANCH   9  11
ENDBRANCH   1   3
BRANCH   1  15
HETATM   15  C9  UNK     1      29.781  -7.885  38.154  1.00  0.00    -0.021 A 
HETATM   16  C13 UNK     1      29.577  -9.249  38.306  1.00  0.00     0.012 A 
HETATM   17  C15 UNK     1      28.489  -9.700  39.054  1.00  0.00     0.001 A 
HETATM   18  C19 UNK     1      27.618  -8.783  39.641  1.00  0.00     0.000 A 
HETATM   19  C16 UNK     1      27.835  -7.414  39.482  1.00  0.00     0.001 A 
HETATM   20  C14 UNK     1      28.923  -6.963  38.735  1.00  0.00     0.012 A 
ENDBRANCH   1  15
BRANCH   2  21
HETATM   21  C12 UNK     1      33.363  -7.288  36.783  1.00  0.00    -0.035 A 
HETATM   22  C17 UNK     1      33.677  -7.918  35.588  1.00  0.00     0.011 A 
HETATM   23  C20 UNK     1      34.770  -7.472  34.845  1.00  0.00     0.001 A 
HETATM   24  C22 UNK     1      35.536  -6.402  35.306  1.00  0.00     0.000 A 
HETATM   25  C21 UNK     1      35.211  -5.778  36.510  1.00  0.00     0.001 A 
HETATM   26  C18 UNK     1      34.118  -6.224  37.253  1.00  0.00     0.011 A 
ENDBRANCH   2  21
TORSDOF 5
ENDMDL
MODEL 5
REMARK VINA RESULT:      -7.3      2.610      5.562
REMARK  5 active torsions:
REMARK  status: ('A' for Active; 'I' for Inactive)
REMARK    1  A    between atoms: C6_10  and  O1_1 
REMARK       I    between atoms: C7_11  and  N1_4 
REMARK    2  A    between atoms: C1_5  and  C6_10 
REMARK    3  A    between atoms: C7_11  and  C8_12 
REMARK    4  A    between atoms: C8_12  and  C9_13 
REMARK    5  A    between atoms: C10_14  and  C12_16 
ROOT
HETATM    1  C8  UNK     1      29.773  -7.135  34.254  1.00  0.00     0.043 C 
HETATM    2  C10 UNK     1      30.491  -6.027  34.509  1.00  0.00     0.029 C 
ENDROOT
BRANCH   1   3
HETATM    3  C7  UNK     1      29.824  -8.169  35.307  1.00  0.00     0.254 C 
HETATM    4  O3  UNK     1      30.774  -8.954  35.290  1.00  0.00    -0.267 OA
HETATM    5  N1  UNK     1      28.801  -8.186  36.249  1.00  0.00    -0.348 N 
HETATM    6  C4  UNK     1      28.817  -9.192  37.312  1.00  0.00     0.127 C 
HETATM    7  C5  UNK     1      27.645  -7.283  36.305  1.00  0.00     0.127 C 
HETATM    8  C2  UNK     1      28.835  -8.516  38.683  1.00  0.00     0.034 C 
HETATM    9  C1  UNK     1      27.717  -7.479  38.846  1.00  0.00     0.088 C 
HETATM   10  C3  UNK     1      27.613  -6.538  37.640  1.00  0.00     0.034 C 
BRANCH   9  11
HETATM   11  C6  UNK     1      26.408  -8.167  39.109  1.00  0.00     0.262 C 
HETATM   12  O2  UNK     1      26.306  -9.267  39.634  1.00  0.00    -0.265 OA
BRANCH  11  13
HETATM   13  O1  UNK     1      25.383  -7.380  38.673  1.00  0.00    -0.326 OA
HETATM   14  C11 UNK     1      24.075  -7.941  38.812  1.00  0.00     0.213 C 
ENDBRANCH  11  13
ENDBRANCH   9  11
ENDBRANCH   1   3
BRANCH   1  15
HETATM   15  C9  UNK     1      28.973  -7.374  33.044  1.00  0.00    -0.021 A 
HETATM   16  C13 UNK     1      29.131  -8.562  32.345  1.00  0.00     0.012 A 
HETATM   17  C15 UNK     1      28.371  -8.788  31.197  1.00  0.00     0.001 A 
HETATM   18  C19 UNK     1      27.463  -7.824  30.761  1.00  0.00     0.000 A 
HETATM   19  C16 UNK     1      27.313  -6.633  31.472  1.00  0.00     0.001 A 
HETATM   20  C14 UNK     1      28.072  -6.407  32.620  1.00  0.00     0.012 A 
ENDBRANCH   1  15
BRANCH   2  21
HETATM   21  C12 UNK     1      31.294  -5.781  35.716  1.00  0.00    -0.035 A 
HETATM   22  C17 UNK     1      32.639  -6.120  35.720  1.00  0.00     0.011 A 
HETATM   23  C20 UNK     1      33.400  -5.887  36.865  1.00  0.00     0.001 A 
HETATM   24  C22 UNK     1      32.808  -5.319  37.993  1.00  0.00     0.000 A 
HETATM   25  C21 UNK     1      31.455  -4.984  37.977  1.00  0.00     0.001 A 
HETATM   26  C18 UNK     1      30.693  -5.217  36.831  1.00  0.00     0.011 A 
ENDBRANCH   2  21
TORSDOF 5
ENDMDL
MODEL 6
REMARK VINA RESULT:      -7.3      2.495      6.292
REMARK  5 active torsions:
REMARK  status: ('A' for Active; 'I' for Inactive)
REMARK    1  A    between atoms: C6_10  and  O1_1 
REMARK       I    between atoms: C7_11  and  N1_4 
REMARK    2  A    between atoms: C1_5  and  C6_10 
REMARK    3  A    between atoms: C7_11  and  C8_12 
REMARK    4  A    between atoms: C8_12  and  C9_13 
REMARK    5  A    between atoms: C10_14  and  C12_16 
ROOT
HETATM    1  C8  UNK     1      31.511  -6.449  34.135  1.00  0.00     0.043 C 
HETATM    2  C10 UNK     1      31.016  -5.906  33.009  1.00  0.00     0.029 C 
ENDROOT
BRANCH   1   3
HETATM    3  C7  UNK     1      30.687  -7.521  34.727  1.00  0.00     0.254 C 
HETATM    4  O3  UNK     1      30.746  -8.638  34.207  1.00  0.00    -0.267 OA
HETATM    5  N1  UNK     1      29.904  -7.203  35.832  1.00  0.00    -0.348 N 
HETATM    6  C4  UNK     1      29.076  -8.239  36.451  1.00  0.00     0.127 C 
HETATM    7  C5  UNK     1      29.791  -5.890  36.479  1.00  0.00     0.127 C 
HETATM    8  C2  UNK     1      29.462  -8.421  37.919  1.00  0.00     0.034 C 
HETATM    9  C1  UNK     1      29.463  -7.101  38.698  1.00  0.00     0.088 C 
HETATM   10  C3  UNK     1      30.198  -5.982  37.949  1.00  0.00     0.034 C 
BRANCH   9  11
HETATM   11  C6  UNK     1      28.057  -6.695  39.031  1.00  0.00     0.262 C 
HETATM   12  O2  UNK     1      27.674  -5.534  39.087  1.00  0.00    -0.265 OA
BRANCH  11  13
HETATM   13  O1  UNK     1      27.301  -7.808  39.254  1.00  0.00    -0.326 OA
HETATM   14  C11 UNK     1      25.993  -7.790  38.674  1.00  0.00     0.213 C 
ENDBRANCH  11  13
ENDBRANCH   9  11
ENDBRANCH   1   3
BRANCH   1  15
HETATM   15  C9  UNK     1      32.770  -6.060  34.788  1.00  0.00    -0.021 A 
HETATM   16  C13 UNK     1      33.187  -4.738  34.731  1.00  0.00     0.012 A 
HETATM   17  C15 UNK     1      34.381  -4.369  35.350  1.00  0.00     0.001 A 
HETATM   18  C19 UNK     1      35.144  -5.326  36.020  1.00  0.00     0.000 A 
HETATM   19  C16 UNK     1      34.713  -6.652  36.070  1.00  0.00     0.001 A 
HETATM   20  C14 UNK     1      33.519  -7.021  35.452  1.00  0.00     0.012 A 
ENDBRANCH   1  15
BRANCH   2  21
HETATM   21  C12 UNK     1      29.759  -6.289  32.350  1.00  0.00    -0.035 A 
HETATM   22  C17 UNK     1      29.798  -7.110  31.232  1.00  0.00     0.011 A 
HETATM   23  C20 UNK     1      28.605  -7.472  30.606  1.00  0.00     0.001 A 
HETATM   24  C22 UNK     1      27.387  -7.010  31.105  1.00  0.00     0.000 A 
HETATM   25  C21 UNK     1      27.361  -6.185  32.229  1.00  0.00     0.001 A 
HETATM   26  C18 UNK     1      28.554  -5.822  32.855  1.00  0.00     0.011 A 
ENDBRANCH   2  21
TORSDOF 5
ENDMDL
MODEL 7
REMARK VINA RESULT:      -7.2      2.261      5.553
REMARK  5 active torsions:
REMARK  status: ('A' for Active; 'I' for Inactive)
REMARK    1  A    between atoms: C6_10  and  O1_1 
REMARK       I    between atoms: C7_11  and  N1_4 
REMARK    2  A    between atoms: C1_5  and  C6_10 
REMARK    3  A    between atoms: C7_11  and  C8_12 
REMARK    4  A    between atoms: C8_12  and  C9_13 
REMARK    5  A    between atoms: C10_14  and  C12_16 
ROOT
HETATM    1  C8  UNK     1      30.011  -7.080  33.528  1.00  0.00     0.043 C 
HETATM    2  C10 UNK     1      30.800  -5.994  33.606  1.00  0.00     0.029 C 
ENDROOT
BRANCH   1   3
HETATM    3  C7  UNK     1      30.228  -8.088  34.584  1.00  0.00     0.254 C 
HETATM    4  O3  UNK     1      31.148  -8.893  34.424  1.00  0.00    -0.267 OA
HETATM    5  N1  UNK     1      29.386  -8.060  35.691  1.00  0.00    -0.348 N 
HETATM    6  C4  UNK     1      29.571  -9.039  36.763  1.00  0.00     0.127 C 
HETATM    7  C5  UNK     1      28.273  -7.131  35.923  1.00  0.00     0.127 C 
HETATM    8  C2  UNK     1      29.839  -8.330  38.090  1.00  0.00     0.034 C 
HETATM    9  C1  UNK     1      28.785  -7.265  38.417  1.00  0.00     0.088 C 
HETATM   10  C3  UNK     1      28.488  -6.353  37.221  1.00  0.00     0.034 C 
BRANCH   9  11
HETATM   11  C6  UNK     1      27.531  -7.918  38.923  1.00  0.00     0.262 C 
HETATM   12  O2  UNK     1      26.407  -7.637  38.531  1.00  0.00    -0.265 OA
BRANCH  11  13
HETATM   13  O1  UNK     1      27.851  -8.850  39.866  1.00  0.00    -0.326 OA
HETATM   14  C11 UNK     1      27.110 -10.073  39.797  1.00  0.00     0.213 C 
ENDBRANCH  11  13
ENDBRANCH   9  11
ENDBRANCH   1   3
BRANCH   1  15
HETATM   15  C9  UNK     1      28.987  -7.318  32.500  1.00  0.00    -0.021 A 
HETATM   16  C13 UNK     1      29.013  -8.500  31.773  1.00  0.00     0.012 A 
HETATM   17  C15 UNK     1      28.041  -8.726  30.798  1.00  0.00     0.001 A 
HETATM   18  C19 UNK     1      27.055  -7.768  30.561  1.00  0.00     0.000 A 
HETATM   19  C16 UNK     1      27.040  -6.584  31.299  1.00  0.00     0.001 A 
HETATM   20  C14 UNK     1      28.011  -6.358  32.274  1.00  0.00     0.012 A 
ENDBRANCH   1  15
BRANCH   2  21
HETATM   21  C12 UNK     1      31.826  -5.749  34.630  1.00  0.00    -0.035 A 
HETATM   22  C17 UNK     1      33.141  -6.111  34.378  1.00  0.00     0.011 A 
HETATM   23  C20 UNK     1      34.114  -5.879  35.350  1.00  0.00     0.001 A 
HETATM   24  C22 UNK     1      33.761  -5.287  36.562  1.00  0.00     0.000 A 
HETATM   25  C21 UNK     1      32.436  -4.928  36.804  1.00  0.00     0.001 A 
HETATM   26  C18 UNK     1      31.462  -5.160  35.833  1.00  0.00     0.011 A 
ENDBRANCH   2  21
TORSDOF 5
ENDMDL
MODEL 8
REMARK VINA RESULT:      -7.2      4.881      7.243
REMARK  5 active torsions:
REMARK  status: ('A' for Active; 'I' for Inactive)
REMARK    1  A    between atoms: C6_10  and  O1_1 
REMARK       I    between atoms: C7_11  and  N1_4 
REMARK    2  A    between atoms: C1_5  and  C6_10 
REMARK    3  A    between atoms: C7_11  and  C8_12 
REMARK    4  A    between atoms: C8_12  and  C9_13 
REMARK    5  A    between atoms: C10_14  and  C12_16 
ROOT
HETATM    1  C8  UNK     1      30.145 -10.679  31.676  1.00  0.00     0.043 C 
HETATM    2  C10 UNK     1      29.228  -9.846  32.198  1.00  0.00     0.029 C 
ENDROOT
BRANCH   1   3
HETATM    3  C7  UNK     1      30.721 -10.246  30.387  1.00  0.00     0.254 C 
HETATM    4  O3  UNK     1      30.055 -10.447  29.369  1.00  0.00    -0.267 OA
HETATM    5  N1  UNK     1      31.972  -9.637  30.407  1.00  0.00    -0.348 N 
HETATM    6  C4  UNK     1      32.576  -9.189  29.151  1.00  0.00     0.127 C 
HETATM    7  C5  UNK     1      32.807  -9.386  31.588  1.00  0.00     0.127 C 
HETATM    8  C2  UNK     1      32.853  -7.687  29.201  1.00  0.00     0.034 C 
HETATM    9  C1  UNK     1      33.656  -7.274  30.441  1.00  0.00     0.088 C 
HETATM   10  C3  UNK     1      33.099  -7.893  31.728  1.00  0.00     0.034 C 
BRANCH   9  11
HETATM   11  C6  UNK     1      35.105  -7.621  30.257  1.00  0.00     0.262 C 
HETATM   12  O2  UNK     1      35.594  -7.979  29.194  1.00  0.00    -0.265 OA
BRANCH  11  13
HETATM   13  O1  UNK     1      35.763  -7.474  31.442  1.00  0.00    -0.326 OA
HETATM   14  C11 UNK     1      35.995  -6.124  31.854  1.00  0.00     0.213 C 
ENDBRANCH  11  13
ENDBRANCH   9  11
ENDBRANCH   1   3
BRANCH   1  15
HETATM   15  C9  UNK     1      30.595 -11.941  32.282  1.00  0.00    -0.021 A 
HETATM   16  C13 UNK     1      30.449 -13.126  31.575  1.00  0.00     0.012 A 
HETATM   17  C15 UNK     1      30.876 -14.324  32.149  1.00  0.00     0.001 A 
HETATM   18  C19 UNK     1      31.442 -14.323  33.424  1.00  0.00     0.000 A 
HETATM   19  C16 UNK     1      31.583 -13.124  34.124  1.00  0.00     0.001 A 
HETATM   20  C14 UNK     1      31.158 -11.927  33.550  1.00  0.00     0.012 A 
ENDBRANCH   1  15
BRANCH   2  21
HETATM   21  C12 UNK     1      28.774  -8.583  31.599  1.00  0.00    -0.035 A 
HETATM   22  C17 UNK     1      29.492  -7.419  31.834  1.00  0.00     0.011 A 
HETATM   23  C20 UNK     1      29.060  -6.221  31.267  1.00  0.00     0.001 A 
HETATM   24  C22 UNK     1      27.915  -6.199  30.470  1.00  0.00     0.000 A 
HETATM   25  C21 UNK     1      27.202  -7.375  30.241  1.00  0.00     0.001 A 
HETATM   26  C18 UNK     1      27.633  -8.574  30.809  1.00  0.00     0.011 A 
ENDBRANCH   2  21
TORSDOF 5
ENDMDL
MODEL 9
REMARK VINA RESULT:      -7.1      2.233      5.161
REMARK  5 active torsions:
REMARK  status: ('A' for Active; 'I' for Inactive)
REMARK    1  A    between atoms: C6_10  and  O1_1 
REMARK       I    between atoms: C7_11  and  N1_4 
REMARK    2  A    between atoms: C1_5  and  C6_10 
REMARK    3  A    between atoms: C7_11  and  C8_12 
REMARK    4  A    between atoms: C8_12  and  C9_13 
REMARK    5  A    between atoms: C10_14  and  C12_16 
ROOT
HETATM    1  C8  UNK     1      28.821  -7.522  35.357  1.00  0.00     0.043 C 
HETATM    2  C10 UNK     1      28.174  -6.670  34.542  1.00  0.00     0.029 C 
ENDROOT
BRANCH   1   3
HETATM    3  C7  UNK     1      29.962  -8.231  34.743  1.00  0.00     0.254 C 
HETATM    4  O3  UNK     1      29.710  -9.201  34.026  1.00  0.00    -0.267 OA
HETATM    5  N1  UNK     1      31.242  -7.754  35.009  1.00  0.00    -0.348 N 
HETATM    6  C4  UNK     1      32.399  -8.425  34.416  1.00  0.00     0.127 C 
HETATM    7  C5  UNK     1      31.592  -6.612  35.863  1.00  0.00     0.127 C 
HETATM    8  C2  UNK     1      33.199  -7.446  33.558  1.00  0.00     0.034 C 
HETATM    9  C1  UNK     1      33.565  -6.162  34.312  1.00  0.00     0.088 C 
HETATM   10  C3  UNK     1      32.368  -5.566  35.063  1.00  0.00     0.034 C 
BRANCH   9  11
HETATM   11  C6  UNK     1      34.714  -6.417  35.243  1.00  0.00     0.262 C 
HETATM   12  O2  UNK     1      34.914  -5.789  36.273  1.00  0.00    -0.265 OA
BRANCH  11  13
HETATM   13  O1  UNK     1      35.476  -7.439  34.757  1.00  0.00    -0.326 OA
HETATM   14  C11 UNK     1      36.879  -7.172  34.669  1.00  0.00     0.213 C 
ENDBRANCH  11  13
ENDBRANCH   9  11
ENDBRANCH   1   3
BRANCH   1  15
HETATM   15  C9  UNK     1      28.481  -7.781  36.764  1.00  0.00    -0.021 A 
HETATM   16  C13 UNK     1      28.238  -6.712  37.614  1.00  0.00     0.012 A 
HETATM   17  C15 UNK     1      27.914  -6.957  38.948  1.00  0.00     0.001 A 
HETATM   18  C19 UNK     1      27.839  -8.269  39.418  1.00  0.00     0.000 A 
HETATM   19  C16 UNK     1      28.086  -9.335  38.552  1.00  0.00     0.001 A 
HETATM   20  C14 UNK     1      28.408  -9.090  37.218  1.00  0.00     0.012 A 
ENDBRANCH   1  15
BRANCH   2  21
HETATM   21  C12 UNK     1      28.508  -6.406  33.134  1.00  0.00    -0.035 A 
HETATM   22  C17 UNK     1      29.556  -5.549  32.832  1.00  0.00     0.011 A 
HETATM   23  C20 UNK     1      29.872  -5.297  31.497  1.00  0.00     0.001 A 
HETATM   24  C22 UNK     1      29.137  -5.906  30.480  1.00  0.00     0.000 A 
HETATM   25  C21 UNK     1      28.085  -6.765  30.796  1.00  0.00     0.001 A 
HETATM   26  C18 UNK     1      27.769  -7.016  32.132  1.00  0.00     0.011 A 
ENDBRANCH   2  21
TORSDOF 5
ENDMDL
MODEL 10
REMARK VINA RESULT:      -7.0      2.347      6.279
REMARK  5 active torsions:
REMARK  status: ('A' for Active; 'I' for Inactive)
REMARK    1  A    between atoms: C6_10  and  O1_1 
REMARK       I    between atoms: C7_11  and  N1_4 
REMARK    2  A    between atoms: C1_5  and  C6_10 
REMARK    3  A    between atoms: C7_11  and  C8_12 
REMARK    4  A    between atoms: C8_12  and  C9_13 
REMARK    5  A    between atoms: C10_14  and  C12_16 
ROOT
HETATM    1  C8  UNK     1      28.958  -8.075  33.972  1.00  0.00     0.043 C 
HETATM    2  C10 UNK     1      28.972  -9.232  34.657  1.00  0.00     0.029 C 
ENDROOT
BRANCH   1   3
HETATM    3  C7  UNK     1      29.601  -6.935  34.657  1.00  0.00     0.254 C 
HETATM    4  O3  UNK     1      28.923  -6.304  35.470  1.00  0.00    -0.267 OA
HETATM    5  N1  UNK     1      30.927  -6.654  34.345  1.00  0.00    -0.348 N 
HETATM    6  C4  UNK     1      31.601  -5.536  35.006  1.00  0.00     0.127 C 
HETATM    7  C5  UNK     1      31.771  -7.368  33.379  1.00  0.00     0.127 C 
HETATM    8  C2  UNK     1      32.836  -6.030  35.759  1.00  0.00     0.034 C 
HETATM    9  C1  UNK     1      33.771  -6.867  34.878  1.00  0.00     0.088 C 
HETATM   10  C3  UNK     1      33.016  -7.927  34.068  1.00  0.00     0.034 C 
BRANCH   9  11
HETATM   11  C6  UNK     1      34.574  -5.971  33.980  1.00  0.00     0.262 C 
HETATM   12  O2  UNK     1      34.765  -4.781  34.193  1.00  0.00    -0.265 OA
BRANCH  11  13
HETATM   13  O1  UNK     1      35.039  -6.688  32.917  1.00  0.00    -0.326 OA
HETATM   14  C11 UNK     1      36.411  -7.083  32.995  1.00  0.00     0.213 C 
ENDBRANCH  11  13
ENDBRANCH   9  11
ENDBRANCH   1   3
BRANCH   1  15
HETATM   15  C9  UNK     1      28.371  -7.879  32.639  1.00  0.00    -0.021 A 
HETATM   16  C13 UNK     1      28.474  -8.890  31.694  1.00  0.00     0.012 A 
HETATM   17  C15 UNK     1      27.916  -8.705  30.429  1.00  0.00     0.001 A 
HETATM   18  C19 UNK     1      27.263  -7.511  30.123  1.00  0.00     0.000 A 
HETATM   19  C16 UNK     1      27.166  -6.502  31.082  1.00  0.00     0.001 A 
HETATM   20  C14 UNK     1      27.723  -6.688  32.346  1.00  0.00     0.012 A 
ENDBRANCH   1  15
BRANCH   2  21
HETATM   21  C12 UNK     1      29.557  -9.435  35.991  1.00  0.00    -0.035 A 
HETATM   22  C17 UNK     1      30.878  -9.844  36.100  1.00  0.00     0.011 A 
HETATM   23  C20 UNK     1      31.433 -10.038  37.365  1.00  0.00     0.001 A 
HETATM   24  C22 UNK     1      30.660  -9.821  38.506  1.00  0.00     0.000 A 
HETATM   25  C21 UNK     1      29.333  -9.412  38.383  1.00  0.00     0.001 A 
HETATM   26  C18 UNK     1      28.778  -9.218  37.117  1.00  0.00     0.011 A 
ENDBRANCH   2  21
TORSDOF 5
ENDMDL
