MODEL 1
REMARK VINA RESULT:      -8.9      0.000      0.000
REMARK  5 active torsions:
REMARK  status: ('A' for Active; 'I' for Inactive)
REMARK    1  A    between atoms: C1_6  and  N1_4 
REMARK    2  A    between atoms: C2_7  and  N1_4 
REMARK    3  A    between atoms: C3_8  and  N1_4 
REMARK       I    between atoms: C13_18  and  N2_5 
REMARK    4  A    between atoms: C6_11  and  N2_5 
REMARK    5  A    between atoms: C11_16  and  C13_18 
ROOT
HETATM    1  O2  UNK     1      17.583   3.201  32.811  1.00  0.00    -0.267 OA
HETATM    2  N2  UNK     1      18.694   4.687  31.362  1.00  0.00    -0.323 N 
HETATM    3  C13 UNK     1      18.264   3.449  31.818  1.00  0.00     0.262 C 
HETATM    4  H15 UNK     1      19.237   4.724  30.502  1.00  0.00     0.169 HD
ENDROOT
BRANCH   2   5
HETATM    5  C6  UNK     1      18.445   5.956  31.940  1.00  0.00     0.035 A 
HETATM    6  C10 UNK     1      19.334   6.462  32.873  1.00  0.00     0.032 A 
HETATM    7  C5  UNK     1      19.087   7.711  33.442  1.00  0.00     0.031 A 
HETATM    8  C1  UNK     1      17.954   8.435  33.071  1.00  0.00     0.030 A 
HETATM    9  C4  UNK     1      17.069   7.911  32.129  1.00  0.00     0.031 A 
HETATM   10  C9  UNK     1      17.315   6.662  31.559  1.00  0.00     0.032 A 
BRANCH   8  11
HETATM   11  N1  UNK     1      17.706   9.699  33.646  1.00  0.00    -0.382 N 
BRANCH  11  12
HETATM   12  C2  UNK     1      18.808  10.547  34.057  1.00  0.00     0.118 C 
HETATM   13  C7  UNK     1      18.388  12.000  34.136  1.00  0.00     0.026 C 
ENDBRANCH  11  12
BRANCH  11  14
HETATM   14  C3  UNK     1      16.348  10.172  33.819  1.00  0.00     0.118 C 
HETATM   15  C8  UNK     1      15.679   9.516  35.010  1.00  0.00     0.026 C 
ENDBRANCH  11  14
ENDBRANCH   8  11
ENDBRANCH   2   5
BRANCH   3  16
HETATM   16  C11 UNK     1      18.718   2.352  30.954  1.00  0.00     0.108 A 
HETATM   17  C14 UNK     1      19.141   1.246  31.576  1.00  0.00     0.037 A 
HETATM   18  C12 UNK     1      19.611   0.105  30.805  1.00  0.00    -0.001 A 
HETATM   19  C15 UNK     1      19.612   0.187  29.416  1.00  0.00     0.089 A 
HETATM   20  C17 UNK     1      20.062  -1.070  31.412  1.00  0.00     0.014 A 
HETATM   21  O1  UNK     1      19.164   1.354  28.766  1.00  0.00    -0.274 OA
HETATM   22  C18 UNK     1      20.049  -0.870  28.619  1.00  0.00     0.038 A 
HETATM   23  C16 UNK     1      18.709   2.461  29.477  1.00  0.00     0.304 A 
HETATM   24  O3  UNK     1      18.323   3.473  28.904  1.00  0.00    -0.259 OA
HETATM   25  C20 UNK     1      20.498  -2.037  29.232  1.00  0.00     0.003 A 
HETATM   26  C19 UNK     1      20.504  -2.137  30.625  1.00  0.00     0.001 A 
ENDBRANCH   3  16
TORSDOF 5
ENDMDL
MODEL 2
REMARK VINA RESULT:      -8.4      1.353      2.617
REMARK  5 active torsions:
REMARK  status: ('A' for Active; 'I' for Inactive)
REMARK    1  A    between atoms: C1_6  and  N1_4 
REMARK    2  A    between atoms: C2_7  and  N1_4 
REMARK    3  A    between atoms: C3_8  and  N1_4 
REMARK       I    between atoms: C13_18  and  N2_5 
REMARK    4  A    between atoms: C6_11  and  N2_5 
REMARK    5  A    between atoms: C11_16  and  C13_18 
ROOT
HETATM    1  O2  UNK     1      18.472   4.589  30.321  1.00  0.00    -0.267 OA
HETATM    2  N2  UNK     1      17.933   4.547  32.613  1.00  0.00    -0.323 N 
HETATM    3  C13 UNK     1      18.344   4.013  31.400  1.00  0.00     0.262 C 
HETATM    4  H15 UNK     1      17.902   3.936  33.426  1.00  0.00     0.169 HD
ENDROOT
BRANCH   2   5
HETATM    5  C6  UNK     1      17.564   5.887  32.887  1.00  0.00     0.035 A 
HETATM    6  C10 UNK     1      16.475   6.437  32.232  1.00  0.00     0.032 A 
HETATM    7  C5  UNK     1      16.113   7.757  32.502  1.00  0.00     0.031 A 
HETATM    8  C1  UNK     1      16.846   8.507  33.421  1.00  0.00     0.030 A 
HETATM    9  C4  UNK     1      17.941   7.938  34.072  1.00  0.00     0.031 A 
HETATM   10  C9  UNK     1      18.303   6.618  33.803  1.00  0.00     0.032 A 
BRANCH   8  11
HETATM   11  N1  UNK     1      16.479   9.841  33.694  1.00  0.00    -0.382 N 
BRANCH  11  12
HETATM   12  C2  UNK     1      15.104  10.272  33.528  1.00  0.00     0.118 C 
HETATM   13  C7  UNK     1      14.253   9.881  34.718  1.00  0.00     0.026 C 
ENDBRANCH  11  12
BRANCH  11  14
HETATM   14  C3  UNK     1      17.466  10.795  34.158  1.00  0.00     0.118 C 
HETATM   15  C8  UNK     1      16.924  12.210  34.137  1.00  0.00     0.026 C 
ENDBRANCH  11  14
ENDBRANCH   8  11
ENDBRANCH   2   5
BRANCH   3  16
HETATM   16  C11 UNK     1      18.647   2.580  31.501  1.00  0.00     0.108 A 
HETATM   17  C14 UNK     1      19.206   2.017  30.424  1.00  0.00     0.037 A 
HETATM   18  C12 UNK     1      19.542   0.601  30.427  1.00  0.00    -0.001 A 
HETATM   19  C15 UNK     1      19.272  -0.151  31.566  1.00  0.00     0.089 A 
HETATM   20  C17 UNK     1      20.126  -0.029  29.325  1.00  0.00     0.014 A 
HETATM   21  O1  UNK     1      18.684   0.447  32.697  1.00  0.00    -0.274 OA
HETATM   22  C18 UNK     1      19.569  -1.511  31.634  1.00  0.00     0.038 A 
HETATM   23  C16 UNK     1      18.352   1.799  32.724  1.00  0.00     0.304 A 
HETATM   24  O3  UNK     1      17.839   2.311  33.712  1.00  0.00    -0.259 OA
HETATM   25  C20 UNK     1      20.151  -2.132  30.530  1.00  0.00     0.003 A 
HETATM   26  C19 UNK     1      20.429  -1.392  29.379  1.00  0.00     0.001 A 
ENDBRANCH   3  16
TORSDOF 5
ENDMDL
MODEL 3
REMARK VINA RESULT:      -8.3      8.191     13.665
REMARK  5 active torsions:
REMARK  status: ('A' for Active; 'I' for Inactive)
REMARK    1  A    between atoms: C1_6  and  N1_4 
REMARK    2  A    between atoms: C2_7  and  N1_4 
REMARK    3  A    between atoms: C3_8  and  N1_4 
REMARK       I    between atoms: C13_18  and  N2_5 
REMARK    4  A    between atoms: C6_11  and  N2_5 
REMARK    5  A    between atoms: C11_16  and  C13_18 
ROOT
HETATM    1  O2  UNK     1      20.652  -3.836  37.925  1.00  0.00    -0.267 OA
HETATM    2  N2  UNK     1      19.559  -4.869  36.113  1.00  0.00    -0.323 N 
HETATM    3  C13 UNK     1      19.982  -3.803  36.895  1.00  0.00     0.262 C 
HETATM    4  H15 UNK     1      19.024  -4.669  35.271  1.00  0.00     0.169 HD
ENDROOT
BRANCH   2   5
HETATM    5  C6  UNK     1      19.807  -6.248  36.324  1.00  0.00     0.035 A 
HETATM    6  C10 UNK     1      21.029  -6.644  36.839  1.00  0.00     0.032 A 
HETATM    7  C5  UNK     1      21.273  -8.002  37.046  1.00  0.00     0.031 A 
HETATM    8  C1  UNK     1      20.291  -8.943  36.735  1.00  0.00     0.030 A 
HETATM    9  C4  UNK     1      19.064  -8.525  36.218  1.00  0.00     0.031 A 
HETATM   10  C9  UNK     1      18.821  -7.168  36.010  1.00  0.00     0.032 A 
BRANCH   8  11
HETATM   11  N1  UNK     1      20.537 -10.315  36.947  1.00  0.00    -0.382 N 
BRANCH  11  12
HETATM   12  C2  UNK     1      19.576 -11.131  37.662  1.00  0.00     0.118 C 
HETATM   13  C7  UNK     1      19.417 -10.670  39.097  1.00  0.00     0.026 C 
ENDBRANCH  11  12
BRANCH  11  14
HETATM   14  C3  UNK     1      21.747 -10.930  36.438  1.00  0.00     0.118 C 
HETATM   15  C8  UNK     1      21.854 -10.783  34.934  1.00  0.00     0.026 C 
ENDBRANCH  11  14
ENDBRANCH   8  11
ENDBRANCH   2   5
BRANCH   3  16
HETATM   16  C11 UNK     1      19.533  -2.512  36.359  1.00  0.00     0.108 A 
HETATM   17  C14 UNK     1      18.803  -1.752  37.183  1.00  0.00     0.037 A 
HETATM   18  C12 UNK     1      18.311  -0.455  36.742  1.00  0.00    -0.001 A 
HETATM   19  C15 UNK     1      18.614  -0.024  35.455  1.00  0.00     0.089 A 
HETATM   20  C17 UNK     1      17.545   0.372  37.568  1.00  0.00     0.014 A 
HETATM   21  O1  UNK     1      19.384  -0.828  34.592  1.00  0.00    -0.274 OA
HETATM   22  C18 UNK     1      18.174   1.207  34.971  1.00  0.00     0.038 A 
HETATM   23  C16 UNK     1      19.868  -2.073  34.985  1.00  0.00     0.304 A 
HETATM   24  O3  UNK     1      20.536  -2.767  34.228  1.00  0.00    -0.259 OA
HETATM   25  C20 UNK     1      17.410   2.025  35.801  1.00  0.00     0.003 A 
HETATM   26  C19 UNK     1      17.097   1.609  37.096  1.00  0.00     0.001 A 
ENDBRANCH   3  16
TORSDOF 5
ENDMDL
MODEL 4
REMARK VINA RESULT:      -8.3      8.174     13.634
REMARK  5 active torsions:
REMARK  status: ('A' for Active; 'I' for Inactive)
REMARK    1  A    between atoms: C1_6  and  N1_4 
REMARK    2  A    between atoms: C2_7  and  N1_4 
REMARK    3  A    between atoms: C3_8  and  N1_4 
REMARK       I    between atoms: C13_18  and  N2_5 
REMARK    4  A    between atoms: C6_11  and  N2_5 
REMARK    5  A    between atoms: C11_16  and  C13_18 
ROOT
HETATM    1  O2  UNK     1      20.658  -3.823  37.934  1.00  0.00    -0.267 OA
HETATM    2  N2  UNK     1      19.582  -4.852  36.109  1.00  0.00    -0.323 N 
HETATM    3  C13 UNK     1      19.997  -3.787  36.897  1.00  0.00     0.262 C 
HETATM    4  H15 UNK     1      19.056  -4.650  35.262  1.00  0.00     0.169 HD
ENDROOT
BRANCH   2   5
HETATM    5  C6  UNK     1      19.829  -6.231  36.319  1.00  0.00     0.035 A 
HETATM    6  C10 UNK     1      18.867  -7.155  35.947  1.00  0.00     0.032 A 
HETATM    7  C5  UNK     1      19.111  -8.512  36.155  1.00  0.00     0.031 A 
HETATM    8  C1  UNK     1      20.311  -8.925  36.733  1.00  0.00     0.030 A 
HETATM    9  C4  UNK     1      21.269  -7.981  37.103  1.00  0.00     0.031 A 
HETATM   10  C9  UNK     1      21.026  -6.623  36.894  1.00  0.00     0.032 A 
BRANCH   8  11
HETATM   11  N1  UNK     1      20.556 -10.298  36.943  1.00  0.00    -0.382 N 
BRANCH  11  12
HETATM   12  C2  UNK     1      21.759 -10.917  36.419  1.00  0.00     0.118 C 
HETATM   13  C7  UNK     1      21.879 -10.714  34.922  1.00  0.00     0.026 C 
ENDBRANCH  11  12
BRANCH  11  14
HETATM   14  C3  UNK     1      19.618 -11.106  37.696  1.00  0.00     0.118 C 
HETATM   15  C8  UNK     1      19.432 -10.572  39.102  1.00  0.00     0.026 C 
ENDBRANCH  11  14
ENDBRANCH   8  11
ENDBRANCH   2   5
BRANCH   3  16
HETATM   16  C11 UNK     1      19.553  -2.495  36.360  1.00  0.00     0.108 A 
HETATM   17  C14 UNK     1      18.815  -1.737  37.178  1.00  0.00     0.037 A 
HETATM   18  C12 UNK     1      18.327  -0.439  36.736  1.00  0.00    -0.001 A 
HETATM   19  C15 UNK     1      18.641  -0.005  35.452  1.00  0.00     0.089 A 
HETATM   20  C17 UNK     1      17.553   0.385  37.557  1.00  0.00     0.014 A 
HETATM   21  O1  UNK     1      19.419  -0.808  34.595  1.00  0.00    -0.274 OA
HETATM   22  C18 UNK     1      18.206   1.226  34.967  1.00  0.00     0.038 A 
HETATM   23  C16 UNK     1      19.900  -2.053  34.990  1.00  0.00     0.304 A 
HETATM   24  O3  UNK     1      20.575  -2.745  34.237  1.00  0.00    -0.259 OA
HETATM   25  C20 UNK     1      17.434   2.043  35.791  1.00  0.00     0.003 A 
HETATM   26  C19 UNK     1      17.109   1.623  37.083  1.00  0.00     0.001 A 
ENDBRANCH   3  16
TORSDOF 5
ENDMDL
MODEL 5
REMARK VINA RESULT:      -8.1      2.501      9.282
REMARK  5 active torsions:
REMARK  status: ('A' for Active; 'I' for Inactive)
REMARK    1  A    between atoms: C1_6  and  N1_4 
REMARK    2  A    between atoms: C2_7  and  N1_4 
REMARK    3  A    between atoms: C3_8  and  N1_4 
REMARK       I    between atoms: C13_18  and  N2_5 
REMARK    4  A    between atoms: C6_11  and  N2_5 
REMARK    5  A    between atoms: C11_16  and  C13_18 
ROOT
HETATM    1  O2  UNK     1      18.916   5.813  33.582  1.00  0.00    -0.267 OA
HETATM    2  N2  UNK     1      17.431   4.780  32.074  1.00  0.00    -0.323 N 
HETATM    3  C13 UNK     1      17.912   5.809  32.872  1.00  0.00     0.262 C 
HETATM    4  H15 UNK     1      16.590   4.946  31.525  1.00  0.00     0.169 HD
ENDROOT
BRANCH   2   5
HETATM    5  C6  UNK     1      17.991   3.492  31.895  1.00  0.00     0.035 A 
HETATM    6  C10 UNK     1      18.029   2.615  32.965  1.00  0.00     0.032 A 
HETATM    7  C5  UNK     1      18.582   1.346  32.787  1.00  0.00     0.031 A 
HETATM    8  C1  UNK     1      19.089   0.974  31.542  1.00  0.00     0.030 A 
HETATM    9  C4  UNK     1      19.043   1.871  30.475  1.00  0.00     0.031 A 
HETATM   10  C9  UNK     1      18.490   3.139  30.652  1.00  0.00     0.032 A 
BRANCH   8  11
HETATM   11  N1  UNK     1      19.646  -0.309  31.363  1.00  0.00    -0.382 N 
BRANCH  11  12
HETATM   12  C2  UNK     1      19.154  -1.436  32.131  1.00  0.00     0.118 C 
HETATM   13  C7  UNK     1      20.287  -2.187  32.800  1.00  0.00     0.026 C 
ENDBRANCH  11  12
BRANCH  11  14
HETATM   14  C3  UNK     1      20.707  -0.520  30.399  1.00  0.00     0.118 C 
HETATM   15  C8  UNK     1      20.214  -1.291  29.192  1.00  0.00     0.026 C 
ENDBRANCH  11  14
ENDBRANCH   8  11
ENDBRANCH   2   5
BRANCH   3  16
HETATM   16  C11 UNK     1      17.063   7.005  32.804  1.00  0.00     0.108 A 
HETATM   17  C14 UNK     1      16.603   7.470  33.971  1.00  0.00     0.037 A 
HETATM   18  C12 UNK     1      15.753   8.650  34.006  1.00  0.00    -0.001 A 
HETATM   19  C15 UNK     1      15.429   9.282  32.810  1.00  0.00     0.089 A 
HETATM   20  C17 UNK     1      15.249   9.171  35.201  1.00  0.00     0.014 A 
HETATM   21  O1  UNK     1      15.917   8.788  31.584  1.00  0.00    -0.274 OA
HETATM   22  C18 UNK     1      14.620  10.416  32.774  1.00  0.00     0.038 A 
HETATM   23  C16 UNK     1      16.733   7.661  31.519  1.00  0.00     0.304 A 
HETATM   24  O3  UNK     1      17.152   7.237  30.448  1.00  0.00    -0.259 OA
HETATM   25  C20 UNK     1      14.122  10.928  33.970  1.00  0.00     0.003 A 
HETATM   26  C19 UNK     1      14.436  10.307  35.181  1.00  0.00     0.001 A 
ENDBRANCH   3  16
TORSDOF 5
ENDMDL
MODEL 6
REMARK VINA RESULT:      -8.1      6.703     11.494
REMARK  5 active torsions:
REMARK  status: ('A' for Active; 'I' for Inactive)
REMARK    1  A    between atoms: C1_6  and  N1_4 
REMARK    2  A    between atoms: C2_7  and  N1_4 
REMARK    3  A    between atoms: C3_8  and  N1_4 
REMARK       I    between atoms: C13_18  and  N2_5 
REMARK    4  A    between atoms: C6_11  and  N2_5 
REMARK    5  A    between atoms: C11_16  and  C13_18 
ROOT
HETATM    1  O2  UNK     1      18.578  -1.713  36.128  1.00  0.00    -0.267 OA
HETATM    2  N2  UNK     1      19.924  -3.300  35.025  1.00  0.00    -0.323 N 
HETATM    3  C13 UNK     1      19.189  -2.128  35.145  1.00  0.00     0.262 C 
HETATM    4  H15 UNK     1      20.393  -3.489  34.143  1.00  0.00     0.169 HD
ENDROOT
BRANCH   2   5
HETATM    5  C6  UNK     1      20.139  -4.290  36.015  1.00  0.00     0.035 A 
HETATM    6  C10 UNK     1      19.737  -5.592  35.769  1.00  0.00     0.032 A 
HETATM    7  C5  UNK     1      19.948  -6.566  36.744  1.00  0.00     0.031 A 
HETATM    8  C1  UNK     1      20.558  -6.225  37.951  1.00  0.00     0.030 A 
HETATM    9  C4  UNK     1      20.957  -4.908  38.183  1.00  0.00     0.031 A 
HETATM   10  C9  UNK     1      20.746  -3.934  37.208  1.00  0.00     0.032 A 
BRANCH   8  11
HETATM   11  N1  UNK     1      20.772  -7.211  38.936  1.00  0.00    -0.382 N 
BRANCH  11  12
HETATM   12  C2  UNK     1      22.063  -7.332  39.585  1.00  0.00     0.118 C 
HETATM   13  C7  UNK     1      23.134  -7.774  38.609  1.00  0.00     0.026 C 
ENDBRANCH  11  12
BRANCH  11  14
HETATM   14  C3  UNK     1      19.701  -8.106  39.324  1.00  0.00     0.118 C 
HETATM   15  C8  UNK     1      20.052  -9.551  39.031  1.00  0.00     0.026 C 
ENDBRANCH  11  14
ENDBRANCH   8  11
ENDBRANCH   2   5
BRANCH   3  16
HETATM   16  C11 UNK     1      19.192  -1.344  33.904  1.00  0.00     0.108 A 
HETATM   17  C14 UNK     1      19.764  -1.921  32.841  1.00  0.00     0.037 A 
HETATM   18  C12 UNK     1      19.818  -1.222  31.567  1.00  0.00    -0.001 A 
HETATM   19  C15 UNK     1      19.265   0.051  31.475  1.00  0.00     0.089 A 
HETATM   20  C17 UNK     1      20.405  -1.787  30.431  1.00  0.00     0.014 A 
HETATM   21  O1  UNK     1      18.664   0.654  32.597  1.00  0.00    -0.274 OA
HETATM   22  C18 UNK     1      19.283   0.774  30.283  1.00  0.00     0.038 A 
HETATM   23  C16 UNK     1      18.598   0.010  33.829  1.00  0.00     0.304 A 
HETATM   24  O3  UNK     1      18.074   0.542  34.801  1.00  0.00    -0.259 OA
HETATM   25  C20 UNK     1      19.872   0.205  29.156  1.00  0.00     0.003 A 
HETATM   26  C19 UNK     1      20.431  -1.073  29.230  1.00  0.00     0.001 A 
ENDBRANCH   3  16
TORSDOF 5
ENDMDL
MODEL 7
REMARK VINA RESULT:      -8.0      6.717     10.159
REMARK  5 active torsions:
REMARK  status: ('A' for Active; 'I' for Inactive)
REMARK    1  A    between atoms: C1_6  and  N1_4 
REMARK    2  A    between atoms: C2_7  and  N1_4 
REMARK    3  A    between atoms: C3_8  and  N1_4 
REMARK       I    between atoms: C13_18  and  N2_5 
REMARK    4  A    between atoms: C6_11  and  N2_5 
REMARK    5  A    between atoms: C11_16  and  C13_18 
ROOT
HETATM    1  O2  UNK     1      19.743  -2.158  36.634  1.00  0.00    -0.267 OA
HETATM    2  N2  UNK     1      20.077  -3.439  34.686  1.00  0.00    -0.323 N 
HETATM    3  C13 UNK     1      19.959  -3.219  36.052  1.00  0.00     0.262 C 
HETATM    4  H15 UNK     1      20.235  -4.390  34.361  1.00  0.00     0.169 HD
ENDROOT
BRANCH   2   5
HETATM    5  C6  UNK     1      19.976  -2.483  33.645  1.00  0.00     0.035 A 
HETATM    6  C10 UNK     1      20.889  -2.515  32.606  1.00  0.00     0.032 A 
HETATM    7  C5  UNK     1      20.788  -1.573  31.582  1.00  0.00     0.031 A 
HETATM    8  C1  UNK     1      19.776  -0.614  31.613  1.00  0.00     0.030 A 
HETATM    9  C4  UNK     1      18.864  -0.597  32.668  1.00  0.00     0.031 A 
HETATM   10  C9  UNK     1      18.964  -1.538  33.692  1.00  0.00     0.032 A 
BRANCH   8  11
HETATM   11  N1  UNK     1      19.675   0.337  30.576  1.00  0.00    -0.382 N 
BRANCH  11  12
HETATM   12  C2  UNK     1      18.892   1.543  30.762  1.00  0.00     0.118 C 
HETATM   13  C7  UNK     1      18.596   2.220  29.439  1.00  0.00     0.026 C 
ENDBRANCH  11  12
BRANCH  11  14
HETATM   14  C3  UNK     1      20.362   0.128  29.318  1.00  0.00     0.118 C 
HETATM   15  C8  UNK     1      19.593  -0.815  28.415  1.00  0.00     0.026 C 
ENDBRANCH  11  14
ENDBRANCH   8  11
ENDBRANCH   2   5
BRANCH   3  16
HETATM   16  C11 UNK     1      20.122  -4.456  36.827  1.00  0.00     0.108 A 
HETATM   17  C14 UNK     1      21.291  -4.607  37.459  1.00  0.00     0.037 A 
HETATM   18  C12 UNK     1      21.548  -5.799  38.252  1.00  0.00    -0.001 A 
HETATM   19  C15 UNK     1      20.559  -6.774  38.339  1.00  0.00     0.089 A 
HETATM   20  C17 UNK     1      22.754  -5.999  38.929  1.00  0.00     0.014 A 
HETATM   21  O1  UNK     1      19.329  -6.609  37.672  1.00  0.00    -0.274 OA
HETATM   22  C18 UNK     1      20.741  -7.939  39.082  1.00  0.00     0.038 A 
HETATM   23  C16 UNK     1      19.055  -5.479  36.906  1.00  0.00     0.304 A 
HETATM   24  O3  UNK     1      17.983  -5.345  36.327  1.00  0.00    -0.259 OA
HETATM   25  C20 UNK     1      21.946  -8.131  39.753  1.00  0.00     0.003 A 
HETATM   26  C19 UNK     1      22.950  -7.163  39.677  1.00  0.00     0.001 A 
ENDBRANCH   3  16
TORSDOF 5
ENDMDL
MODEL 8
REMARK VINA RESULT:      -7.9      7.137     12.317
REMARK  5 active torsions:
REMARK  status: ('A' for Active; 'I' for Inactive)
REMARK    1  A    between atoms: C1_6  and  N1_4 
REMARK    2  A    between atoms: C2_7  and  N1_4 
REMARK    3  A    between atoms: C3_8  and  N1_4 
REMARK       I    between atoms: C13_18  and  N2_5 
REMARK    4  A    between atoms: C6_11  and  N2_5 
REMARK    5  A    between atoms: C11_16  and  C13_18 
ROOT
HETATM    1  O2  UNK     1      21.074  -2.580  36.030  1.00  0.00    -0.267 OA
HETATM    2  N2  UNK     1      19.804  -4.253  34.965  1.00  0.00    -0.323 N 
HETATM    3  C13 UNK     1      20.367  -2.993  35.113  1.00  0.00     0.262 C 
HETATM    4  H15 UNK     1      19.257  -4.444  34.129  1.00  0.00     0.169 HD
ENDROOT
BRANCH   2   5
HETATM    5  C6  UNK     1      19.917  -5.359  35.844  1.00  0.00     0.035 A 
HETATM    6  C10 UNK     1      20.108  -6.625  35.317  1.00  0.00     0.032 A 
HETATM    7  C5  UNK     1      20.219  -7.713  36.184  1.00  0.00     0.031 A 
HETATM    8  C1  UNK     1      20.137  -7.519  37.562  1.00  0.00     0.030 A 
HETATM    9  C4  UNK     1      19.945  -6.236  38.075  1.00  0.00     0.031 A 
HETATM   10  C9  UNK     1      19.834  -5.148  37.210  1.00  0.00     0.032 A 
BRANCH   8  11
HETATM   11  N1  UNK     1      20.251  -8.619  38.437  1.00  0.00    -0.382 N 
BRANCH  11  12
HETATM   12  C2  UNK     1      19.303  -9.714  38.366  1.00  0.00     0.118 C 
HETATM   13  C7  UNK     1      19.936 -10.958  37.777  1.00  0.00     0.026 C 
ENDBRANCH  11  12
BRANCH  11  14
HETATM   14  C3  UNK     1      21.325  -8.677  39.407  1.00  0.00     0.118 C 
HETATM   15  C8  UNK     1      22.655  -8.299  38.787  1.00  0.00     0.026 C 
ENDBRANCH  11  14
ENDBRANCH   8  11
ENDBRANCH   2   5
BRANCH   3  16
HETATM   16  C11 UNK     1      20.031  -2.103  33.994  1.00  0.00     0.108 A 
HETATM   17  C14 UNK     1      20.548  -2.428  32.804  1.00  0.00     0.037 A 
HETATM   18  C12 UNK     1      20.272  -1.607  31.636  1.00  0.00    -0.001 A 
HETATM   19  C15 UNK     1      19.466  -0.482  31.779  1.00  0.00     0.089 A 
HETATM   20  C17 UNK     1      20.791  -1.909  30.374  1.00  0.00     0.014 A 
HETATM   21  O1  UNK     1      18.924  -0.145  33.035  1.00  0.00    -0.274 OA
HETATM   22  C18 UNK     1      19.164   0.346  30.700  1.00  0.00     0.038 A 
HETATM   23  C16 UNK     1      19.169  -0.912  34.170  1.00  0.00     0.304 A 
HETATM   24  O3  UNK     1      18.695  -0.610  35.260  1.00  0.00    -0.259 OA
HETATM   25  C20 UNK     1      19.685   0.039  29.445  1.00  0.00     0.003 A 
HETATM   26  C19 UNK     1      20.497  -1.086  29.282  1.00  0.00     0.001 A 
ENDBRANCH   3  16
TORSDOF 5
ENDMDL
MODEL 9
REMARK VINA RESULT:      -7.8      1.296      2.116
REMARK  5 active torsions:
REMARK  status: ('A' for Active; 'I' for Inactive)
REMARK    1  A    between atoms: C1_6  and  N1_4 
REMARK    2  A    between atoms: C2_7  and  N1_4 
REMARK    3  A    between atoms: C3_8  and  N1_4 
REMARK       I    between atoms: C13_18  and  N2_5 
REMARK    4  A    between atoms: C6_11  and  N2_5 
REMARK    5  A    between atoms: C11_16  and  C13_18 
ROOT
HETATM    1  O2  UNK     1      17.009   2.639  30.230  1.00  0.00    -0.267 OA
HETATM    2  N2  UNK     1      18.879   3.270  31.514  1.00  0.00    -0.323 N 
HETATM    3  C13 UNK     1      18.122   2.431  30.708  1.00  0.00     0.262 C 
HETATM    4  H15 UNK     1      19.800   2.954  31.810  1.00  0.00     0.169 HD
ENDROOT
BRANCH   2   5
HETATM    5  C6  UNK     1      18.539   4.565  31.973  1.00  0.00     0.035 A 
HETATM    6  C10 UNK     1      18.218   4.748  33.308  1.00  0.00     0.032 A 
HETATM    7  C5  UNK     1      17.882   6.025  33.758  1.00  0.00     0.031 A 
HETATM    8  C1  UNK     1      17.871   7.099  32.869  1.00  0.00     0.030 A 
HETATM    9  C4  UNK     1      18.197   6.896  31.527  1.00  0.00     0.031 A 
HETATM   10  C9  UNK     1      18.533   5.620  31.076  1.00  0.00     0.032 A 
BRANCH   8  11
HETATM   11  N1  UNK     1      17.533   8.389  33.326  1.00  0.00    -0.382 N 
BRANCH  11  12
HETATM   12  C2  UNK     1      16.228   8.952  33.036  1.00  0.00     0.118 C 
HETATM   13  C7  UNK     1      15.212   8.565  34.090  1.00  0.00     0.026 C 
ENDBRANCH  11  12
BRANCH  11  14
HETATM   14  C3  UNK     1      18.478   9.164  34.104  1.00  0.00     0.118 C 
HETATM   15  C8  UNK     1      18.318  10.650  33.853  1.00  0.00     0.026 C 
ENDBRANCH  11  14
ENDBRANCH   8  11
ENDBRANCH   2   5
BRANCH   3  16
HETATM   16  C11 UNK     1      18.806   1.159  30.436  1.00  0.00     0.108 A 
HETATM   17  C14 UNK     1      19.160   0.439  31.506  1.00  0.00     0.037 A 
HETATM   18  C12 UNK     1      19.843  -0.835  31.340  1.00  0.00    -0.001 A 
HETATM   19  C15 UNK     1      20.119  -1.286  30.053  1.00  0.00     0.089 A 
HETATM   20  C17 UNK     1      20.231  -1.620  32.428  1.00  0.00     0.014 A 
HETATM   21  O1  UNK     1      19.743  -0.523  28.930  1.00  0.00    -0.274 OA
HETATM   22  C18 UNK     1      20.770  -2.497  29.824  1.00  0.00     0.038 A 
HETATM   23  C16 UNK     1      19.088   0.699  29.058  1.00  0.00     0.304 A 
HETATM   24  O3  UNK     1      18.766   1.357  28.076  1.00  0.00    -0.259 OA
HETATM   25  C20 UNK     1      21.154  -3.274  30.915  1.00  0.00     0.003 A 
HETATM   26  C19 UNK     1      20.885  -2.837  32.214  1.00  0.00     0.001 A 
ENDBRANCH   3  16
TORSDOF 5
ENDMDL
MODEL 10
REMARK VINA RESULT:      -7.8      6.302     11.159
REMARK  5 active torsions:
REMARK  status: ('A' for Active; 'I' for Inactive)
REMARK    1  A    between atoms: C1_6  and  N1_4 
REMARK    2  A    between atoms: C2_7  and  N1_4 
REMARK    3  A    between atoms: C3_8  and  N1_4 
REMARK       I    between atoms: C13_18  and  N2_5 
REMARK    4  A    between atoms: C6_11  and  N2_5 
REMARK    5  A    between atoms: C11_16  and  C13_18 
ROOT
HETATM    1  O2  UNK     1      17.556  -1.385  35.928  1.00  0.00    -0.267 OA
HETATM    2  N2  UNK     1      19.613  -2.127  35.055  1.00  0.00    -0.323 N 
HETATM    3  C13 UNK     1      18.490  -1.314  35.132  1.00  0.00     0.262 C 
HETATM    4  H15 UNK     1      20.312  -1.920  34.345  1.00  0.00     0.169 HD
ENDROOT
BRANCH   2   5
HETATM    5  C6  UNK     1      19.940  -3.230  35.882  1.00  0.00     0.035 A 
HETATM    6  C10 UNK     1      20.430  -2.998  37.156  1.00  0.00     0.032 A 
HETATM    7  C5  UNK     1      20.753  -4.085  37.969  1.00  0.00     0.031 A 
HETATM    8  C1  UNK     1      20.581  -5.386  37.496  1.00  0.00     0.030 A 
HETATM    9  C4  UNK     1      20.087  -5.600  36.209  1.00  0.00     0.031 A 
HETATM   10  C9  UNK     1      19.764  -4.515  35.396  1.00  0.00     0.032 A 
BRANCH   8  11
HETATM   11  N1  UNK     1      20.907  -6.483  38.319  1.00  0.00    -0.382 N 
BRANCH  11  12
HETATM   12  C2  UNK     1      19.953  -6.978  39.294  1.00  0.00     0.118 C 
HETATM   13  C7  UNK     1      19.689  -8.458  39.108  1.00  0.00     0.026 C 
ENDBRANCH  11  12
BRANCH  11  14
HETATM   14  C3  UNK     1      22.192  -7.141  38.192  1.00  0.00     0.118 C 
HETATM   15  C8  UNK     1      23.154  -6.693  39.274  1.00  0.00     0.026 C 
ENDBRANCH  11  14
ENDBRANCH   8  11
ENDBRANCH   2   5
BRANCH   3  16
HETATM   16  C11 UNK     1      18.494  -0.266  34.104  1.00  0.00     0.108 A 
HETATM   17  C14 UNK     1      18.313   0.987  34.537  1.00  0.00     0.037 A 
HETATM   18  C12 UNK     1      18.301   2.095  33.595  1.00  0.00    -0.001 A 
HETATM   19  C15 UNK     1      18.479   1.827  32.241  1.00  0.00     0.089 A 
HETATM   20  C17 UNK     1      18.115   3.418  34.002  1.00  0.00     0.014 A 
HETATM   21  O1  UNK     1      18.670   0.506  31.791  1.00  0.00    -0.274 OA
HETATM   22  C18 UNK     1      18.478   2.842  31.286  1.00  0.00     0.038 A 
HETATM   23  C16 UNK     1      18.687  -0.574  32.669  1.00  0.00     0.304 A 
HETATM   24  O3  UNK     1      18.852  -1.720  32.269  1.00  0.00    -0.259 OA
HETATM   25  C20 UNK     1      18.291   4.159  31.701  1.00  0.00     0.003 A 
HETATM   26  C19 UNK     1      18.111   4.446  33.056  1.00  0.00     0.001 A 
ENDBRANCH   3  16
TORSDOF 5
ENDMDL
