MODEL 1
REMARK VINA RESULT:      -8.4      0.000      0.000
REMARK  5 active torsions:
REMARK  status: ('A' for Active; 'I' for Inactive)
REMARK    1  A    between atoms: C1_10  and  N1_7 
REMARK    2  A    between atoms: C9_18  and  N2_8 
REMARK       I    between atoms: C16_25  and  N3_9 
REMARK    3  A    between atoms: C11_20  and  C2_11 
REMARK    4  A    between atoms: C16_25  and  C9_18 
REMARK    5  A    between atoms: C11_20  and  C15_24 
ROOT
HETATM    1  S1  UNK     1      31.884  -6.617  37.929  1.00  0.00     0.266 S 
HETATM    2  O2  UNK     1      31.988  -7.957  38.469  1.00  0.00    -0.200 OA
HETATM    3  O3  UNK     1      32.560  -5.496  38.555  1.00  0.00    -0.200 OA
HETATM    4  N2  UNK     1      30.231  -6.199  37.682  1.00  0.00    -0.257 N 
HETATM    5  C1  UNK     1      30.130  -7.497  35.640  1.00  0.00     0.074 C 
HETATM    6  C2  UNK     1      29.524  -7.072  36.774  1.00  0.00     0.124 C 
HETATM    7  C3  UNK     1      31.509  -7.044  35.282  1.00  0.00     0.016 A 
HETATM    8  C6  UNK     1      32.434  -6.683  36.266  1.00  0.00     0.092 A 
HETATM    9  C10 UNK     1      31.948  -6.976  33.948  1.00  0.00     0.015 A 
HETATM   10  C12 UNK     1      33.740  -6.291  35.967  1.00  0.00     0.026 A 
HETATM   11  C13 UNK     1      33.255  -6.588  33.631  1.00  0.00     0.001 A 
HETATM   12  C14 UNK     1      34.151  -6.253  34.640  1.00  0.00     0.002 A 
ENDROOT
BRANCH   6  13
HETATM   13  C11 UNK     1      28.138  -7.456  37.091  1.00  0.00     0.211 C 
HETATM   14  O4  UNK     1      27.202  -6.970  36.465  1.00  0.00    -0.285 OA
BRANCH  13  15
HETATM   15  C15 UNK     1      27.896  -8.454  38.161  1.00  0.00     0.016 A 
HETATM   16  C17 UNK     1      26.655  -8.501  38.763  1.00  0.00     0.015 A 
HETATM   17  C19 UNK     1      26.427  -9.440  39.769  1.00  0.00     0.001 A 
HETATM   18  C21 UNK     1      27.445 -10.312  40.153  1.00  0.00     0.000 A 
HETATM   19  C20 UNK     1      28.691 -10.246  39.529  1.00  0.00     0.001 A 
HETATM   20  C18 UNK     1      28.919  -9.307  38.523  1.00  0.00     0.015 A 
ENDBRANCH  13  15
ENDBRANCH   6  13
BRANCH   5  21
HETATM   21  N1  UNK     1      29.566  -8.368  34.754  1.00  0.00    -0.374 N 
HETATM   22  C4  UNK     1      29.678  -9.820  34.903  1.00  0.00     0.149 C 
HETATM   23  C7  UNK     1      29.991 -10.444  33.549  1.00  0.00     0.187 C 
HETATM   24  O1  UNK     1      29.011 -10.055  32.584  1.00  0.00    -0.388 OA
HETATM   25  C8  UNK     1      29.010  -8.638  32.398  1.00  0.00     0.187 C 
HETATM   26  C5  UNK     1      28.651  -7.931  33.700  1.00  0.00     0.149 C 
ENDBRANCH   5  21
BRANCH   4  27
HETATM   27  C9  UNK     1      29.531  -5.631  38.862  1.00  0.00     0.244 C 
BRANCH  27  28
HETATM   28  C16 UNK     1      29.679  -4.133  38.862  1.00  0.00     0.234 C 
HETATM   29  O5  UNK     1      29.549  -3.428  39.859  1.00  0.00    -0.272 OA
HETATM   30  N3  UNK     1      29.986  -3.640  37.612  1.00  0.00    -0.369 N 
HETATM   31  H17 UNK     1      30.087  -4.236  36.798  1.00  0.00     0.159 HD
HETATM   32  H18 UNK     1      30.119  -2.644  37.465  1.00  0.00     0.159 HD
ENDBRANCH  27  28
ENDBRANCH   4  27
TORSDOF 5
ENDMDL
MODEL 2
REMARK VINA RESULT:      -8.0      1.908      5.153
REMARK  5 active torsions:
REMARK  status: ('A' for Active; 'I' for Inactive)
REMARK    1  A    between atoms: C1_10  and  N1_7 
REMARK    2  A    between atoms: C9_18  and  N2_8 
REMARK       I    between atoms: C16_25  and  N3_9 
REMARK    3  A    between atoms: C11_20  and  C2_11 
REMARK    4  A    between atoms: C16_25  and  C9_18 
REMARK    5  A    between atoms: C11_20  and  C15_24 
ROOT
HETATM    1  S1  UNK     1      28.122  -6.211  38.102  1.00  0.00     0.266 S 
HETATM    2  O2  UNK     1      27.139  -6.206  37.038  1.00  0.00    -0.200 OA
HETATM    3  O3  UNK     1      27.989  -5.341  39.256  1.00  0.00    -0.200 OA
HETATM    4  N2  UNK     1      29.707  -6.030  37.452  1.00  0.00    -0.257 N 
HETATM    5  C1  UNK     1      29.780  -8.357  36.786  1.00  0.00     0.074 C 
HETATM    6  C2  UNK     1      30.092  -7.066  36.523  1.00  0.00     0.124 C 
HETATM    7  C3  UNK     1      29.079  -8.742  38.049  1.00  0.00     0.016 A 
HETATM    8  C6  UNK     1      28.224  -7.852  38.707  1.00  0.00     0.092 A 
HETATM    9  C10 UNK     1      29.229 -10.016  38.626  1.00  0.00     0.015 A 
HETATM   10  C12 UNK     1      27.528  -8.193  39.867  1.00  0.00     0.026 A 
HETATM   11  C13 UNK     1      28.535 -10.375  39.787  1.00  0.00     0.001 A 
HETATM   12  C14 UNK     1      27.680  -9.467  40.402  1.00  0.00     0.002 A 
ENDROOT
BRANCH   6  13
HETATM   13  C11 UNK     1      30.849  -6.692  35.316  1.00  0.00     0.211 C 
HETATM   14  O4  UNK     1      32.073  -6.777  35.302  1.00  0.00    -0.285 OA
BRANCH  13  15
HETATM   15  C15 UNK     1      30.108  -6.236  34.116  1.00  0.00     0.016 A 
HETATM   16  C17 UNK     1      28.758  -6.508  34.020  1.00  0.00     0.015 A 
HETATM   17  C19 UNK     1      28.060  -6.079  32.891  1.00  0.00     0.001 A 
HETATM   18  C21 UNK     1      28.728  -5.387  31.879  1.00  0.00     0.000 A 
HETATM   19  C20 UNK     1      30.093  -5.124  31.999  1.00  0.00     0.001 A 
HETATM   20  C18 UNK     1      30.790  -5.553  33.128  1.00  0.00     0.015 A 
ENDBRANCH  13  15
ENDBRANCH   6  13
BRANCH   5  21
HETATM   21  N1  UNK     1      30.048  -9.394  35.942  1.00  0.00    -0.374 N 
HETATM   22  C4  UNK     1      31.291 -10.164  36.016  1.00  0.00     0.149 C 
HETATM   23  C7  UNK     1      31.830 -10.388  34.608  1.00  0.00     0.187 C 
HETATM   24  O1  UNK     1      30.837 -11.008  33.788  1.00  0.00    -0.388 OA
HETATM   25  C8  UNK     1      29.684 -10.172  33.662  1.00  0.00     0.187 C 
HETATM   26  C5  UNK     1      29.046  -9.939  35.027  1.00  0.00     0.149 C 
ENDBRANCH   5  21
BRANCH   4  27
HETATM   27  C9  UNK     1      30.153  -4.630  37.232  1.00  0.00     0.244 C 
BRANCH  27  28
HETATM   28  C16 UNK     1      31.568  -4.470  37.719  1.00  0.00     0.234 C 
HETATM   29  O5  UNK     1      31.953  -4.800  38.837  1.00  0.00    -0.272 OA
HETATM   30  N3  UNK     1      32.389  -3.914  36.761  1.00  0.00    -0.369 N 
HETATM   31  H17 UNK     1      32.053  -3.643  35.843  1.00  0.00     0.159 HD
HETATM   32  H18 UNK     1      33.372  -3.750  36.952  1.00  0.00     0.159 HD
ENDBRANCH  27  28
ENDBRANCH   4  27
TORSDOF 5
ENDMDL
MODEL 3
REMARK VINA RESULT:      -8.0      2.452      5.399
REMARK  5 active torsions:
REMARK  status: ('A' for Active; 'I' for Inactive)
REMARK    1  A    between atoms: C1_10  and  N1_7 
REMARK    2  A    between atoms: C9_18  and  N2_8 
REMARK       I    between atoms: C16_25  and  N3_9 
REMARK    3  A    between atoms: C11_20  and  C2_11 
REMARK    4  A    between atoms: C16_25  and  C9_18 
REMARK    5  A    between atoms: C11_20  and  C15_24 
ROOT
HETATM    1  S1  UNK     1      31.539  -6.137  35.512  1.00  0.00     0.266 S 
HETATM    2  O2  UNK     1      30.621  -6.319  34.407  1.00  0.00    -0.200 OA
HETATM    3  O3  UNK     1      32.664  -5.225  35.418  1.00  0.00    -0.200 OA
HETATM    4  N2  UNK     1      32.110  -7.664  36.070  1.00  0.00    -0.257 N 
HETATM    5  C1  UNK     1      30.053  -8.075  37.281  1.00  0.00     0.074 C 
HETATM    6  C2  UNK     1      31.073  -8.557  36.531  1.00  0.00     0.124 C 
HETATM    7  C3  UNK     1      30.001  -6.636  37.683  1.00  0.00     0.016 A 
HETATM    8  C6  UNK     1      30.591  -5.640  36.899  1.00  0.00     0.092 A 
HETATM    9  C10 UNK     1      29.345  -6.213  38.853  1.00  0.00     0.015 A 
HETATM   10  C12 UNK     1      30.528  -4.285  37.228  1.00  0.00     0.026 A 
HETATM   11  C13 UNK     1      29.270  -4.858  39.195  1.00  0.00     0.001 A 
HETATM   12  C14 UNK     1      29.855  -3.895  38.380  1.00  0.00     0.002 A 
ENDROOT
BRANCH   6  13
HETATM   13  C11 UNK     1      31.167  -9.988  36.197  1.00  0.00     0.211 C 
HETATM   14  O4  UNK     1      31.587 -10.791  37.024  1.00  0.00    -0.285 OA
BRANCH  13  15
HETATM   15  C15 UNK     1      30.726 -10.444  34.857  1.00  0.00     0.016 A 
HETATM   16  C17 UNK     1      29.716  -9.755  34.216  1.00  0.00     0.015 A 
HETATM   17  C19 UNK     1      29.300 -10.183  32.955  1.00  0.00     0.001 A 
HETATM   18  C21 UNK     1      29.903 -11.292  32.361  1.00  0.00     0.000 A 
HETATM   19  C20 UNK     1      30.922 -11.971  33.028  1.00  0.00     0.001 A 
HETATM   20  C18 UNK     1      31.337 -11.544  34.289  1.00  0.00     0.015 A 
ENDBRANCH  13  15
ENDBRANCH   6  13
BRANCH   5  21
HETATM   21  N1  UNK     1      29.000  -8.828  37.710  1.00  0.00    -0.374 N 
HETATM   22  C4  UNK     1      27.762  -8.955  36.939  1.00  0.00     0.149 C 
HETATM   23  C7  UNK     1      26.568  -8.830  37.878  1.00  0.00     0.187 C 
HETATM   24  O1  UNK     1      26.667  -9.784  38.938  1.00  0.00    -0.388 OA
HETATM   25  C8  UNK     1      27.839  -9.556  39.724  1.00  0.00     0.187 C 
HETATM   26  C5  UNK     1      29.091  -9.715  38.869  1.00  0.00     0.149 C 
ENDBRANCH   5  21
BRANCH   4  27
HETATM   27  C9  UNK     1      33.293  -8.206  35.355  1.00  0.00     0.244 C 
BRANCH  27  28
HETATM   28  C16 UNK     1      34.540  -7.526  35.854  1.00  0.00     0.234 C 
HETATM   29  O5  UNK     1      35.456  -7.147  35.130  1.00  0.00    -0.272 OA
HETATM   30  N3  UNK     1      34.535  -7.371  37.224  1.00  0.00    -0.369 N 
HETATM   31  H17 UNK     1      33.771  -7.693  37.809  1.00  0.00     0.159 HD
HETATM   32  H18 UNK     1      35.313  -6.924  37.699  1.00  0.00     0.159 HD
ENDBRANCH  27  28
ENDBRANCH   4  27
TORSDOF 5
ENDMDL
MODEL 4
REMARK VINA RESULT:      -8.0      2.842      6.276
REMARK  5 active torsions:
REMARK  status: ('A' for Active; 'I' for Inactive)
REMARK    1  A    between atoms: C1_10  and  N1_7 
REMARK    2  A    between atoms: C9_18  and  N2_8 
REMARK       I    between atoms: C16_25  and  N3_9 
REMARK    3  A    between atoms: C11_20  and  C2_11 
REMARK    4  A    between atoms: C16_25  and  C9_18 
REMARK    5  A    between atoms: C11_20  and  C15_24 
ROOT
HETATM    1  S1  UNK     1      28.706  -7.422  36.159  1.00  0.00     0.266 S 
HETATM    2  O2  UNK     1      29.473  -8.601  36.507  1.00  0.00    -0.200 OA
HETATM    3  O3  UNK     1      27.256  -7.445  36.133  1.00  0.00    -0.200 OA
HETATM    4  N2  UNK     1      29.276  -6.756  34.676  1.00  0.00    -0.257 N 
HETATM    5  C1  UNK     1      31.172  -5.728  35.778  1.00  0.00     0.074 C 
HETATM    6  C2  UNK     1      30.665  -6.361  34.693  1.00  0.00     0.124 C 
HETATM    7  C3  UNK     1      30.308  -5.387  36.949  1.00  0.00     0.016 A 
HETATM    8  C6  UNK     1      29.179  -6.149  37.267  1.00  0.00     0.092 A 
HETATM    9  C10 UNK     1      30.594  -4.301  37.795  1.00  0.00     0.015 A 
HETATM   10  C12 UNK     1      28.373  -5.879  38.374  1.00  0.00     0.026 A 
HETATM   11  C13 UNK     1      29.798  -4.018  38.911  1.00  0.00     0.001 A 
HETATM   12  C14 UNK     1      28.693  -4.810  39.203  1.00  0.00     0.002 A 
ENDROOT
BRANCH   6  13
HETATM   13  C11 UNK     1      31.496  -6.631  33.507  1.00  0.00     0.211 C 
HETATM   14  O4  UNK     1      31.441  -5.890  32.531  1.00  0.00    -0.285 OA
BRANCH  13  15
HETATM   15  C15 UNK     1      32.413  -7.796  33.523  1.00  0.00     0.016 A 
HETATM   16  C17 UNK     1      33.630  -7.697  32.880  1.00  0.00     0.015 A 
HETATM   17  C19 UNK     1      34.493  -8.793  32.894  1.00  0.00     0.001 A 
HETATM   18  C21 UNK     1      34.120  -9.966  33.550  1.00  0.00     0.000 A 
HETATM   19  C20 UNK     1      32.884 -10.042  34.192  1.00  0.00     0.001 A 
HETATM   20  C18 UNK     1      32.022  -8.947  34.178  1.00  0.00     0.015 A 
ENDBRANCH  13  15
ENDBRANCH   6  13
BRANCH   5  21
HETATM   21  N1  UNK     1      32.482  -5.372  35.911  1.00  0.00    -0.374 N 
HETATM   22  C4  UNK     1      33.019  -4.136  35.341  1.00  0.00     0.149 C 
HETATM   23  C7  UNK     1      34.361  -4.427  34.680  1.00  0.00     0.187 C 
HETATM   24  O1  UNK     1      35.251  -5.047  35.611  1.00  0.00    -0.388 OA
HETATM   25  C8  UNK     1      34.730  -6.299  36.060  1.00  0.00     0.187 C 
HETATM   26  C5  UNK     1      33.405  -6.094  36.786  1.00  0.00     0.149 C 
ENDBRANCH   5  21
BRANCH   4  27
HETATM   27  C9  UNK     1      28.684  -7.336  33.444  1.00  0.00     0.244 C 
BRANCH  27  28
HETATM   28  C16 UNK     1      27.930  -6.270  32.696  1.00  0.00     0.234 C 
HETATM   29  O5  UNK     1      26.898  -5.743  33.101  1.00  0.00    -0.272 OA
HETATM   30  N3  UNK     1      28.535  -5.945  31.500  1.00  0.00    -0.369 N 
HETATM   31  H17 UNK     1      29.386  -6.393  31.178  1.00  0.00     0.159 HD
HETATM   32  H18 UNK     1      28.136  -5.237  30.892  1.00  0.00     0.159 HD
ENDBRANCH  27  28
ENDBRANCH   4  27
TORSDOF 5
ENDMDL
MODEL 5
REMARK VINA RESULT:      -7.8      3.641      7.355
REMARK  5 active torsions:
REMARK  status: ('A' for Active; 'I' for Inactive)
REMARK    1  A    between atoms: C1_10  and  N1_7 
REMARK    2  A    between atoms: C9_18  and  N2_8 
REMARK       I    between atoms: C16_25  and  N3_9 
REMARK    3  A    between atoms: C11_20  and  C2_11 
REMARK    4  A    between atoms: C16_25  and  C9_18 
REMARK    5  A    between atoms: C11_20  and  C15_24 
ROOT
HETATM    1  S1  UNK     1      33.465  -7.949  30.170  1.00  0.00     0.266 S 
HETATM    2  O2  UNK     1      32.788  -6.713  29.831  1.00  0.00    -0.200 OA
HETATM    3  O3  UNK     1      34.441  -8.544  29.276  1.00  0.00    -0.200 OA
HETATM    4  N2  UNK     1      32.319  -9.154  30.619  1.00  0.00    -0.257 N 
HETATM    5  C1  UNK     1      32.056  -8.188  32.825  1.00  0.00     0.074 C 
HETATM    6  C2  UNK     1      31.498  -8.803  31.755  1.00  0.00     0.124 C 
HETATM    7  C3  UNK     1      33.523  -7.903  32.876  1.00  0.00     0.016 A 
HETATM    8  C6  UNK     1      34.265  -7.698  31.708  1.00  0.00     0.092 A 
HETATM    9  C10 UNK     1      34.222  -7.807  34.092  1.00  0.00     0.015 A 
HETATM   10  C12 UNK     1      35.628  -7.395  31.723  1.00  0.00     0.026 A 
HETATM   11  C13 UNK     1      35.587  -7.500  34.126  1.00  0.00     0.001 A 
HETATM   12  C14 UNK     1      36.287  -7.287  32.943  1.00  0.00     0.002 A 
ENDROOT
BRANCH   6  13
HETATM   13  C11 UNK     1      30.068  -9.153  31.733  1.00  0.00     0.211 C 
HETATM   14  O4  UNK     1      29.687 -10.227  32.189  1.00  0.00    -0.285 OA
BRANCH  13  15
HETATM   15  C15 UNK     1      29.098  -8.180  31.176  1.00  0.00     0.016 A 
HETATM   16  C17 UNK     1      29.519  -6.892  30.915  1.00  0.00     0.015 A 
HETATM   17  C19 UNK     1      28.607  -5.976  30.390  1.00  0.00     0.001 A 
HETATM   18  C21 UNK     1      27.291  -6.367  30.139  1.00  0.00     0.000 A 
HETATM   19  C20 UNK     1      26.890  -7.675  30.412  1.00  0.00     0.001 A 
HETATM   20  C18 UNK     1      27.802  -8.591  30.936  1.00  0.00     0.015 A 
ENDBRANCH  13  15
ENDBRANCH   6  13
BRANCH   5  21
HETATM   21  N1  UNK     1      31.353  -7.765  33.914  1.00  0.00    -0.374 N 
HETATM   22  C4  UNK     1      31.071  -8.640  35.053  1.00  0.00     0.149 C 
HETATM   23  C7  UNK     1      29.620  -8.457  35.483  1.00  0.00     0.187 C 
HETATM   24  O1  UNK     1      29.353  -7.080  35.756  1.00  0.00    -0.388 OA
HETATM   25  C8  UNK     1      29.543  -6.280  34.587  1.00  0.00     0.187 C 
HETATM   26  C5  UNK     1      30.991  -6.363  34.117  1.00  0.00     0.149 C 
ENDBRANCH   5  21
BRANCH   4  27
HETATM   27  C9  UNK     1      31.740  -9.938  29.499  1.00  0.00     0.244 C 
BRANCH  27  28
HETATM   28  C16 UNK     1      32.095 -11.391  29.664  1.00  0.00     0.234 C 
HETATM   29  O5  UNK     1      33.237 -11.835  29.584  1.00  0.00    -0.272 OA
HETATM   30  N3  UNK     1      30.988 -12.171  29.923  1.00  0.00    -0.369 N 
HETATM   31  H17 UNK     1      30.050 -11.788  29.982  1.00  0.00     0.159 HD
HETATM   32  H18 UNK     1      31.079 -13.173  30.060  1.00  0.00     0.159 HD
ENDBRANCH  27  28
ENDBRANCH   4  27
TORSDOF 5
ENDMDL
MODEL 6
REMARK VINA RESULT:      -7.8      4.014      7.924
REMARK  5 active torsions:
REMARK  status: ('A' for Active; 'I' for Inactive)
REMARK    1  A    between atoms: C1_10  and  N1_7 
REMARK    2  A    between atoms: C9_18  and  N2_8 
REMARK       I    between atoms: C16_25  and  N3_9 
REMARK    3  A    between atoms: C11_20  and  C2_11 
REMARK    4  A    between atoms: C16_25  and  C9_18 
REMARK    5  A    between atoms: C11_20  and  C15_24 
ROOT
HETATM    1  S1  UNK     1      33.287 -10.833  30.690  1.00  0.00     0.266 S 
HETATM    2  O2  UNK     1      34.381  -9.965  31.077  1.00  0.00    -0.200 OA
HETATM    3  O3  UNK     1      33.447 -11.831  29.649  1.00  0.00    -0.200 OA
HETATM    4  N2  UNK     1      31.878  -9.901  30.350  1.00  0.00    -0.257 N 
HETATM    5  C1  UNK     1      31.398  -9.628  32.709  1.00  0.00     0.074 C 
HETATM    6  C2  UNK     1      31.407  -9.105  31.459  1.00  0.00     0.124 C 
HETATM    7  C3  UNK     1      31.826 -11.038  32.960  1.00  0.00     0.016 A 
HETATM    8  C6  UNK     1      32.756 -11.675  32.132  1.00  0.00     0.092 A 
HETATM    9  C10 UNK     1      31.332 -11.785  34.045  1.00  0.00     0.015 A 
HETATM   10  C12 UNK     1      33.203 -12.978  32.360  1.00  0.00     0.026 A 
HETATM   11  C13 UNK     1      31.773 -13.090  34.290  1.00  0.00     0.001 A 
HETATM   12  C14 UNK     1      32.712 -13.683  33.453  1.00  0.00     0.002 A 
ENDROOT
BRANCH   6  13
HETATM   13  C11 UNK     1      30.916  -7.741  31.198  1.00  0.00     0.211 C 
HETATM   14  O4  UNK     1      31.683  -6.786  31.250  1.00  0.00    -0.285 OA
BRANCH  13  15
HETATM   15  C15 UNK     1      29.488  -7.547  30.848  1.00  0.00     0.016 A 
HETATM   16  C17 UNK     1      29.039  -6.275  30.553  1.00  0.00     0.015 A 
HETATM   17  C19 UNK     1      27.696  -6.092  30.225  1.00  0.00     0.001 A 
HETATM   18  C21 UNK     1      26.829  -7.184  30.198  1.00  0.00     0.000 A 
HETATM   19  C20 UNK     1      27.306  -8.460  30.500  1.00  0.00     0.001 A 
HETATM   20  C18 UNK     1      28.649  -8.643  30.829  1.00  0.00     0.015 A 
ENDBRANCH  13  15
ENDBRANCH   6  13
BRANCH   5  21
HETATM   21  N1  UNK     1      31.030  -8.935  33.824  1.00  0.00    -0.374 N 
HETATM   22  C4  UNK     1      29.657  -8.935  34.329  1.00  0.00     0.149 C 
HETATM   23  C7  UNK     1      29.262  -7.516  34.720  1.00  0.00     0.187 C 
HETATM   24  O1  UNK     1      30.201  -6.979  35.655  1.00  0.00    -0.388 OA
HETATM   25  C8  UNK     1      31.507  -6.903  35.080  1.00  0.00     0.187 C 
HETATM   26  C5  UNK     1      32.005  -8.294  34.706  1.00  0.00     0.149 C 
ENDBRANCH   5  21
BRANCH   4  27
HETATM   27  C9  UNK     1      31.774  -9.378  28.964  1.00  0.00     0.244 C 
BRANCH  27  28
HETATM   28  C16 UNK     1      30.761 -10.183  28.197  1.00  0.00     0.234 C 
HETATM   29  O5  UNK     1      30.347  -9.886  27.079  1.00  0.00    -0.272 OA
HETATM   30  N3  UNK     1      30.352 -11.303  28.889  1.00  0.00    -0.369 N 
HETATM   31  H17 UNK     1      30.701 -11.533  29.813  1.00  0.00     0.159 HD
HETATM   32  H18 UNK     1      29.671 -11.941  28.489  1.00  0.00     0.159 HD
ENDBRANCH  27  28
ENDBRANCH   4  27
TORSDOF 5
ENDMDL
MODEL 7
REMARK VINA RESULT:      -7.7      3.004      5.383
REMARK  5 active torsions:
REMARK  status: ('A' for Active; 'I' for Inactive)
REMARK    1  A    between atoms: C1_10  and  N1_7 
REMARK    2  A    between atoms: C9_18  and  N2_8 
REMARK       I    between atoms: C16_25  and  N3_9 
REMARK    3  A    between atoms: C11_20  and  C2_11 
REMARK    4  A    between atoms: C16_25  and  C9_18 
REMARK    5  A    between atoms: C11_20  and  C15_24 
ROOT
HETATM    1  S1  UNK     1      31.946  -8.430  35.816  1.00  0.00     0.266 S 
HETATM    2  O2  UNK     1      32.190  -9.858  35.823  1.00  0.00    -0.200 OA
HETATM    3  O3  UNK     1      31.675  -7.705  37.043  1.00  0.00    -0.200 OA
HETATM    4  N2  UNK     1      30.730  -8.038  34.661  1.00  0.00    -0.257 N 
HETATM    5  C1  UNK     1      32.305  -8.215  32.830  1.00  0.00     0.074 C 
HETATM    6  C2  UNK     1      31.052  -8.413  33.304  1.00  0.00     0.124 C 
HETATM    7  C3  UNK     1      33.359  -7.571  33.672  1.00  0.00     0.016 A 
HETATM    8  C6  UNK     1      33.336  -7.669  35.067  1.00  0.00     0.092 A 
HETATM    9  C10 UNK     1      34.429  -6.854  33.108  1.00  0.00     0.015 A 
HETATM   10  C12 UNK     1      34.324  -7.110  35.880  1.00  0.00     0.026 A 
HETATM   11  C13 UNK     1      35.429  -6.290  33.908  1.00  0.00     0.001 A 
HETATM   12  C14 UNK     1      35.380  -6.424  35.291  1.00  0.00     0.002 A 
ENDROOT
BRANCH   6  13
HETATM   13  C11 UNK     1      29.992  -8.978  32.452  1.00  0.00     0.211 C 
HETATM   14  O4  UNK     1      29.822 -10.192  32.399  1.00  0.00    -0.285 OA
BRANCH  13  15
HETATM   15  C15 UNK     1      29.122  -8.058  31.681  1.00  0.00     0.016 A 
HETATM   16  C17 UNK     1      27.993  -8.562  31.068  1.00  0.00     0.015 A 
HETATM   17  C19 UNK     1      27.174  -7.696  30.342  1.00  0.00     0.001 A 
HETATM   18  C21 UNK     1      27.503  -6.344  30.244  1.00  0.00     0.000 A 
HETATM   19  C20 UNK     1      28.649  -5.858  30.873  1.00  0.00     0.001 A 
HETATM   20  C18 UNK     1      29.468  -6.724  31.598  1.00  0.00     0.015 A 
ENDBRANCH  13  15
ENDBRANCH   6  13
BRANCH   5  21
HETATM   21  N1  UNK     1      32.718  -8.592  31.586  1.00  0.00    -0.374 N 
HETATM   22  C4  UNK     1      32.706  -7.676  30.445  1.00  0.00     0.149 C 
HETATM   23  C7  UNK     1      32.155  -8.399  29.222  1.00  0.00     0.187 C 
HETATM   24  O1  UNK     1      32.901  -9.592  28.973  1.00  0.00    -0.388 OA
HETATM   25  C8  UNK     1      32.798 -10.499  30.072  1.00  0.00     0.187 C 
HETATM   26  C5  UNK     1      33.380  -9.872  31.334  1.00  0.00     0.149 C 
ENDBRANCH   5  21
BRANCH   4  27
HETATM   27  C9  UNK     1      29.330  -8.136  35.146  1.00  0.00     0.244 C 
BRANCH  27  28
HETATM   28  C16 UNK     1      28.698  -6.771  35.145  1.00  0.00     0.234 C 
HETATM   29  O5  UNK     1      27.603  -6.518  34.650  1.00  0.00    -0.272 OA
HETATM   30  N3  UNK     1      29.489  -5.830  35.771  1.00  0.00    -0.369 N 
HETATM   31  H17 UNK     1      30.393  -6.055  36.172  1.00  0.00     0.159 HD
HETATM   32  H18 UNK     1      29.185  -4.865  35.847  1.00  0.00     0.159 HD
ENDBRANCH  27  28
ENDBRANCH   4  27
TORSDOF 5
ENDMDL
MODEL 8
REMARK VINA RESULT:      -7.7      1.979      2.724
REMARK  5 active torsions:
REMARK  status: ('A' for Active; 'I' for Inactive)
REMARK    1  A    between atoms: C1_10  and  N1_7 
REMARK    2  A    between atoms: C9_18  and  N2_8 
REMARK       I    between atoms: C16_25  and  N3_9 
REMARK    3  A    between atoms: C11_20  and  C2_11 
REMARK    4  A    between atoms: C16_25  and  C9_18 
REMARK    5  A    between atoms: C11_20  and  C15_24 
ROOT
HETATM    1  S1  UNK     1      34.288  -6.455  36.135  1.00  0.00     0.266 S 
HETATM    2  O2  UNK     1      34.324  -7.713  36.854  1.00  0.00    -0.200 OA
HETATM    3  O3  UNK     1      35.202  -5.375  36.458  1.00  0.00    -0.200 OA
HETATM    4  N2  UNK     1      32.683  -5.831  36.103  1.00  0.00    -0.257 N 
HETATM    5  C1  UNK     1      32.044  -7.358  34.334  1.00  0.00     0.074 C 
HETATM    6  C2  UNK     1      31.717  -6.700  35.472  1.00  0.00     0.124 C 
HETATM    7  C3  UNK     1      33.378  -7.167  33.687  1.00  0.00     0.016 A 
HETATM    8  C6  UNK     1      34.508  -6.822  34.436  1.00  0.00     0.092 A 
HETATM    9  C10 UNK     1      33.567  -7.342  32.304  1.00  0.00     0.015 A 
HETATM   10  C12 UNK     1      35.774  -6.673  33.867  1.00  0.00     0.026 A 
HETATM   11  C13 UNK     1      34.830  -7.200  31.719  1.00  0.00     0.001 A 
HETATM   12  C14 UNK     1      35.933  -6.872  32.500  1.00  0.00     0.002 A 
ENDROOT
BRANCH   6  13
HETATM   13  C11 UNK     1      30.377  -6.827  36.071  1.00  0.00     0.211 C 
HETATM   14  O4  UNK     1      29.474  -6.068  35.734  1.00  0.00    -0.285 OA
BRANCH  13  15
HETATM   15  C15 UNK     1      30.134  -7.898  37.067  1.00  0.00     0.016 A 
HETATM   16  C17 UNK     1      28.894  -7.982  37.669  1.00  0.00     0.015 A 
HETATM   17  C19 UNK     1      28.665  -8.989  38.606  1.00  0.00     0.001 A 
HETATM   18  C21 UNK     1      29.680  -9.892  38.922  1.00  0.00     0.000 A 
HETATM   19  C20 UNK     1      30.924  -9.787  38.300  1.00  0.00     0.001 A 
HETATM   20  C18 UNK     1      31.154  -8.780  37.364  1.00  0.00     0.015 A 
ENDBRANCH  13  15
ENDBRANCH   6  13
BRANCH   5  21
HETATM   21  N1  UNK     1      31.223  -8.243  33.702  1.00  0.00    -0.374 N 
HETATM   22  C4  UNK     1      30.235  -7.823  32.707  1.00  0.00     0.149 C 
HETATM   23  C7  UNK     1      28.921  -8.553  32.960  1.00  0.00     0.187 C 
HETATM   24  O1  UNK     1      29.133  -9.967  32.975  1.00  0.00    -0.388 OA
HETATM   25  C8  UNK     1      30.024 -10.339  34.029  1.00  0.00     0.187 C 
HETATM   26  C5  UNK     1      31.388  -9.691  33.824  1.00  0.00     0.149 C 
ENDBRANCH   5  21
BRANCH   4  27
HETATM   27  C9  UNK     1      32.290  -5.013  37.278  1.00  0.00     0.244 C 
BRANCH  27  28
HETATM   28  C16 UNK     1      31.862  -3.645  36.820  1.00  0.00     0.234 C 
HETATM   29  O5  UNK     1      32.598  -2.850  36.241  1.00  0.00    -0.272 OA
HETATM   30  N3  UNK     1      30.541  -3.385  37.119  1.00  0.00    -0.369 N 
HETATM   31  H17 UNK     1      29.948  -4.052  37.601  1.00  0.00     0.159 HD
HETATM   32  H18 UNK     1      30.116  -2.499  36.865  1.00  0.00     0.159 HD
ENDBRANCH  27  28
ENDBRANCH   4  27
TORSDOF 5
ENDMDL
MODEL 9
REMARK VINA RESULT:      -7.7      2.500      6.578
REMARK  5 active torsions:
REMARK  status: ('A' for Active; 'I' for Inactive)
REMARK    1  A    between atoms: C1_10  and  N1_7 
REMARK    2  A    between atoms: C9_18  and  N2_8 
REMARK       I    between atoms: C16_25  and  N3_9 
REMARK    3  A    between atoms: C11_20  and  C2_11 
REMARK    4  A    between atoms: C16_25  and  C9_18 
REMARK    5  A    between atoms: C11_20  and  C15_24 
ROOT
HETATM    1  S1  UNK     1      29.794  -8.920  37.472  1.00  0.00     0.266 S 
HETATM    2  O2  UNK     1      30.878  -9.512  38.230  1.00  0.00    -0.200 OA
HETATM    3  O3  UNK     1      28.455  -9.477  37.509  1.00  0.00    -0.200 OA
HETATM    4  N2  UNK     1      30.261  -8.708  35.828  1.00  0.00    -0.257 N 
HETATM    5  C1  UNK     1      31.543  -6.726  36.369  1.00  0.00     0.074 C 
HETATM    6  C2  UNK     1      31.415  -7.860  35.639  1.00  0.00     0.124 C 
HETATM    7  C3  UNK     1      30.487  -6.306  37.340  1.00  0.00     0.016 A 
HETATM    8  C6  UNK     1      29.666  -7.245  37.972  1.00  0.00     0.092 A 
HETATM    9  C10 UNK     1      30.280  -4.957  37.679  1.00  0.00     0.015 A 
HETATM   10  C12 UNK     1      28.696  -6.889  38.910  1.00  0.00     0.026 A 
HETATM   11  C13 UNK     1      29.314  -4.583  38.620  1.00  0.00     0.001 A 
HETATM   12  C14 UNK     1      28.528  -5.549  39.240  1.00  0.00     0.002 A 
ENDROOT
BRANCH   6  13
HETATM   13  C11 UNK     1      32.416  -8.237  34.628  1.00  0.00     0.211 C 
HETATM   14  O4  UNK     1      33.420  -8.863  34.953  1.00  0.00    -0.285 OA
BRANCH  13  15
HETATM   15  C15 UNK     1      32.181  -7.868  33.211  1.00  0.00     0.016 A 
HETATM   16  C17 UNK     1      32.896  -8.516  32.224  1.00  0.00     0.015 A 
HETATM   17  C19 UNK     1      32.675  -8.169  30.891  1.00  0.00     0.001 A 
HETATM   18  C21 UNK     1      31.743  -7.182  30.572  1.00  0.00     0.000 A 
HETATM   19  C20 UNK     1      31.032  -6.541  31.588  1.00  0.00     0.001 A 
HETATM   20  C18 UNK     1      31.254  -6.888  32.920  1.00  0.00     0.015 A 
ENDBRANCH  13  15
ENDBRANCH   6  13
BRANCH   5  21
HETATM   21  N1  UNK     1      32.624  -5.896  36.304  1.00  0.00    -0.374 N 
HETATM   22  C4  UNK     1      32.674  -4.743  35.404  1.00  0.00     0.149 C 
HETATM   23  C7  UNK     1      34.040  -4.687  34.731  1.00  0.00     0.187 C 
HETATM   24  O1  UNK     1      35.078  -4.674  35.714  1.00  0.00    -0.388 OA
HETATM   25  C8  UNK     1      35.052  -5.867  36.501  1.00  0.00     0.187 C 
HETATM   26  C5  UNK     1      33.732  -5.976  37.255  1.00  0.00     0.149 C 
ENDBRANCH   5  21
BRANCH   4  27
HETATM   27  C9  UNK     1      30.052  -9.884  34.946  1.00  0.00     0.244 C 
BRANCH  27  28
HETATM   28  C16 UNK     1      29.004  -9.562  33.915  1.00  0.00     0.234 C 
HETATM   29  O5  UNK     1      28.280  -8.571  33.955  1.00  0.00    -0.272 OA
HETATM   30  N3  UNK     1      28.953 -10.505  32.911  1.00  0.00    -0.369 N 
HETATM   31  H17 UNK     1      29.557 -11.320  32.894  1.00  0.00     0.159 HD
HETATM   32  H18 UNK     1      28.294 -10.413  32.145  1.00  0.00     0.159 HD
ENDBRANCH  27  28
ENDBRANCH   4  27
TORSDOF 5
ENDMDL
MODEL 10
REMARK VINA RESULT:      -7.6      2.858      6.493
REMARK  5 active torsions:
REMARK  status: ('A' for Active; 'I' for Inactive)
REMARK    1  A    between atoms: C1_10  and  N1_7 
REMARK    2  A    between atoms: C9_18  and  N2_8 
REMARK       I    between atoms: C16_25  and  N3_9 
REMARK    3  A    between atoms: C11_20  and  C2_11 
REMARK    4  A    between atoms: C16_25  and  C9_18 
REMARK    5  A    between atoms: C11_20  and  C15_24 
ROOT
HETATM    1  S1  UNK     1      28.661  -7.611  36.420  1.00  0.00     0.266 S 
HETATM    2  O2  UNK     1      29.272  -8.762  37.053  1.00  0.00    -0.200 OA
HETATM    3  O3  UNK     1      27.221  -7.430  36.409  1.00  0.00    -0.200 OA
HETATM    4  N2  UNK     1      29.253  -7.429  34.813  1.00  0.00    -0.257 N 
HETATM    5  C1  UNK     1      31.318  -6.442  35.605  1.00  0.00     0.074 C 
HETATM    6  C2  UNK     1      30.683  -7.247  34.720  1.00  0.00     0.124 C 
HETATM    7  C3  UNK     1      30.560  -5.695  36.655  1.00  0.00     0.016 A 
HETATM    8  C6  UNK     1      29.352  -6.182  37.164  1.00  0.00     0.092 A 
HETATM    9  C10 UNK     1      31.029  -4.484  37.194  1.00  0.00     0.015 A 
HETATM   10  C12 UNK     1      28.638  -5.528  38.170  1.00  0.00     0.026 A 
HETATM   11  C13 UNK     1      30.328  -3.818  38.206  1.00  0.00     0.001 A 
HETATM   12  C14 UNK     1      29.138  -4.343  38.697  1.00  0.00     0.002 A 
ENDROOT
BRANCH   6  13
HETATM   13  C11 UNK     1      31.418  -7.924  33.638  1.00  0.00     0.211 C 
HETATM   14  O4  UNK     1      32.183  -8.848  33.893  1.00  0.00    -0.285 OA
BRANCH  13  15
HETATM   15  C15 UNK     1      31.199  -7.487  32.238  1.00  0.00     0.016 A 
HETATM   16  C17 UNK     1      30.922  -6.157  31.989  1.00  0.00     0.015 A 
HETATM   17  C19 UNK     1      30.716  -5.745  30.672  1.00  0.00     0.001 A 
HETATM   18  C21 UNK     1      30.790  -6.672  29.632  1.00  0.00     0.000 A 
HETATM   19  C20 UNK     1      31.071  -8.010  29.909  1.00  0.00     0.001 A 
HETATM   20  C18 UNK     1      31.277  -8.421  31.225  1.00  0.00     0.015 A 
ENDBRANCH  13  15
ENDBRANCH   6  13
BRANCH   5  21
HETATM   21  N1  UNK     1      32.669  -6.256  35.634  1.00  0.00    -0.374 N 
HETATM   22  C4  UNK     1      33.550  -7.048  36.493  1.00  0.00     0.149 C 
HETATM   23  C7  UNK     1      34.569  -6.129  37.156  1.00  0.00     0.187 C 
HETATM   24  O1  UNK     1      35.279  -5.379  36.167  1.00  0.00    -0.388 OA
HETATM   25  C8  UNK     1      34.389  -4.544  35.422  1.00  0.00     0.187 C 
HETATM   26  C5  UNK     1      33.362  -5.392  34.680  1.00  0.00     0.149 C 
ENDBRANCH   5  21
BRANCH   4  27
HETATM   27  C9  UNK     1      28.535  -8.209  33.773  1.00  0.00     0.244 C 
BRANCH  27  28
HETATM   28  C16 UNK     1      27.843  -7.269  32.824  1.00  0.00     0.234 C 
HETATM   29  O5  UNK     1      27.577  -7.539  31.656  1.00  0.00    -0.272 OA
HETATM   30  N3  UNK     1      27.534  -6.064  33.419  1.00  0.00    -0.369 N 
HETATM   31  H17 UNK     1      27.764  -5.855  34.384  1.00  0.00     0.159 HD
HETATM   32  H18 UNK     1      27.061  -5.333  32.896  1.00  0.00     0.159 HD
ENDBRANCH  27  28
ENDBRANCH   4  27
TORSDOF 5
ENDMDL
