MODEL 1
REMARK VINA RESULT:      -9.6      0.000      0.000
REMARK  4 active torsions:
REMARK  status: ('A' for Active; 'I' for Inactive)
REMARK    1  A    between atoms: C13_19  and  O3_3 
REMARK    2  A    between atoms: C5_11  and  O3_3 
REMARK    3  A    between atoms: C1_7  and  C5_11 
REMARK    4  A    between atoms: C10_16  and  C13_19 
ROOT
HETATM    1  O5  UNK     1      17.885   3.316  28.602  1.00  0.00    -0.259 OA
HETATM    2  C13 UNK     1      18.665   3.226  29.535  1.00  0.00     0.299 C 
ENDROOT
BRANCH   2   3
HETATM    3  C10 UNK     1      18.938   1.971  30.245  1.00  0.00     0.115 A 
HETATM    4  C12 UNK     1      19.572   1.023  29.546  1.00  0.00     0.038 A 
HETATM    5  C8  UNK     1      19.886  -0.256  30.163  1.00  0.00    -0.001 A 
HETATM    6  C11 UNK     1      19.517  -0.474  31.487  1.00  0.00     0.089 A 
HETATM    7  C14 UNK     1      20.547  -1.275  29.472  1.00  0.00     0.014 A 
HETATM    8  O4  UNK     1      18.849   0.529  32.218  1.00  0.00    -0.274 OA
HETATM    9  C16 UNK     1      19.788  -1.676  32.137  1.00  0.00     0.038 A 
HETATM   10  C15 UNK     1      18.535   1.762  31.654  1.00  0.00     0.304 A 
HETATM   11  O6  UNK     1      17.953   2.629  32.298  1.00  0.00    -0.259 OA
HETATM   12  C18 UNK     1      20.447  -2.686  31.440  1.00  0.00     0.003 A 
HETATM   13  C17 UNK     1      20.826  -2.487  30.111  1.00  0.00     0.001 A 
ENDBRANCH   2   3
BRANCH   2  14
HETATM   14  O3  UNK     1      19.411   4.210  30.095  1.00  0.00    -0.313 OA
BRANCH  14  15
HETATM   15  C5  UNK     1      18.851   5.525  30.011  1.00  0.00     0.217 C 
BRANCH  15  16
HETATM   16  C1  UNK     1      18.764   6.110  31.390  1.00  0.00    -0.031 A 
HETATM   17  C4  UNK     1      17.515   6.363  31.950  1.00  0.00     0.049 A 
HETATM   18  C2  UNK     1      17.486   6.902  33.220  1.00  0.00     0.105 A 
HETATM   19  O1  UNK     1      16.368   7.218  33.929  1.00  0.00    -0.323 OA
HETATM   20  C3  UNK     1      18.642   7.180  33.915  1.00  0.00     0.105 A 
HETATM   21  C9  UNK     1      16.949   7.725  35.147  1.00  0.00     0.352 A 
HETATM   22  O2  UNK     1      18.390   7.704  35.145  1.00  0.00    -0.323 OA
HETATM   23  C7  UNK     1      19.889   6.935  33.377  1.00  0.00     0.040 A 
HETATM   24  C6  UNK     1      19.945   6.391  32.093  1.00  0.00     0.012 A 
ENDBRANCH  15  16
ENDBRANCH  14  15
ENDBRANCH   2  14
TORSDOF 4
ENDMDL
MODEL 2
REMARK VINA RESULT:      -9.4      1.281      2.018
REMARK  4 active torsions:
REMARK  status: ('A' for Active; 'I' for Inactive)
REMARK    1  A    between atoms: C13_19  and  O3_3 
REMARK    2  A    between atoms: C5_11  and  O3_3 
REMARK    3  A    between atoms: C1_7  and  C5_11 
REMARK    4  A    between atoms: C10_16  and  C13_19 
ROOT
HETATM    1  O5  UNK     1      17.531   3.582  32.007  1.00  0.00    -0.259 OA
HETATM    2  C13 UNK     1      18.204   3.484  30.995  1.00  0.00     0.299 C 
ENDROOT
BRANCH   2   3
HETATM    3  C10 UNK     1      18.663   2.202  30.447  1.00  0.00     0.115 A 
HETATM    4  C12 UNK     1      19.200   1.344  31.321  1.00  0.00     0.038 A 
HETATM    5  C8  UNK     1      19.684   0.048  30.874  1.00  0.00    -0.001 A 
HETATM    6  C11 UNK     1      19.577  -0.282  29.526  1.00  0.00     0.089 A 
HETATM    7  C14 UNK     1      20.252  -0.880  31.751  1.00  0.00     0.014 A 
HETATM    8  O4  UNK     1      19.010   0.626  28.610  1.00  0.00    -0.274 OA
HETATM    9  C16 UNK     1      20.021  -1.507  29.032  1.00  0.00     0.038 A 
HETATM   10  C15 UNK     1      18.539   1.873  29.009  1.00  0.00     0.304 A 
HETATM   11  O6  UNK     1      18.047   2.658  28.204  1.00  0.00    -0.259 OA
HETATM   12  C18 UNK     1      20.587  -2.425  29.914  1.00  0.00     0.003 A 
HETATM   13  C17 UNK     1      20.702  -2.112  31.270  1.00  0.00     0.001 A 
ENDBRANCH   2   3
BRANCH   2  14
HETATM   14  O3  UNK     1      18.655   4.482  30.195  1.00  0.00    -0.313 OA
BRANCH  14  15
HETATM   15  C5  UNK     1      19.764   5.226  30.711  1.00  0.00     0.217 C 
BRANCH  15  16
HETATM   16  C1  UNK     1      19.262   6.222  31.715  1.00  0.00    -0.031 A 
HETATM   17  C4  UNK     1      18.105   6.946  31.442  1.00  0.00     0.049 A 
HETATM   18  C2  UNK     1      17.683   7.850  32.396  1.00  0.00     0.105 A 
HETATM   19  O1  UNK     1      16.582   8.646  32.311  1.00  0.00    -0.323 OA
HETATM   20  C3  UNK     1      18.372   8.035  33.573  1.00  0.00     0.105 A 
HETATM   21  C9  UNK     1      16.655   9.351  33.566  1.00  0.00     0.352 A 
HETATM   22  O2  UNK     1      17.788   8.970  34.372  1.00  0.00    -0.323 OA
HETATM   23  C7  UNK     1      19.521   7.327  33.861  1.00  0.00     0.040 A 
HETATM   24  C6  UNK     1      19.969   6.406  32.912  1.00  0.00     0.012 A 
ENDBRANCH  15  16
ENDBRANCH  14  15
ENDBRANCH   2  14
TORSDOF 4
ENDMDL
MODEL 3
REMARK VINA RESULT:      -9.3      3.745      7.066
REMARK  4 active torsions:
REMARK  status: ('A' for Active; 'I' for Inactive)
REMARK    1  A    between atoms: C13_19  and  O3_3 
REMARK    2  A    between atoms: C5_11  and  O3_3 
REMARK    3  A    between atoms: C1_7  and  C5_11 
REMARK    4  A    between atoms: C10_16  and  C13_19 
ROOT
HETATM    1  O5  UNK     1      20.821  -3.807  33.197  1.00  0.00    -0.259 OA
HETATM    2  C13 UNK     1      20.552  -2.620  33.275  1.00  0.00     0.299 C 
ENDROOT
BRANCH   2   3
HETATM    3  C10 UNK     1      19.774  -2.036  34.374  1.00  0.00     0.115 A 
HETATM    4  C12 UNK     1      18.702  -1.317  34.023  1.00  0.00     0.038 A 
HETATM    5  C8  UNK     1      17.869  -0.698  35.041  1.00  0.00    -0.001 A 
HETATM    6  C11 UNK     1      18.206  -0.866  36.381  1.00  0.00     0.089 A 
HETATM    7  C14 UNK     1      16.740   0.061  34.722  1.00  0.00     0.014 A 
HETATM    8  O4  UNK     1      19.336  -1.625  36.744  1.00  0.00    -0.274 OA
HETATM    9  C16 UNK     1      17.450  -0.300  37.405  1.00  0.00     0.038 A 
HETATM   10  C15 UNK     1      20.152  -2.229  35.792  1.00  0.00     0.304 A 
HETATM   11  O6  UNK     1      21.135  -2.886  36.118  1.00  0.00    -0.259 OA
HETATM   12  C18 UNK     1      16.326   0.455  37.077  1.00  0.00     0.003 A 
HETATM   13  C17 UNK     1      15.972   0.635  35.738  1.00  0.00     0.001 A 
ENDBRANCH   2   3
BRANCH   2  14
HETATM   14  O3  UNK     1      20.891  -1.630  32.412  1.00  0.00    -0.313 OA
BRANCH  14  15
HETATM   15  C5  UNK     1      20.877  -1.995  31.028  1.00  0.00     0.217 C 
BRANCH  15  16
HETATM   16  C1  UNK     1      20.156  -0.934  30.248  1.00  0.00    -0.031 A 
HETATM   17  C4  UNK     1      19.835   0.271  30.866  1.00  0.00     0.049 A 
HETATM   18  C2  UNK     1      19.172   1.215  30.108  1.00  0.00     0.105 A 
HETATM   19  O1  UNK     1      18.774   2.445  30.533  1.00  0.00    -0.323 OA
HETATM   20  C3  UNK     1      18.839   0.983  28.793  1.00  0.00     0.105 A 
HETATM   21  C9  UNK     1      18.154   2.962  29.339  1.00  0.00     0.352 A 
HETATM   22  O2  UNK     1      18.191   2.040  28.231  1.00  0.00    -0.323 OA
HETATM   23  C7  UNK     1      19.149  -0.205  28.163  1.00  0.00     0.040 A 
HETATM   24  C6  UNK     1      19.819  -1.176  28.908  1.00  0.00     0.012 A 
ENDBRANCH  15  16
ENDBRANCH  14  15
ENDBRANCH   2  14
TORSDOF 4
ENDMDL
MODEL 4
REMARK VINA RESULT:      -9.0      1.539      7.726
REMARK  4 active torsions:
REMARK  status: ('A' for Active; 'I' for Inactive)
REMARK    1  A    between atoms: C13_19  and  O3_3 
REMARK    2  A    between atoms: C5_11  and  O3_3 
REMARK    3  A    between atoms: C1_7  and  C5_11 
REMARK    4  A    between atoms: C10_16  and  C13_19 
ROOT
HETATM    1  O5  UNK     1      18.910   4.821  28.914  1.00  0.00    -0.259 OA
HETATM    2  C13 UNK     1      18.901   4.418  30.065  1.00  0.00     0.299 C 
ENDROOT
BRANCH   2   3
HETATM    3  C10 UNK     1      19.013   5.300  31.232  1.00  0.00     0.115 A 
HETATM    4  C12 UNK     1      17.886   5.514  31.921  1.00  0.00     0.038 A 
HETATM    5  C8  UNK     1      17.895   6.375  33.094  1.00  0.00    -0.001 A 
HETATM    6  C11 UNK     1      19.092   6.969  33.483  1.00  0.00     0.089 A 
HETATM    7  C14 UNK     1      16.743   6.627  33.843  1.00  0.00     0.014 A 
HETATM    8  O4  UNK     1      20.275   6.740  32.754  1.00  0.00    -0.274 OA
HETATM    9  C16 UNK     1      19.169   7.804  34.596  1.00  0.00     0.038 A 
HETATM   10  C15 UNK     1      20.297   5.922  31.628  1.00  0.00     0.304 A 
HETATM   11  O6  UNK     1      21.332   5.728  30.999  1.00  0.00    -0.259 OA
HETATM   12  C18 UNK     1      18.016   8.049  35.337  1.00  0.00     0.003 A 
HETATM   13  C17 UNK     1      16.805   7.462  34.962  1.00  0.00     0.001 A 
ENDBRANCH   2   3
BRANCH   2  14
HETATM   14  O3  UNK     1      18.794   3.138  30.499  1.00  0.00    -0.313 OA
BRANCH  14  15
HETATM   15  C5  UNK     1      18.479   2.174  29.489  1.00  0.00     0.217 C 
BRANCH  15  16
HETATM   16  C1  UNK     1      19.131   0.868  29.837  1.00  0.00    -0.031 A 
HETATM   17  C4  UNK     1      19.257   0.499  31.174  1.00  0.00     0.049 A 
HETATM   18  C2  UNK     1      19.864  -0.710  31.443  1.00  0.00     0.105 A 
HETATM   19  O1  UNK     1      20.078  -1.239  32.679  1.00  0.00    -0.323 OA
HETATM   20  C3  UNK     1      20.328  -1.527  30.437  1.00  0.00     0.105 A 
HETATM   21  C9  UNK     1      20.729  -2.480  32.338  1.00  0.00     0.352 A 
HETATM   22  O2  UNK     1      20.891  -2.669  30.919  1.00  0.00    -0.323 OA
HETATM   23  C7  UNK     1      20.212  -1.179  29.107  1.00  0.00     0.040 A 
HETATM   24  C6  UNK     1      19.602   0.040  28.808  1.00  0.00     0.012 A 
ENDBRANCH  15  16
ENDBRANCH  14  15
ENDBRANCH   2  14
TORSDOF 4
ENDMDL
MODEL 5
REMARK VINA RESULT:      -9.0      2.846      4.010
REMARK  4 active torsions:
REMARK  status: ('A' for Active; 'I' for Inactive)
REMARK    1  A    between atoms: C13_19  and  O3_3 
REMARK    2  A    between atoms: C5_11  and  O3_3 
REMARK    3  A    between atoms: C1_7  and  C5_11 
REMARK    4  A    between atoms: C10_16  and  C13_19 
ROOT
HETATM    1  O5  UNK     1      19.449   1.007  30.814  1.00  0.00    -0.259 OA
HETATM    2  C13 UNK     1      18.703   1.438  31.677  1.00  0.00     0.299 C 
ENDROOT
BRANCH   2   3
HETATM    3  C10 UNK     1      18.521   0.797  32.984  1.00  0.00     0.115 A 
HETATM    4  C12 UNK     1      18.265   1.612  34.013  1.00  0.00     0.038 A 
HETATM    5  C8  UNK     1      18.070   1.070  35.349  1.00  0.00    -0.001 A 
HETATM    6  C11 UNK     1      18.155  -0.306  35.535  1.00  0.00     0.089 A 
HETATM    7  C14 UNK     1      17.800   1.884  36.452  1.00  0.00     0.014 A 
HETATM    8  O4  UNK     1      18.425  -1.160  34.448  1.00  0.00    -0.274 OA
HETATM    9  C16 UNK     1      17.978  -0.890  36.788  1.00  0.00     0.038 A 
HETATM   10  C15 UNK     1      18.616  -0.671  33.159  1.00  0.00     0.304 A 
HETATM   11  O6  UNK     1      18.851  -1.422  32.219  1.00  0.00    -0.259 OA
HETATM   12  C18 UNK     1      17.710  -0.070  37.882  1.00  0.00     0.003 A 
HETATM   13  C17 UNK     1      17.621   1.313  37.715  1.00  0.00     0.001 A 
ENDBRANCH   2   3
BRANCH   2  14
HETATM   14  O3  UNK     1      17.919   2.543  31.626  1.00  0.00    -0.313 OA
BRANCH  14  15
HETATM   15  C5  UNK     1      18.461   3.644  30.889  1.00  0.00     0.217 C 
BRANCH  15  16
HETATM   16  C1  UNK     1      18.609   4.823  31.806  1.00  0.00    -0.031 A 
HETATM   17  C4  UNK     1      17.595   5.116  32.714  1.00  0.00     0.049 A 
HETATM   18  C2  UNK     1      17.777   6.210  33.535  1.00  0.00     0.105 A 
HETATM   19  O1  UNK     1      16.903   6.654  34.480  1.00  0.00    -0.323 OA
HETATM   20  C3  UNK     1      18.912   6.985  33.468  1.00  0.00     0.105 A 
HETATM   21  C9  UNK     1      17.616   7.794  35.000  1.00  0.00     0.352 A 
HETATM   22  O2  UNK     1      18.891   8.011  34.363  1.00  0.00    -0.323 OA
HETATM   23  C7  UNK     1      19.928   6.710  32.576  1.00  0.00     0.040 A 
HETATM   24  C6  UNK     1      19.768   5.609  31.733  1.00  0.00     0.012 A 
ENDBRANCH  15  16
ENDBRANCH  14  15
ENDBRANCH   2  14
TORSDOF 4
ENDMDL
MODEL 6
REMARK VINA RESULT:      -8.9      2.691      3.952
REMARK  4 active torsions:
REMARK  status: ('A' for Active; 'I' for Inactive)
REMARK    1  A    between atoms: C13_19  and  O3_3 
REMARK    2  A    between atoms: C5_11  and  O3_3 
REMARK    3  A    between atoms: C1_7  and  C5_11 
REMARK    4  A    between atoms: C10_16  and  C13_19 
ROOT
HETATM    1  O5  UNK     1      20.030   0.490  30.400  1.00  0.00    -0.259 OA
HETATM    2  C13 UNK     1      19.120   0.855  31.126  1.00  0.00     0.299 C 
ENDROOT
BRANCH   2   3
HETATM    3  C10 UNK     1      18.871   0.290  32.457  1.00  0.00     0.115 A 
HETATM    4  C12 UNK     1      18.461   1.149  33.398  1.00  0.00     0.038 A 
HETATM    5  C8  UNK     1      18.188   0.684  34.748  1.00  0.00    -0.001 A 
HETATM    6  C11 UNK     1      18.360  -0.665  35.043  1.00  0.00     0.089 A 
HETATM    7  C14 UNK     1      17.760   1.545  35.761  1.00  0.00     0.014 A 
HETATM    8  O4  UNK     1      18.791  -1.565  34.049  1.00  0.00    -0.274 OA
HETATM    9  C16 UNK     1      18.116  -1.175  36.316  1.00  0.00     0.038 A 
HETATM   10  C15 UNK     1      19.060  -1.150  32.748  1.00  0.00     0.304 A 
HETATM   11  O6  UNK     1      19.435  -1.940  31.889  1.00  0.00    -0.259 OA
HETATM   12  C18 UNK     1      17.689  -0.309  37.320  1.00  0.00     0.003 A 
HETATM   13  C17 UNK     1      17.511   1.048  37.043  1.00  0.00     0.001 A 
ENDBRANCH   2   3
BRANCH   2  14
HETATM   14  O3  UNK     1      18.189   1.809  30.880  1.00  0.00    -0.313 OA
BRANCH  14  15
HETATM   15  C5  UNK     1      18.610   2.863  30.007  1.00  0.00     0.217 C 
BRANCH  15  16
HETATM   16  C1  UNK     1      18.725   4.136  30.794  1.00  0.00    -0.031 A 
HETATM   17  C4  UNK     1      18.019   4.271  31.986  1.00  0.00     0.049 A 
HETATM   18  C2  UNK     1      18.157   5.460  32.673  1.00  0.00     0.105 A 
HETATM   19  O1  UNK     1      17.550   5.778  33.849  1.00  0.00    -0.323 OA
HETATM   20  C3  UNK     1      18.961   6.476  32.208  1.00  0.00     0.105 A 
HETATM   21  C9  UNK     1      18.060   7.108  34.071  1.00  0.00     0.352 A 
HETATM   22  O2  UNK     1      18.956   7.557  33.034  1.00  0.00    -0.323 OA
HETATM   23  C7  UNK     1      19.669   6.360  31.030  1.00  0.00     0.040 A 
HETATM   24  C6  UNK     1      19.545   5.167  30.314  1.00  0.00     0.012 A 
ENDBRANCH  15  16
ENDBRANCH  14  15
ENDBRANCH   2  14
TORSDOF 4
ENDMDL
MODEL 7
REMARK VINA RESULT:      -8.9      2.012      3.088
REMARK  4 active torsions:
REMARK  status: ('A' for Active; 'I' for Inactive)
REMARK    1  A    between atoms: C13_19  and  O3_3 
REMARK    2  A    between atoms: C5_11  and  O3_3 
REMARK    3  A    between atoms: C1_7  and  C5_11 
REMARK    4  A    between atoms: C10_16  and  C13_19 
ROOT
HETATM    1  O5  UNK     1      17.750   1.795  35.161  1.00  0.00    -0.259 OA
HETATM    2  C13 UNK     1      18.019   1.890  33.975  1.00  0.00     0.299 C 
ENDROOT
BRANCH   2   3
HETATM    3  C10 UNK     1      18.548   0.782  33.173  1.00  0.00     0.115 A 
HETATM    4  C12 UNK     1      19.010   1.099  31.958  1.00  0.00     0.038 A 
HETATM    5  C8  UNK     1      19.554   0.068  31.088  1.00  0.00    -0.001 A 
HETATM    6  C11 UNK     1      19.586  -1.247  31.541  1.00  0.00     0.089 A 
HETATM    7  C14 UNK     1      20.047   0.353  29.812  1.00  0.00     0.014 A 
HETATM    8  O4  UNK     1      19.098  -1.575  32.822  1.00  0.00    -0.274 OA
HETATM    9  C16 UNK     1      20.094  -2.282  30.758  1.00  0.00     0.038 A 
HETATM   10  C15 UNK     1      18.572  -0.611  33.676  1.00  0.00     0.304 A 
HETATM   11  O6  UNK     1      18.149  -0.905  34.789  1.00  0.00    -0.259 OA
HETATM   12  C18 UNK     1      20.582  -1.988  29.487  1.00  0.00     0.003 A 
HETATM   13  C17 UNK     1      20.559  -0.674  29.015  1.00  0.00     0.001 A 
ENDBRANCH   2   3
BRANCH   2  14
HETATM   14  O3  UNK     1      17.896   2.981  33.179  1.00  0.00    -0.313 OA
BRANCH  14  15
HETATM   15  C5  UNK     1      18.473   4.184  33.696  1.00  0.00     0.217 C 
BRANCH  15  16
HETATM   16  C1  UNK     1      17.888   5.360  32.970  1.00  0.00    -0.031 A 
HETATM   17  C4  UNK     1      16.950   6.164  33.612  1.00  0.00     0.049 A 
HETATM   18  C2  UNK     1      16.441   7.233  32.904  1.00  0.00     0.105 A 
HETATM   19  O1  UNK     1      15.519   8.126  33.358  1.00  0.00    -0.323 OA
HETATM   20  C3  UNK     1      16.839   7.503  31.614  1.00  0.00     0.105 A 
HETATM   21  C9  UNK     1      15.383   8.988  32.210  1.00  0.00     0.352 A 
HETATM   22  O2  UNK     1      16.216   8.599  31.101  1.00  0.00    -0.323 OA
HETATM   23  C7  UNK     1      17.768   6.719  30.962  1.00  0.00     0.040 A 
HETATM   24  C6  UNK     1      18.298   5.630  31.657  1.00  0.00     0.012 A 
ENDBRANCH  15  16
ENDBRANCH  14  15
ENDBRANCH   2  14
TORSDOF 4
ENDMDL
MODEL 8
REMARK VINA RESULT:      -8.9      1.567      2.589
REMARK  4 active torsions:
REMARK  status: ('A' for Active; 'I' for Inactive)
REMARK    1  A    between atoms: C13_19  and  O3_3 
REMARK    2  A    between atoms: C5_11  and  O3_3 
REMARK    3  A    between atoms: C1_7  and  C5_11 
REMARK    4  A    between atoms: C10_16  and  C13_19 
ROOT
HETATM    1  O5  UNK     1      18.100   3.501  28.720  1.00  0.00    -0.259 OA
HETATM    2  C13 UNK     1      18.754   3.483  29.749  1.00  0.00     0.299 C 
ENDROOT
BRANCH   2   3
HETATM    3  C10 UNK     1      18.733   2.368  30.702  1.00  0.00     0.115 A 
HETATM    4  C12 UNK     1      18.383   2.669  31.958  1.00  0.00     0.038 A 
HETATM    5  C8  UNK     1      18.334   1.630  32.975  1.00  0.00    -0.001 A 
HETATM    6  C11 UNK     1      18.656   0.324  32.619  1.00  0.00     0.089 A 
HETATM    7  C14 UNK     1      17.974   1.898  34.298  1.00  0.00     0.014 A 
HETATM    8  O4  UNK     1      19.024   0.013  31.295  1.00  0.00    -0.274 OA
HETATM    9  C16 UNK     1      18.629  -0.717  33.545  1.00  0.00     0.038 A 
HETATM   10  C15 UNK     1      19.080   0.985  30.301  1.00  0.00     0.304 A 
HETATM   11  O6  UNK     1      19.402   0.706  29.151  1.00  0.00    -0.259 OA
HETATM   12  C18 UNK     1      18.270  -0.440  34.862  1.00  0.00     0.003 A 
HETATM   13  C17 UNK     1      17.943   0.865  35.238  1.00  0.00     0.001 A 
ENDBRANCH   2   3
BRANCH   2  14
HETATM   14  O3  UNK     1      19.597   4.436  30.217  1.00  0.00    -0.313 OA
BRANCH  14  15
HETATM   15  C5  UNK     1      19.124   5.782  30.101  1.00  0.00     0.217 C 
BRANCH  15  16
HETATM   16  C1  UNK     1      18.850   6.326  31.473  1.00  0.00    -0.031 A 
HETATM   17  C4  UNK     1      17.597   6.861  31.760  1.00  0.00     0.049 A 
HETATM   18  C2  UNK     1      17.393   7.349  33.034  1.00  0.00     0.105 A 
HETATM   19  O1  UNK     1      16.244   7.909  33.501  1.00  0.00    -0.323 OA
HETATM   20  C3  UNK     1      18.382   7.311  33.991  1.00  0.00     0.105 A 
HETATM   21  C9  UNK     1      16.620   8.218  34.858  1.00  0.00     0.352 A 
HETATM   22  O2  UNK     1      17.975   7.842  35.176  1.00  0.00    -0.323 OA
HETATM   23  C7  UNK     1      19.629   6.784  33.726  1.00  0.00     0.040 A 
HETATM   24  C6  UNK     1      19.861   6.284  32.443  1.00  0.00     0.012 A 
ENDBRANCH  15  16
ENDBRANCH  14  15
ENDBRANCH   2  14
TORSDOF 4
ENDMDL
MODEL 9
REMARK VINA RESULT:      -8.9      4.685      9.487
REMARK  4 active torsions:
REMARK  status: ('A' for Active; 'I' for Inactive)
REMARK    1  A    between atoms: C13_19  and  O3_3 
REMARK    2  A    between atoms: C5_11  and  O3_3 
REMARK    3  A    between atoms: C1_7  and  C5_11 
REMARK    4  A    between atoms: C10_16  and  C13_19 
ROOT
HETATM    1  O5  UNK     1      17.519  -1.320  35.880  1.00  0.00    -0.259 OA
HETATM    2  C13 UNK     1      18.565  -1.441  35.265  1.00  0.00     0.299 C 
ENDROOT
BRANCH   2   3
HETATM    3  C10 UNK     1      18.792  -0.867  33.934  1.00  0.00     0.115 A 
HETATM    4  C12 UNK     1      19.362  -1.673  33.031  1.00  0.00     0.038 A 
HETATM    5  C8  UNK     1      19.629  -1.194  31.684  1.00  0.00    -0.001 A 
HETATM    6  C11 UNK     1      19.280   0.111  31.353  1.00  0.00     0.089 A 
HETATM    7  C14 UNK     1      20.222  -2.000  30.709  1.00  0.00     0.014 A 
HETATM    8  O4  UNK     1      18.680   0.956  32.307  1.00  0.00    -0.274 OA
HETATM    9  C16 UNK     1      19.508   0.632  30.080  1.00  0.00     0.038 A 
HETATM   10  C15 UNK     1      18.413   0.526  33.604  1.00  0.00     0.304 A 
HETATM   11  O6  UNK     1      17.890   1.268  34.429  1.00  0.00    -0.259 OA
HETATM   12  C18 UNK     1      20.100  -0.179  29.115  1.00  0.00     0.003 A 
HETATM   13  C17 UNK     1      20.457  -1.492  29.429  1.00  0.00     0.001 A 
ENDBRANCH   2   3
BRANCH   2  14
HETATM   14  O3  UNK     1      19.688  -2.096  35.650  1.00  0.00    -0.313 OA
BRANCH  14  15
HETATM   15  C5  UNK     1      19.636  -2.684  36.954  1.00  0.00     0.217 C 
BRANCH  15  16
HETATM   16  C1  UNK     1      20.119  -4.103  36.872  1.00  0.00    -0.031 A 
HETATM   17  C4  UNK     1      19.766  -4.884  35.775  1.00  0.00     0.049 A 
HETATM   18  C2  UNK     1      20.235  -6.182  35.745  1.00  0.00     0.105 A 
HETATM   19  O1  UNK     1      19.997  -7.094  34.763  1.00  0.00    -0.323 OA
HETATM   20  C3  UNK     1      21.020  -6.692  36.753  1.00  0.00     0.105 A 
HETATM   21  C9  UNK     1      20.721  -8.235  35.266  1.00  0.00     0.352 A 
HETATM   22  O2  UNK     1      21.373  -7.987  36.528  1.00  0.00    -0.323 OA
HETATM   23  C7  UNK     1      21.381  -5.933  37.847  1.00  0.00     0.040 A 
HETATM   24  C6  UNK     1      20.919  -4.617  37.903  1.00  0.00     0.012 A 
ENDBRANCH  15  16
ENDBRANCH  14  15
ENDBRANCH   2  14
TORSDOF 4
ENDMDL
MODEL 10
REMARK VINA RESULT:      -8.9      1.855      8.131
REMARK  4 active torsions:
REMARK  status: ('A' for Active; 'I' for Inactive)
REMARK    1  A    between atoms: C13_19  and  O3_3 
REMARK    2  A    between atoms: C5_11  and  O3_3 
REMARK    3  A    between atoms: C1_7  and  C5_11 
REMARK    4  A    between atoms: C10_16  and  C13_19 
ROOT
HETATM    1  O5  UNK     1      20.583   5.805  30.346  1.00  0.00    -0.259 OA
HETATM    2  C13 UNK     1      19.430   5.643  30.708  1.00  0.00     0.299 C 
ENDROOT
BRANCH   2   3
HETATM    3  C10 UNK     1      18.775   6.478  31.722  1.00  0.00     0.115 A 
HETATM    4  C12 UNK     1      17.618   7.047  31.362  1.00  0.00     0.038 A 
HETATM    5  C8  UNK     1      16.894   7.892  32.299  1.00  0.00    -0.001 A 
HETATM    6  C11 UNK     1      17.424   8.096  33.569  1.00  0.00     0.089 A 
HETATM    7  C14 UNK     1      15.684   8.506  31.967  1.00  0.00     0.014 A 
HETATM    8  O4  UNK     1      18.642   7.494  33.942  1.00  0.00    -0.274 OA
HETATM    9  C16 UNK     1      16.781   8.894  34.513  1.00  0.00     0.038 A 
HETATM   10  C15 UNK     1      19.357   6.681  33.068  1.00  0.00     0.304 A 
HETATM   11  O6  UNK     1      20.417   6.162  33.400  1.00  0.00    -0.259 OA
HETATM   12  C18 UNK     1      15.575   9.503  34.173  1.00  0.00     0.003 A 
HETATM   13  C17 UNK     1      15.028   9.309  32.903  1.00  0.00     0.001 A 
ENDBRANCH   2   3
BRANCH   2  14
HETATM   14  O3  UNK     1      18.545   4.710  30.278  1.00  0.00    -0.313 OA
BRANCH  14  15
HETATM   15  C5  UNK     1      18.361   3.593  31.154  1.00  0.00     0.217 C 
BRANCH  15  16
HETATM   16  C1  UNK     1      18.715   2.332  30.421  1.00  0.00    -0.031 A 
HETATM   17  C4  UNK     1      19.505   1.373  31.050  1.00  0.00     0.049 A 
HETATM   18  C2  UNK     1      19.804   0.231  30.336  1.00  0.00     0.105 A 
HETATM   19  O1  UNK     1      20.559  -0.813  30.777  1.00  0.00    -0.323 OA
HETATM   20  C3  UNK     1      19.343   0.037  29.054  1.00  0.00     0.105 A 
HETATM   21  C9  UNK     1      20.521  -1.684  29.629  1.00  0.00     0.352 A 
HETATM   22  O2  UNK     1      19.752  -1.152  28.532  1.00  0.00    -0.323 OA
HETATM   23  C7  UNK     1      18.558   0.975  28.415  1.00  0.00     0.040 A 
HETATM   24  C6  UNK     1      18.243   2.141  29.115  1.00  0.00     0.012 A 
ENDBRANCH  15  16
ENDBRANCH  14  15
ENDBRANCH   2  14
TORSDOF 4
ENDMDL
