MODEL 1
REMARK VINA RESULT:      -9.4      0.000      0.000
REMARK  6 active torsions:
REMARK  status: ('A' for Active; 'I' for Inactive)
REMARK    1  A    between atoms: C1_7  and  O1_4 
REMARK    2  A    between atoms: C4_10  and  O1_4 
REMARK    3  A    between atoms: C3_9  and  O2_5 
REMARK    4  A    between atoms: C2_8  and  C9_15 
REMARK    5  A    between atoms: C4_10  and  C6_12 
REMARK    6  A    between atoms: C10_16  and  C11_17 
ROOT
HETATM    1  N1  UNK     1      21.991  -1.700  35.320  1.00  0.00    -0.191 NA
HETATM    2  C9  UNK     1      18.699  -2.469  36.004  1.00  0.00     0.036 C 
HETATM    3  C10 UNK     1      19.929  -3.011  36.211  1.00  0.00     0.055 C 
HETATM    4  C23 UNK     1      21.065  -2.278  35.714  1.00  0.00     0.100 C 
ENDROOT
BRANCH   3   5
HETATM    5  C11 UNK     1      20.153  -4.270  36.904  1.00  0.00    -0.014 A 
HETATM    6  C16 UNK     1      21.345  -4.483  37.596  1.00  0.00     0.036 A 
HETATM    7  C19 UNK     1      21.559  -5.690  38.261  1.00  0.00     0.034 A 
HETATM    8  C21 UNK     1      20.581  -6.684  38.235  1.00  0.00     0.024 A 
HETATM    9 Cl2  UNK     1      23.029  -5.954  39.117  1.00  0.00    -0.084 Cl
HETATM   10  C20 UNK     1      19.388  -6.470  37.542  1.00  0.00     0.003 A 
HETATM   11  C17 UNK     1      19.175  -5.264  36.877  1.00  0.00     0.013 A 
ENDBRANCH   3   5
BRANCH   2  12
HETATM   12  C2  UNK     1      18.428  -1.199  35.316  1.00  0.00    -0.015 A 
HETATM   13  C5  UNK     1      18.643  -1.162  33.943  1.00  0.00     0.052 A 
HETATM   14  C3  UNK     1      18.401   0.017  33.240  1.00  0.00     0.102 A 
HETATM   15  C1  UNK     1      17.946   1.151  33.913  1.00  0.00     0.103 A 
HETATM   16  C7  UNK     1      17.732   1.104  35.291  1.00  0.00     0.059 A 
HETATM   17  C8  UNK     1      17.974  -0.075  35.995  1.00  0.00     0.024 A 
HETATM   18 Br1  UNK     1      17.662  -0.070  37.869  1.00  0.00    -0.050 Br
BRANCH  14  19
HETATM   19  O2  UNK     1      18.615   0.051  31.894  1.00  0.00    -0.353 OA
HETATM   20  C22 UNK     1      19.657  -0.775  31.382  1.00  0.00     0.210 C 
ENDBRANCH  14  19
BRANCH  15  21
HETATM   21  O1  UNK     1      17.707   2.308  33.237  1.00  0.00    -0.344 OA
BRANCH  21  22
HETATM   22  C4  UNK     1      18.371   3.481  33.702  1.00  0.00     0.216 C 
BRANCH  22  23
HETATM   23  C6  UNK     1      18.723   4.345  32.527  1.00  0.00    -0.012 A 
HETATM   24  C12 UNK     1      19.156   5.657  32.695  1.00  0.00     0.042 A 
HETATM   25  C14 UNK     1      19.475   6.429  31.577  1.00  0.00     0.024 A 
HETATM   26 Cl1  UNK     1      19.313   6.362  34.262  1.00  0.00    -0.084 Cl
HETATM   27  C18 UNK     1      19.358   5.887  30.298  1.00  0.00     0.002 A 
HETATM   28  C15 UNK     1      18.924   4.572  30.135  1.00  0.00     0.001 A 
HETATM   29  C13 UNK     1      18.606   3.799  31.251  1.00  0.00     0.011 A 
ENDBRANCH  22  23
ENDBRANCH  21  22
ENDBRANCH  15  21
ENDBRANCH   2  12
TORSDOF 6
ENDMDL
MODEL 2
REMARK VINA RESULT:      -9.0      1.186      1.524
REMARK  6 active torsions:
REMARK  status: ('A' for Active; 'I' for Inactive)
REMARK    1  A    between atoms: C1_7  and  O1_4 
REMARK    2  A    between atoms: C4_10  and  O1_4 
REMARK    3  A    between atoms: C3_9  and  O2_5 
REMARK    4  A    between atoms: C2_8  and  C9_15 
REMARK    5  A    between atoms: C4_10  and  C6_12 
REMARK    6  A    between atoms: C10_16  and  C11_17 
ROOT
HETATM    1  N1  UNK     1      21.900  -1.683  35.339  1.00  0.00    -0.191 NA
HETATM    2  C9  UNK     1      18.566  -2.306  35.968  1.00  0.00     0.036 C 
HETATM    3  C10 UNK     1      19.764  -2.924  36.152  1.00  0.00     0.055 C 
HETATM    4  C23 UNK     1      20.941  -2.230  35.698  1.00  0.00     0.100 C 
ENDROOT
BRANCH   3   5
HETATM    5  C11 UNK     1      19.914  -4.227  36.779  1.00  0.00    -0.014 A 
HETATM    6  C16 UNK     1      21.063  -4.519  37.514  1.00  0.00     0.036 A 
HETATM    7  C19 UNK     1      21.206  -5.769  38.117  1.00  0.00     0.034 A 
HETATM    8  C21 UNK     1      20.201  -6.727  37.985  1.00  0.00     0.024 A 
HETATM    9 Cl2  UNK     1      22.623  -6.131  39.025  1.00  0.00    -0.084 Cl
HETATM   10  C20 UNK     1      19.052  -6.434  37.250  1.00  0.00     0.003 A 
HETATM   11  C17 UNK     1      18.908  -5.185  36.647  1.00  0.00     0.013 A 
ENDBRANCH   3   5
BRANCH   2  12
HETATM   12  C2  UNK     1      18.369  -0.989  35.345  1.00  0.00    -0.015 A 
HETATM   13  C5  UNK     1      18.543  -0.905  33.968  1.00  0.00     0.052 A 
HETATM   14  C3  UNK     1      18.368   0.319  33.326  1.00  0.00     0.102 A 
HETATM   15  C1  UNK     1      18.021   1.451  34.063  1.00  0.00     0.103 A 
HETATM   16  C7  UNK     1      17.848   1.357  35.444  1.00  0.00     0.059 A 
HETATM   17  C8  UNK     1      18.023   0.132  36.088  1.00  0.00     0.024 A 
HETATM   18 Br1  UNK     1      17.771   0.075  37.970  1.00  0.00    -0.050 Br
BRANCH  14  19
HETATM   19  O2  UNK     1      18.541   0.399  31.977  1.00  0.00    -0.353 OA
HETATM   20  C22 UNK     1      19.621  -0.342  31.416  1.00  0.00     0.210 C 
ENDBRANCH  14  19
BRANCH  15  21
HETATM   21  O1  UNK     1      17.847   2.653  33.447  1.00  0.00    -0.344 OA
BRANCH  21  22
HETATM   22  C4  UNK     1      18.622   3.748  33.930  1.00  0.00     0.216 C 
BRANCH  22  23
HETATM   23  C6  UNK     1      18.197   5.000  33.220  1.00  0.00    -0.012 A 
HETATM   24  C12 UNK     1      18.373   5.151  31.847  1.00  0.00     0.042 A 
HETATM   25  C14 UNK     1      17.964   6.330  31.223  1.00  0.00     0.024 A 
HETATM   26 Cl1  UNK     1      19.088   3.908  30.887  1.00  0.00    -0.084 Cl
HETATM   27  C18 UNK     1      17.383   7.352  31.972  1.00  0.00     0.002 A 
HETATM   28  C15 UNK     1      17.208   7.196  33.347  1.00  0.00     0.001 A 
HETATM   29  C13 UNK     1      17.616   6.018  33.973  1.00  0.00     0.011 A 
ENDBRANCH  22  23
ENDBRANCH  21  22
ENDBRANCH  15  21
ENDBRANCH   2  12
TORSDOF 6
ENDMDL
MODEL 3
REMARK VINA RESULT:      -8.8     12.097     13.994
REMARK  6 active torsions:
REMARK  status: ('A' for Active; 'I' for Inactive)
REMARK    1  A    between atoms: C1_7  and  O1_4 
REMARK    2  A    between atoms: C4_10  and  O1_4 
REMARK    3  A    between atoms: C3_9  and  O2_5 
REMARK    4  A    between atoms: C2_8  and  C9_15 
REMARK    5  A    between atoms: C4_10  and  C6_12 
REMARK    6  A    between atoms: C10_16  and  C11_17 
ROOT
HETATM    1  N1  UNK     1      27.337 -10.465  39.720  1.00  0.00    -0.191 NA
HETATM    2  C9  UNK     1      27.434  -8.875  36.662  1.00  0.00     0.036 C 
HETATM    3  C10 UNK     1      26.634  -9.756  37.319  1.00  0.00     0.055 C 
HETATM    4  C23 UNK     1      27.031 -10.143  38.648  1.00  0.00     0.100 C 
ENDROOT
BRANCH   3   5
HETATM    5  C11 UNK     1      25.414 -10.315  36.759  1.00  0.00    -0.014 A 
HETATM    6  C16 UNK     1      24.259  -9.535  36.687  1.00  0.00     0.036 A 
HETATM    7  C19 UNK     1      23.089 -10.071  36.148  1.00  0.00     0.034 A 
HETATM    8  C21 UNK     1      23.074 -11.386  35.682  1.00  0.00     0.024 A 
HETATM    9 Cl2  UNK     1      21.663  -9.111  36.058  1.00  0.00    -0.084 Cl
HETATM   10  C20 UNK     1      24.229 -12.165  35.755  1.00  0.00     0.003 A 
HETATM   11  C17 UNK     1      25.398 -11.630  36.293  1.00  0.00     0.013 A 
ENDBRANCH   3   5
BRANCH   2  12
HETATM   12  C2  UNK     1      28.671  -8.281  37.191  1.00  0.00    -0.015 A 
HETATM   13  C5  UNK     1      29.869  -8.892  36.838  1.00  0.00     0.052 A 
HETATM   14  C3  UNK     1      31.072  -8.370  37.312  1.00  0.00     0.102 A 
HETATM   15  C1  UNK     1      31.069  -7.244  38.133  1.00  0.00     0.103 A 
HETATM   16  C7  UNK     1      29.862  -6.638  38.482  1.00  0.00     0.059 A 
HETATM   17  C8  UNK     1      28.658  -7.159  38.009  1.00  0.00     0.024 A 
HETATM   18 Br1  UNK     1      27.050  -6.285  38.521  1.00  0.00    -0.050 Br
BRANCH  14  19
HETATM   19  O2  UNK     1      32.245  -8.971  36.965  1.00  0.00    -0.353 OA
HETATM   20  C22 UNK     1      32.455  -9.235  35.581  1.00  0.00     0.210 C 
ENDBRANCH  14  19
BRANCH  15  21
HETATM   21  O1  UNK     1      32.239  -6.726  38.602  1.00  0.00    -0.344 OA
BRANCH  21  22
HETATM   22  C4  UNK     1      32.486  -5.345  38.343  1.00  0.00     0.216 C 
BRANCH  22  23
HETATM   23  C6  UNK     1      33.323  -5.222  37.104  1.00  0.00    -0.012 A 
HETATM   24  C12 UNK     1      33.106  -4.202  36.181  1.00  0.00     0.042 A 
HETATM   25  C14 UNK     1      33.906  -4.119  35.041  1.00  0.00     0.024 A 
HETATM   26 Cl1  UNK     1      31.865  -3.026  36.411  1.00  0.00    -0.084 Cl
HETATM   27  C18 UNK     1      34.917  -5.054  34.827  1.00  0.00     0.002 A 
HETATM   28  C15 UNK     1      35.131  -6.074  35.755  1.00  0.00     0.001 A 
HETATM   29  C13 UNK     1      34.332  -6.158  36.896  1.00  0.00     0.011 A 
ENDBRANCH  22  23
ENDBRANCH  21  22
ENDBRANCH  15  21
ENDBRANCH   2  12
TORSDOF 6
ENDMDL
MODEL 4
REMARK VINA RESULT:      -8.4     26.331     28.728
REMARK  6 active torsions:
REMARK  status: ('A' for Active; 'I' for Inactive)
REMARK    1  A    between atoms: C1_7  and  O1_4 
REMARK    2  A    between atoms: C4_10  and  O1_4 
REMARK    3  A    between atoms: C3_9  and  O2_5 
REMARK    4  A    between atoms: C2_8  and  C9_15 
REMARK    5  A    between atoms: C4_10  and  C6_12 
REMARK    6  A    between atoms: C10_16  and  C11_17 
ROOT
HETATM    1  N1  UNK     1      16.567  12.378  11.466  1.00  0.00    -0.191 NA
HETATM    2  C9  UNK     1      17.847  10.138   9.178  1.00  0.00     0.036 C 
HETATM    3  C10 UNK     1      18.269  11.229   9.871  1.00  0.00     0.055 C 
HETATM    4  C23 UNK     1      17.320  11.859  10.752  1.00  0.00     0.100 C 
ENDROOT
BRANCH   3   5
HETATM    5  C11 UNK     1      19.612  11.781   9.774  1.00  0.00    -0.014 A 
HETATM    6  C16 UNK     1      20.092  12.233   8.545  1.00  0.00     0.036 A 
HETATM    7  C19 UNK     1      21.379  12.764   8.453  1.00  0.00     0.034 A 
HETATM    8  C21 UNK     1      22.185  12.841   9.588  1.00  0.00     0.024 A 
HETATM    9 Cl2  UNK     1      21.974  13.324   6.938  1.00  0.00    -0.084 Cl
HETATM   10  C20 UNK     1      21.704  12.387  10.817  1.00  0.00     0.003 A 
HETATM   11  C17 UNK     1      20.418  11.858  10.909  1.00  0.00     0.013 A 
ENDBRANCH   3   5
BRANCH   2  12
HETATM   12  C2  UNK     1      16.504   9.545   9.250  1.00  0.00    -0.015 A 
HETATM   13  C5  UNK     1      16.355   8.407  10.035  1.00  0.00     0.052 A 
HETATM   14  C3  UNK     1      15.103   7.803  10.139  1.00  0.00     0.102 A 
HETATM   15  C1  UNK     1      14.010   8.339   9.459  1.00  0.00     0.103 A 
HETATM   16  C7  UNK     1      14.169   9.481   8.674  1.00  0.00     0.059 A 
HETATM   17  C8  UNK     1      15.422  10.086   8.569  1.00  0.00     0.024 A 
HETATM   18 Br1  UNK     1      15.569  11.639   7.484  1.00  0.00    -0.050 Br
BRANCH  14  19
HETATM   19  O2  UNK     1      14.959   6.687  10.908  1.00  0.00    -0.353 OA
HETATM   20  C22 UNK     1      15.187   5.430  10.277  1.00  0.00     0.210 C 
ENDBRANCH  14  19
BRANCH  15  21
HETATM   21  O1  UNK     1      12.782   7.758   9.553  1.00  0.00    -0.344 OA
BRANCH  21  22
HETATM   22  C4  UNK     1      11.677   8.485   9.021  1.00  0.00     0.216 C 
BRANCH  22  23
HETATM   23  C6  UNK     1      10.944   7.617   8.041  1.00  0.00    -0.012 A 
HETATM   24  C12 UNK     1       9.593   7.322   8.202  1.00  0.00     0.042 A 
HETATM   25  C14 UNK     1       8.946   6.511   7.269  1.00  0.00     0.024 A 
HETATM   26 Cl1  UNK     1       8.687   7.939   9.535  1.00  0.00    -0.084 Cl
HETATM   27  C18 UNK     1       9.651   5.999   6.181  1.00  0.00     0.002 A 
HETATM   28  C15 UNK     1      11.004   6.297   6.024  1.00  0.00     0.001 A 
HETATM   29  C13 UNK     1      11.652   7.108   6.956  1.00  0.00     0.011 A 
ENDBRANCH  22  23
ENDBRANCH  21  22
ENDBRANCH  15  21
ENDBRANCH   2  12
TORSDOF 6
ENDMDL
MODEL 5
REMARK VINA RESULT:      -8.3     26.620     28.571
REMARK  6 active torsions:
REMARK  status: ('A' for Active; 'I' for Inactive)
REMARK    1  A    between atoms: C1_7  and  O1_4 
REMARK    2  A    between atoms: C4_10  and  O1_4 
REMARK    3  A    between atoms: C3_9  and  O2_5 
REMARK    4  A    between atoms: C2_8  and  C9_15 
REMARK    5  A    between atoms: C4_10  and  C6_12 
REMARK    6  A    between atoms: C10_16  and  C11_17 
ROOT
HETATM    1  N1  UNK     1      15.874  11.710   7.361  1.00  0.00    -0.191 NA
HETATM    2  C9  UNK     1      17.144   9.913  10.017  1.00  0.00     0.036 C 
HETATM    3  C10 UNK     1      17.572  10.859   9.138  1.00  0.00     0.055 C 
HETATM    4  C23 UNK     1      16.625  11.324   8.158  1.00  0.00     0.100 C 
ENDROOT
BRANCH   3   5
HETATM    5  C11 UNK     1      18.913  11.420   9.142  1.00  0.00    -0.014 A 
HETATM    6  C16 UNK     1      19.610  11.553  10.343  1.00  0.00     0.036 A 
HETATM    7  C19 UNK     1      20.898  12.090  10.346  1.00  0.00     0.034 A 
HETATM    8  C21 UNK     1      21.488  12.493   9.148  1.00  0.00     0.024 A 
HETATM    9 Cl2  UNK     1      21.760  12.255  11.827  1.00  0.00    -0.084 Cl
HETATM   10  C20 UNK     1      20.791  12.359   7.947  1.00  0.00     0.003 A 
HETATM   11  C17 UNK     1      19.504  11.823   7.944  1.00  0.00     0.013 A 
ENDBRANCH   3   5
BRANCH   2  12
HETATM   12  C2  UNK     1      15.798   9.324  10.054  1.00  0.00    -0.015 A 
HETATM   13  C5  UNK     1      15.632   8.083   9.449  1.00  0.00     0.052 A 
HETATM   14  C3  UNK     1      14.376   7.478   9.455  1.00  0.00     0.102 A 
HETATM   15  C1  UNK     1      13.296   8.116  10.064  1.00  0.00     0.103 A 
HETATM   16  C7  UNK     1      13.473   9.361  10.669  1.00  0.00     0.059 A 
HETATM   17  C8  UNK     1      14.728   9.967  10.664  1.00  0.00     0.024 A 
HETATM   18 Br1  UNK     1      14.900  11.662  11.505  1.00  0.00    -0.050 Br
BRANCH  14  19
HETATM   19  O2  UNK     1      14.215   6.262   8.860  1.00  0.00    -0.353 OA
HETATM   20  C22 UNK     1      14.708   5.126   9.563  1.00  0.00     0.210 C 
ENDBRANCH  14  19
BRANCH  15  21
HETATM   21  O1  UNK     1      12.064   7.535  10.076  1.00  0.00    -0.344 OA
BRANCH  21  22
HETATM   22  C4  UNK     1      11.003   8.250   9.447  1.00  0.00     0.216 C 
BRANCH  22  23
HETATM   23  C6  UNK     1      10.507   7.458   8.273  1.00  0.00    -0.012 A 
HETATM   24  C12 UNK     1       9.232   6.899   8.262  1.00  0.00     0.042 A 
HETATM   25  C14 UNK     1       8.805   6.170   7.151  1.00  0.00     0.024 A 
HETATM   26 Cl1  UNK     1       8.154   7.085   9.597  1.00  0.00    -0.084 Cl
HETATM   27  C18 UNK     1       9.654   6.002   6.058  1.00  0.00     0.002 A 
HETATM   28  C15 UNK     1      10.930   6.565   6.073  1.00  0.00     0.001 A 
HETATM   29  C13 UNK     1      11.357   7.295   7.183  1.00  0.00     0.011 A 
ENDBRANCH  22  23
ENDBRANCH  21  22
ENDBRANCH  15  21
ENDBRANCH   2  12
TORSDOF 6
ENDMDL
MODEL 6
REMARK VINA RESULT:      -8.3      9.479     13.184
REMARK  6 active torsions:
REMARK  status: ('A' for Active; 'I' for Inactive)
REMARK    1  A    between atoms: C1_7  and  O1_4 
REMARK    2  A    between atoms: C4_10  and  O1_4 
REMARK    3  A    between atoms: C3_9  and  O2_5 
REMARK    4  A    between atoms: C2_8  and  C9_15 
REMARK    5  A    between atoms: C4_10  and  C6_12 
REMARK    6  A    between atoms: C10_16  and  C11_17 
ROOT
HETATM    1  N1  UNK     1      29.270  -6.278  34.820  1.00  0.00    -0.191 NA
HETATM    2  C9  UNK     1      30.201  -6.880  38.086  1.00  0.00     0.036 C 
HETATM    3  C10 UNK     1      30.795  -6.545  36.910  1.00  0.00     0.055 C 
HETATM    4  C23 UNK     1      29.943  -6.399  35.758  1.00  0.00     0.100 C 
ENDROOT
BRANCH   3   5
HETATM    5  C11 UNK     1      32.225  -6.324  36.759  1.00  0.00    -0.014 A 
HETATM    6  C16 UNK     1      32.692  -5.387  35.837  1.00  0.00     0.036 A 
HETATM    7  C19 UNK     1      34.063  -5.174  35.694  1.00  0.00     0.034 A 
HETATM    8  C21 UNK     1      34.967  -5.898  36.472  1.00  0.00     0.024 A 
HETATM    9 Cl2  UNK     1      34.642  -4.017  34.558  1.00  0.00    -0.084 Cl
HETATM   10  C20 UNK     1      34.498  -6.835  37.393  1.00  0.00     0.003 A 
HETATM   11  C17 UNK     1      33.129  -7.048  37.537  1.00  0.00     0.013 A 
ENDBRANCH   3   5
BRANCH   2  12
HETATM   12  C2  UNK     1      28.762  -7.106  38.285  1.00  0.00    -0.015 A 
HETATM   13  C5  UNK     1      28.280  -8.385  38.031  1.00  0.00     0.052 A 
HETATM   14  C3  UNK     1      26.924  -8.656  38.204  1.00  0.00     0.102 A 
HETATM   15  C1  UNK     1      26.059  -7.648  38.628  1.00  0.00     0.103 A 
HETATM   16  C7  UNK     1      26.552  -6.367  38.880  1.00  0.00     0.059 A 
HETATM   17  C8  UNK     1      27.909  -6.096  38.708  1.00  0.00     0.024 A 
HETATM   18 Br1  UNK     1      28.514  -4.331  39.069  1.00  0.00    -0.050 Br
BRANCH  14  19
HETATM   19  O2  UNK     1      26.453  -9.911  37.953  1.00  0.00    -0.353 OA
HETATM   20  C22 UNK     1      26.412 -10.328  36.591  1.00  0.00     0.210 C 
ENDBRANCH  14  19
BRANCH  15  21
HETATM   21  O1  UNK     1      24.731  -7.900  38.800  1.00  0.00    -0.344 OA
BRANCH  21  22
HETATM   22  C4  UNK     1      23.888  -6.783  39.070  1.00  0.00     0.216 C 
BRANCH  22  23
HETATM   23  C6  UNK     1      22.464  -7.251  39.149  1.00  0.00    -0.012 A 
HETATM   24  C12 UNK     1      21.417  -6.472  38.664  1.00  0.00     0.042 A 
HETATM   25  C14 UNK     1      20.106  -6.942  38.755  1.00  0.00     0.024 A 
HETATM   26 Cl1  UNK     1      21.698  -4.928  37.947  1.00  0.00    -0.084 Cl
HETATM   27  C18 UNK     1      19.848  -8.185  39.329  1.00  0.00     0.002 A 
HETATM   28  C15 UNK     1      20.901  -8.962  39.813  1.00  0.00     0.001 A 
HETATM   29  C13 UNK     1      22.212  -8.494  39.723  1.00  0.00     0.011 A 
ENDBRANCH  22  23
ENDBRANCH  21  22
ENDBRANCH  15  21
ENDBRANCH   2  12
TORSDOF 6
ENDMDL
MODEL 7
REMARK VINA RESULT:      -8.2     11.776     14.040
REMARK  6 active torsions:
REMARK  status: ('A' for Active; 'I' for Inactive)
REMARK    1  A    between atoms: C1_7  and  O1_4 
REMARK    2  A    between atoms: C4_10  and  O1_4 
REMARK    3  A    between atoms: C3_9  and  O2_5 
REMARK    4  A    between atoms: C2_8  and  C9_15 
REMARK    5  A    between atoms: C4_10  and  C6_12 
REMARK    6  A    between atoms: C10_16  and  C11_17 
ROOT
HETATM    1  N1  UNK     1      27.374 -10.215  39.579  1.00  0.00    -0.191 NA
HETATM    2  C9  UNK     1      27.399  -8.845  36.414  1.00  0.00     0.036 C 
HETATM    3  C10 UNK     1      26.621  -9.685  37.147  1.00  0.00     0.055 C 
HETATM    4  C23 UNK     1      27.046  -9.973  38.492  1.00  0.00     0.100 C 
ENDROOT
BRANCH   3   5
HETATM    5  C11 UNK     1      25.396 -10.294  36.651  1.00  0.00    -0.014 A 
HETATM    6  C16 UNK     1      24.215  -9.552  36.612  1.00  0.00     0.036 A 
HETATM    7  C19 UNK     1      23.042 -10.136  36.135  1.00  0.00     0.034 A 
HETATM    8  C21 UNK     1      23.048 -11.461  35.697  1.00  0.00     0.024 A 
HETATM    9 Cl2  UNK     1      21.583  -9.223  36.085  1.00  0.00    -0.084 Cl
HETATM   10  C20 UNK     1      24.230 -12.201  35.737  1.00  0.00     0.003 A 
HETATM   11  C17 UNK     1      25.403 -11.618  36.213  1.00  0.00     0.013 A 
ENDBRANCH   3   5
BRANCH   2  12
HETATM   12  C2  UNK     1      28.638  -8.204  36.876  1.00  0.00    -0.015 A 
HETATM   13  C5  UNK     1      28.511  -7.154  37.779  1.00  0.00     0.052 A 
HETATM   14  C3  UNK     1      29.654  -6.510  38.250  1.00  0.00     0.102 A 
HETATM   15  C1  UNK     1      30.915  -6.919  37.816  1.00  0.00     0.103 A 
HETATM   16  C7  UNK     1      31.032  -7.973  36.910  1.00  0.00     0.059 A 
HETATM   17  C8  UNK     1      29.889  -8.618  36.438  1.00  0.00     0.024 A 
HETATM   18 Br1  UNK     1      30.121 -10.046  35.206  1.00  0.00    -0.050 Br
BRANCH  14  19
HETATM   19  O2  UNK     1      29.527  -5.481  39.135  1.00  0.00    -0.353 OA
HETATM   20  C22 UNK     1      28.810  -4.332  38.693  1.00  0.00     0.210 C 
ENDBRANCH  14  19
BRANCH  15  21
HETATM   21  O1  UNK     1      32.039  -6.297  38.270  1.00  0.00    -0.344 OA
BRANCH  21  22
HETATM   22  C4  UNK     1      32.447  -5.115  37.586  1.00  0.00     0.216 C 
BRANCH  22  23
HETATM   23  C6  UNK     1      33.439  -5.483  36.521  1.00  0.00    -0.012 A 
HETATM   24  C12 UNK     1      33.086  -5.492  35.174  1.00  0.00     0.042 A 
HETATM   25  C14 UNK     1      34.036  -5.839  34.212  1.00  0.00     0.024 A 
HETATM   26 Cl1  UNK     1      31.492  -5.083  34.655  1.00  0.00    -0.084 Cl
HETATM   27  C18 UNK     1      35.332  -6.175  34.601  1.00  0.00     0.002 A 
HETATM   28  C15 UNK     1      35.681  -6.163  35.951  1.00  0.00     0.001 A 
HETATM   29  C13 UNK     1      34.732  -5.816  36.914  1.00  0.00     0.011 A 
ENDBRANCH  22  23
ENDBRANCH  21  22
ENDBRANCH  15  21
ENDBRANCH   2  12
TORSDOF 6
ENDMDL
MODEL 8
REMARK VINA RESULT:      -8.2      6.506      8.919
REMARK  6 active torsions:
REMARK  status: ('A' for Active; 'I' for Inactive)
REMARK    1  A    between atoms: C1_7  and  O1_4 
REMARK    2  A    between atoms: C4_10  and  O1_4 
REMARK    3  A    between atoms: C3_9  and  O2_5 
REMARK    4  A    between atoms: C2_8  and  C9_15 
REMARK    5  A    between atoms: C4_10  and  C6_12 
REMARK    6  A    between atoms: C10_16  and  C11_17 
ROOT
HETATM    1  N1  UNK     1      19.652   6.177  29.835  1.00  0.00    -0.191 NA
HETATM    2  C9  UNK     1      17.742   4.325  32.030  1.00  0.00     0.036 C 
HETATM    3  C10 UNK     1      18.482   4.117  30.908  1.00  0.00     0.055 C 
HETATM    4  C23 UNK     1      19.126   5.263  30.320  1.00  0.00     0.100 C 
ENDROOT
BRANCH   3   5
HETATM    5  C11 UNK     1      18.658   2.815  30.283  1.00  0.00    -0.014 A 
HETATM    6  C16 UNK     1      19.404   1.828  30.928  1.00  0.00     0.036 A 
HETATM    7  C19 UNK     1      19.571   0.579  30.329  1.00  0.00     0.034 A 
HETATM    8  C21 UNK     1      18.993   0.317  29.087  1.00  0.00     0.024 A 
HETATM    9 Cl2  UNK     1      20.491  -0.641  31.123  1.00  0.00    -0.084 Cl
HETATM   10  C20 UNK     1      18.247   1.305  28.444  1.00  0.00     0.003 A 
HETATM   11  C17 UNK     1      18.079   2.553  29.041  1.00  0.00     0.013 A 
ENDBRANCH   3   5
BRANCH   2  12
HETATM   12  C2  UNK     1      17.543   5.619  32.696  1.00  0.00    -0.015 A 
HETATM   13  C5  UNK     1      16.390   6.327  32.376  1.00  0.00     0.052 A 
HETATM   14  C3  UNK     1      16.150   7.561  32.980  1.00  0.00     0.102 A 
HETATM   15  C1  UNK     1      17.063   8.078  33.898  1.00  0.00     0.103 A 
HETATM   16  C7  UNK     1      18.217   7.361  34.213  1.00  0.00     0.059 A 
HETATM   17  C8  UNK     1      18.458   6.127  33.610  1.00  0.00     0.024 A 
HETATM   18 Br1  UNK     1      20.049   5.202  34.084  1.00  0.00    -0.050 Br
BRANCH  14  19
HETATM   19  O2  UNK     1      15.019   8.253  32.663  1.00  0.00    -0.353 OA
HETATM   20  C22 UNK     1      13.831   7.494  32.454  1.00  0.00     0.210 C 
ENDBRANCH  14  19
BRANCH  15  21
HETATM   21  O1  UNK     1      16.840   9.283  34.493  1.00  0.00    -0.344 OA
BRANCH  21  22
HETATM   22  C4  UNK     1      17.555  10.404  33.979  1.00  0.00     0.216 C 
BRANCH  22  23
HETATM   23  C6  UNK     1      16.850  11.664  34.387  1.00  0.00    -0.012 A 
HETATM   24  C12 UNK     1      17.341  12.918  34.032  1.00  0.00     0.042 A 
HETATM   25  C14 UNK     1      16.658  14.067  34.429  1.00  0.00     0.024 A 
HETATM   26 Cl1  UNK     1      18.786  13.090  33.104  1.00  0.00    -0.084 Cl
HETATM   27  C18 UNK     1      15.488  13.959  35.179  1.00  0.00     0.002 A 
HETATM   28  C15 UNK     1      14.999  12.701  35.532  1.00  0.00     0.001 A 
HETATM   29  C13 UNK     1      15.681  11.551  35.135  1.00  0.00     0.011 A 
ENDBRANCH  22  23
ENDBRANCH  21  22
ENDBRANCH  15  21
ENDBRANCH   2  12
TORSDOF 6
ENDMDL
MODEL 9
REMARK VINA RESULT:      -8.2      1.974      2.794
REMARK  6 active torsions:
REMARK  status: ('A' for Active; 'I' for Inactive)
REMARK    1  A    between atoms: C1_7  and  O1_4 
REMARK    2  A    between atoms: C4_10  and  O1_4 
REMARK    3  A    between atoms: C3_9  and  O2_5 
REMARK    4  A    between atoms: C2_8  and  C9_15 
REMARK    5  A    between atoms: C4_10  and  C6_12 
REMARK    6  A    between atoms: C10_16  and  C11_17 
ROOT
HETATM    1  N1  UNK     1      17.874  -5.615  36.140  1.00  0.00    -0.191 NA
HETATM    2  C9  UNK     1      20.583  -3.593  36.824  1.00  0.00     0.036 C 
HETATM    3  C10 UNK     1      20.148  -4.843  37.138  1.00  0.00     0.055 C 
HETATM    4  C23 UNK     1      18.888  -5.262  36.581  1.00  0.00     0.100 C 
ENDROOT
BRANCH   3   5
HETATM    5  C11 UNK     1      20.882  -5.766  37.989  1.00  0.00    -0.014 A 
HETATM    6  C16 UNK     1      20.278  -6.947  38.420  1.00  0.00     0.036 A 
HETATM    7  C19 UNK     1      20.984  -7.833  39.235  1.00  0.00     0.034 A 
HETATM    8  C21 UNK     1      22.292  -7.538  39.618  1.00  0.00     0.024 A 
HETATM    9 Cl2  UNK     1      20.241  -9.292  39.767  1.00  0.00    -0.084 Cl
HETATM   10  C20 UNK     1      22.895  -6.356  39.186  1.00  0.00     0.003 A 
HETATM   11  C17 UNK     1      22.191  -5.471  38.372  1.00  0.00     0.013 A 
ENDBRANCH   3   5
BRANCH   2  12
HETATM   12  C2  UNK     1      19.878  -2.632  35.965  1.00  0.00    -0.015 A 
HETATM   13  C5  UNK     1      20.204  -2.629  34.614  1.00  0.00     0.052 A 
HETATM   14  C3  UNK     1      19.566  -1.738  33.753  1.00  0.00     0.102 A 
HETATM   15  C1  UNK     1      18.606  -0.855  34.248  1.00  0.00     0.103 A 
HETATM   16  C7  UNK     1      18.285  -0.865  35.606  1.00  0.00     0.059 A 
HETATM   17  C8  UNK     1      18.923  -1.757  36.468  1.00  0.00     0.024 A 
HETATM   18 Br1  UNK     1      18.438  -1.718  38.305  1.00  0.00    -0.050 Br
BRANCH  14  19
HETATM   19  O2  UNK     1      19.889  -1.737  32.429  1.00  0.00    -0.353 OA
HETATM   20  C22 UNK     1      20.921  -2.627  32.013  1.00  0.00     0.210 C 
ENDBRANCH  14  19
BRANCH  15  21
HETATM   21  O1  UNK     1      17.976   0.020  33.417  1.00  0.00    -0.344 OA
BRANCH  21  22
HETATM   22  C4  UNK     1      18.289   1.403  33.572  1.00  0.00     0.216 C 
BRANCH  22  23
HETATM   23  C6  UNK     1      18.466   2.020  32.216  1.00  0.00    -0.012 A 
HETATM   24  C12 UNK     1      18.351   3.395  32.024  1.00  0.00     0.042 A 
HETATM   25  C14 UNK     1      18.523   3.932  30.748  1.00  0.00     0.024 A 
HETATM   26 Cl1  UNK     1      17.999   4.462  33.334  1.00  0.00    -0.084 Cl
HETATM   27  C18 UNK     1      18.808   3.095  29.671  1.00  0.00     0.002 A 
HETATM   28  C15 UNK     1      18.923   1.719  29.868  1.00  0.00     0.001 A 
HETATM   29  C13 UNK     1      18.752   1.180  31.143  1.00  0.00     0.011 A 
ENDBRANCH  22  23
ENDBRANCH  21  22
ENDBRANCH  15  21
ENDBRANCH   2  12
TORSDOF 6
ENDMDL
MODEL 10
REMARK VINA RESULT:      -8.1     26.815     28.479
REMARK  6 active torsions:
REMARK  status: ('A' for Active; 'I' for Inactive)
REMARK    1  A    between atoms: C1_7  and  O1_4 
REMARK    2  A    between atoms: C4_10  and  O1_4 
REMARK    3  A    between atoms: C3_9  and  O2_5 
REMARK    4  A    between atoms: C2_8  and  C9_15 
REMARK    5  A    between atoms: C4_10  and  C6_12 
REMARK    6  A    between atoms: C10_16  and  C11_17 
ROOT
HETATM    1  N1  UNK     1      15.400  11.039   7.643  1.00  0.00    -0.191 NA
HETATM    2  C9  UNK     1      16.649   9.646  10.540  1.00  0.00     0.036 C 
HETATM    3  C10 UNK     1      16.962  10.658   9.687  1.00  0.00     0.055 C 
HETATM    4  C23 UNK     1      16.092  10.861   8.558  1.00  0.00     0.100 C 
ENDROOT
BRANCH   3   5
HETATM    5  C11 UNK     1      18.108  11.536   9.858  1.00  0.00    -0.014 A 
HETATM    6  C16 UNK     1      19.170  11.480   8.955  1.00  0.00     0.036 A 
HETATM    7  C19 UNK     1      20.269  12.324   9.118  1.00  0.00     0.034 A 
HETATM    8  C21 UNK     1      20.306  13.223  10.185  1.00  0.00     0.024 A 
HETATM    9 Cl2  UNK     1      21.580  12.258   8.004  1.00  0.00    -0.084 Cl
HETATM   10  C20 UNK     1      19.244  13.278  11.087  1.00  0.00     0.003 A 
HETATM   11  C17 UNK     1      18.146  12.435  10.924  1.00  0.00     0.013 A 
ENDBRANCH   3   5
BRANCH   2  12
HETATM   12  C2  UNK     1      15.499   8.740  10.409  1.00  0.00    -0.015 A 
HETATM   13  C5  UNK     1      14.248   9.252  10.734  1.00  0.00     0.052 A 
HETATM   14  C3  UNK     1      13.123   8.436  10.627  1.00  0.00     0.102 A 
HETATM   15  C1  UNK     1      13.255   7.116  10.199  1.00  0.00     0.103 A 
HETATM   16  C7  UNK     1      14.514   6.611   9.875  1.00  0.00     0.059 A 
HETATM   17  C8  UNK     1      15.641   7.426   9.981  1.00  0.00     0.024 A 
HETATM   18 Br1  UNK     1      17.326   6.676   9.524  1.00  0.00    -0.050 Br
BRANCH  14  19
HETATM   19  O2  UNK     1      11.897   8.940  10.947  1.00  0.00    -0.353 OA
HETATM   20  C22 UNK     1      11.139   9.522   9.890  1.00  0.00     0.210 C 
ENDBRANCH  14  19
BRANCH  15  21
HETATM   21  O1  UNK     1      12.162   6.310  10.091  1.00  0.00    -0.344 OA
BRANCH  21  22
HETATM   22  C4  UNK     1      12.191   5.311   9.074  1.00  0.00     0.216 C 
BRANCH  22  23
HETATM   23  C6  UNK     1      11.268   5.717   7.962  1.00  0.00    -0.012 A 
HETATM   24  C12 UNK     1       9.885   5.700   8.125  1.00  0.00     0.042 A 
HETATM   25  C14 UNK     1       9.059   6.086   7.068  1.00  0.00     0.024 A 
HETATM   26 Cl1  UNK     1       9.157   5.212   9.611  1.00  0.00    -0.084 Cl
HETATM   27  C18 UNK     1       9.618   6.485   5.855  1.00  0.00     0.002 A 
HETATM   28  C15 UNK     1      11.004   6.501   5.697  1.00  0.00     0.001 A 
HETATM   29  C13 UNK     1      11.831   6.117   6.753  1.00  0.00     0.011 A 
ENDBRANCH  22  23
ENDBRANCH  21  22
ENDBRANCH  15  21
ENDBRANCH   2  12
TORSDOF 6
ENDMDL
