MODEL 1
REMARK VINA RESULT:      -9.9      0.000      0.000
REMARK  5 active torsions:
REMARK  status: ('A' for Active; 'I' for Inactive)
REMARK    1  A    between atoms: C5_16  and  S1_1 
REMARK    2  A    between atoms: N1_9  and  S1_1 
REMARK    3  A    between atoms: C10_21  and  N2_10 
REMARK       I    between atoms: C11_22  and  N2_10 
REMARK    4  A    between atoms: C19_30  and  N3_11 
REMARK    5  A    between atoms: C11_22  and  C12_23 
ROOT
HETATM    1  O4  UNK     1      17.546  -1.991  36.993  1.00  0.00    -0.267 OA
HETATM    2  N2  UNK     1      19.465  -2.720  35.839  1.00  0.00    -0.323 N 
HETATM    3  C11 UNK     1      18.398  -1.876  36.114  1.00  0.00     0.262 C 
HETATM    4  H13 UNK     1      20.099  -2.470  35.084  1.00  0.00     0.169 HD
ENDROOT
BRANCH   2   5
HETATM    5  C10 UNK     1      19.815  -3.916  36.514  1.00  0.00     0.035 A 
HETATM    6  C8  UNK     1      19.048  -5.052  36.320  1.00  0.00     0.031 A 
HETATM    7  C6  UNK     1      19.394  -6.228  36.985  1.00  0.00     0.027 A 
HETATM    8  C5  UNK     1      20.502  -6.251  37.833  1.00  0.00     0.074 A 
HETATM    9  C7  UNK     1      21.264  -5.097  38.015  1.00  0.00     0.027 A 
HETATM   10  C9  UNK     1      20.918  -3.920  37.351  1.00  0.00     0.031 A 
BRANCH   8  11
HETATM   11  S1  UNK     1      20.934  -7.723  38.665  1.00  0.00     0.243 S 
HETATM   12  O1  UNK     1      22.268  -7.561  39.225  1.00  0.00    -0.206 OA
HETATM   13  O2  UNK     1      19.828  -8.107  39.533  1.00  0.00    -0.206 OA
BRANCH  11  14
HETATM   14  N1  UNK     1      21.012  -8.818  37.369  1.00  0.00    -0.206 NA
HETATM   15  C1  UNK     1      20.846 -10.266  37.673  1.00  0.00     0.107 C 
HETATM   16  C3  UNK     1      21.514 -10.967  36.502  1.00  0.00     0.017 C 
HETATM   17  C4  UNK     1      22.700 -10.065  36.217  1.00  0.00     0.017 C 
HETATM   18  C2  UNK     1      22.126  -8.666  36.386  1.00  0.00     0.107 C 
ENDBRANCH  11  14
ENDBRANCH   8  11
ENDBRANCH   2   5
BRANCH   3  19
HETATM   19  C12 UNK     1      18.352  -0.727  35.202  1.00  0.00     0.108 A 
HETATM   20  C14 UNK     1      18.719  -0.962  33.936  1.00  0.00     0.037 A 
HETATM   21  C13 UNK     1      18.706   0.114  32.957  1.00  0.00     0.001 A 
HETATM   22  C15 UNK     1      18.311   1.385  33.360  1.00  0.00     0.089 A 
HETATM   23  C16 UNK     1      19.079  -0.086  31.625  1.00  0.00     0.050 A 
HETATM   24  O3  UNK     1      17.927   1.627  34.693  1.00  0.00    -0.274 OA
HETATM   25  C18 UNK     1      18.278   2.460  32.471  1.00  0.00     0.041 A 
HETATM   26  C17 UNK     1      17.926   0.617  35.652  1.00  0.00     0.304 A 
HETATM   27  O5  UNK     1      17.592   0.837  36.810  1.00  0.00    -0.259 OA
HETATM   28  C20 UNK     1      18.651   2.251  31.146  1.00  0.00     0.039 A 
HETATM   29  C19 UNK     1      19.051   0.981  30.723  1.00  0.00     0.103 A 
BRANCH  29  30
HETATM   30  N3  UNK     1      19.432   0.774  29.371  1.00  0.00    -0.116 N 
HETATM   31  O6  UNK     1      18.713   1.246  28.458  1.00  0.00    -0.532 OA
HETATM   32  O7  UNK     1      20.477   0.125  29.127  1.00  0.00    -0.532 OA
ENDBRANCH  29  30
ENDBRANCH   3  19
TORSDOF 5
ENDMDL
MODEL 2
REMARK VINA RESULT:      -9.8      7.281     10.888
REMARK  5 active torsions:
REMARK  status: ('A' for Active; 'I' for Inactive)
REMARK    1  A    between atoms: C5_16  and  S1_1 
REMARK    2  A    between atoms: N1_9  and  S1_1 
REMARK    3  A    between atoms: C10_21  and  N2_10 
REMARK       I    between atoms: C11_22  and  N2_10 
REMARK    4  A    between atoms: C19_30  and  N3_11 
REMARK    5  A    between atoms: C11_22  and  C12_23 
ROOT
HETATM    1  O4  UNK     1      26.343  -9.083  39.437  1.00  0.00    -0.267 OA
HETATM    2  N2  UNK     1      24.956  -7.463  38.440  1.00  0.00    -0.323 N 
HETATM    3  C11 UNK     1      26.148  -7.982  38.927  1.00  0.00     0.262 C 
HETATM    4  H13 UNK     1      24.966  -6.535  38.024  1.00  0.00     0.169 HD
ENDROOT
BRANCH   2   5
HETATM    5  C10 UNK     1      23.685  -8.089  38.421  1.00  0.00     0.035 A 
HETATM    6  C8  UNK     1      23.250  -8.702  37.259  1.00  0.00     0.031 A 
HETATM    7  C6  UNK     1      21.999  -9.318  37.241  1.00  0.00     0.027 A 
HETATM    8  C5  UNK     1      21.202  -9.312  38.387  1.00  0.00     0.074 A 
HETATM    9  C7  UNK     1      21.656  -8.689  39.549  1.00  0.00     0.027 A 
HETATM   10  C9  UNK     1      22.908  -8.073  39.567  1.00  0.00     0.031 A 
BRANCH   8  11
HETATM   11  S1  UNK     1      19.636 -10.081  38.364  1.00  0.00     0.243 S 
HETATM   12  O1  UNK     1      19.666 -11.159  37.386  1.00  0.00    -0.206 OA
HETATM   13  O2  UNK     1      19.238 -10.363  39.737  1.00  0.00    -0.206 OA
BRANCH  11  14
HETATM   14  N1  UNK     1      18.664  -8.824  37.764  1.00  0.00    -0.206 NA
HETATM   15  C1  UNK     1      18.534  -8.693  36.286  1.00  0.00     0.107 C 
HETATM   16  C3  UNK     1      18.133  -7.241  36.080  1.00  0.00     0.017 C 
HETATM   17  C4  UNK     1      18.939  -6.527  37.148  1.00  0.00     0.017 C 
HETATM   18  C2  UNK     1      18.840  -7.461  38.346  1.00  0.00     0.107 C 
ENDBRANCH  11  14
ENDBRANCH   8  11
ENDBRANCH   2   5
BRANCH   3  19
HETATM   19  C12 UNK     1      27.264  -7.041  38.775  1.00  0.00     0.108 A 
HETATM   20  C14 UNK     1      28.468  -7.582  38.554  1.00  0.00     0.037 A 
HETATM   21  C13 UNK     1      29.635  -6.731  38.390  1.00  0.00     0.001 A 
HETATM   22  C15 UNK     1      29.478  -5.351  38.469  1.00  0.00     0.089 A 
HETATM   23  C16 UNK     1      30.911  -7.252  38.157  1.00  0.00     0.050 A 
HETATM   24  O3  UNK     1      28.209  -4.786  38.702  1.00  0.00    -0.274 OA
HETATM   25  C18 UNK     1      30.557  -4.479  38.321  1.00  0.00     0.041 A 
HETATM   26  C17 UNK     1      27.073  -5.576  38.861  1.00  0.00     0.304 A 
HETATM   27  O5  UNK     1      25.973  -5.075  39.065  1.00  0.00    -0.259 OA
HETATM   28  C20 UNK     1      31.825  -5.008  38.089  1.00  0.00     0.039 A 
HETATM   29  C19 UNK     1      32.002  -6.391  38.006  1.00  0.00     0.103 A 
BRANCH  29  30
HETATM   30  N3  UNK     1      33.296  -6.925  37.770  1.00  0.00    -0.116 N 
HETATM   31  O6  UNK     1      33.401  -8.091  37.320  1.00  0.00    -0.532 OA
HETATM   32  O7  UNK     1      34.301  -6.214  38.019  1.00  0.00    -0.532 OA
ENDBRANCH  29  30
ENDBRANCH   3  19
TORSDOF 5
ENDMDL
MODEL 3
REMARK VINA RESULT:      -9.8     17.363     21.085
REMARK  5 active torsions:
REMARK  status: ('A' for Active; 'I' for Inactive)
REMARK    1  A    between atoms: C5_16  and  S1_1 
REMARK    2  A    between atoms: N1_9  and  S1_1 
REMARK    3  A    between atoms: C10_21  and  N2_10 
REMARK       I    between atoms: C11_22  and  N2_10 
REMARK    4  A    between atoms: C19_30  and  N3_11 
REMARK    5  A    between atoms: C11_22  and  C12_23 
ROOT
HETATM    1  O4  UNK     1      17.856  -3.633  15.592  1.00  0.00    -0.267 OA
HETATM    2  N2  UNK     1      19.794  -3.380  14.279  1.00  0.00    -0.323 N 
HETATM    3  C11 UNK     1      18.788  -2.969  15.143  1.00  0.00     0.262 C 
HETATM    4  H13 UNK     1      20.511  -2.708  14.016  1.00  0.00     0.169 HD
ENDROOT
BRANCH   2   5
HETATM    5  C10 UNK     1      19.976  -4.666  13.715  1.00  0.00     0.035 A 
HETATM    6  C8  UNK     1      19.482  -4.926  12.448  1.00  0.00     0.031 A 
HETATM    7  C6  UNK     1      19.661  -6.193  11.894  1.00  0.00     0.027 A 
HETATM    8  C5  UNK     1      20.331  -7.182  12.615  1.00  0.00     0.074 A 
HETATM    9  C7  UNK     1      20.822  -6.903  13.891  1.00  0.00     0.027 A 
HETATM   10  C9  UNK     1      20.643  -5.636  14.445  1.00  0.00     0.031 A 
BRANCH   8  11
HETATM   11  S1  UNK     1      20.554  -8.768  11.922  1.00  0.00     0.243 S 
HETATM   12  O1  UNK     1      19.710  -9.709  12.644  1.00  0.00    -0.206 OA
HETATM   13  O2  UNK     1      20.442  -8.661  10.473  1.00  0.00    -0.206 OA
BRANCH  11  14
HETATM   14  N1  UNK     1      22.177  -9.071  12.321  1.00  0.00    -0.206 NA
HETATM   15  C1  UNK     1      23.227  -8.539  11.408  1.00  0.00     0.107 C 
HETATM   16  C3  UNK     1      24.435  -9.418  11.685  1.00  0.00     0.017 C 
HETATM   17  C4  UNK     1      23.803 -10.779  11.907  1.00  0.00     0.017 C 
HETATM   18  C2  UNK     1      22.556 -10.459  12.719  1.00  0.00     0.107 C 
ENDBRANCH  11  14
ENDBRANCH   8  11
ENDBRANCH   2   5
BRANCH   3  19
HETATM   19  C12 UNK     1      18.925  -1.557  15.521  1.00  0.00     0.108 A 
HETATM   20  C14 UNK     1      18.805  -1.280  16.824  1.00  0.00     0.037 A 
HETATM   21  C13 UNK     1      18.926   0.090  17.296  1.00  0.00     0.001 A 
HETATM   22  C15 UNK     1      19.166   1.102  16.372  1.00  0.00     0.089 A 
HETATM   23  C16 UNK     1      18.809   0.426  18.648  1.00  0.00     0.050 A 
HETATM   24  O3  UNK     1      19.292   0.805  15.001  1.00  0.00    -0.274 OA
HETATM   25  C18 UNK     1      19.292   2.436  16.759  1.00  0.00     0.041 A 
HETATM   26  C17 UNK     1      19.182  -0.498  14.520  1.00  0.00     0.304 A 
HETATM   27  O5  UNK     1      19.292  -0.747  13.325  1.00  0.00    -0.259 OA
HETATM   28  C20 UNK     1      19.174   2.761  18.108  1.00  0.00     0.039 A 
HETATM   29  C19 UNK     1      18.933   1.759  19.051  1.00  0.00     0.103 A 
BRANCH  29  30
HETATM   30  N3  UNK     1      18.812   2.096  20.425  1.00  0.00    -0.116 N 
HETATM   31  O6  UNK     1      19.836   2.450  21.057  1.00  0.00    -0.532 OA
HETATM   32  O7  UNK     1      17.683   2.031  20.969  1.00  0.00    -0.532 OA
ENDBRANCH  29  30
ENDBRANCH   3  19
TORSDOF 5
ENDMDL
MODEL 4
REMARK VINA RESULT:      -9.8      2.284      3.252
REMARK  5 active torsions:
REMARK  status: ('A' for Active; 'I' for Inactive)
REMARK    1  A    between atoms: C5_16  and  S1_1 
REMARK    2  A    between atoms: N1_9  and  S1_1 
REMARK    3  A    between atoms: C10_21  and  N2_10 
REMARK       I    between atoms: C11_22  and  N2_10 
REMARK    4  A    between atoms: C19_30  and  N3_11 
REMARK    5  A    between atoms: C11_22  and  C12_23 
ROOT
HETATM    1  O4  UNK     1      17.700  -1.326  36.065  1.00  0.00    -0.267 OA
HETATM    2  N2  UNK     1      19.647  -2.134  35.016  1.00  0.00    -0.323 N 
HETATM    3  C11 UNK     1      18.566  -1.282  35.193  1.00  0.00     0.262 C 
HETATM    4  H13 UNK     1      20.291  -1.946  34.251  1.00  0.00     0.169 HD
ENDROOT
BRANCH   2   5
HETATM    5  C10 UNK     1      20.001  -3.256  35.805  1.00  0.00     0.035 A 
HETATM    6  C8  UNK     1      20.544  -3.056  37.062  1.00  0.00     0.031 A 
HETATM    7  C6  UNK     1      20.892  -4.161  37.838  1.00  0.00     0.027 A 
HETATM    8  C5  UNK     1      20.691  -5.451  37.345  1.00  0.00     0.074 A 
HETATM    9  C7  UNK     1      20.142  -5.634  36.076  1.00  0.00     0.027 A 
HETATM   10  C9  UNK     1      19.794  -4.529  35.300  1.00  0.00     0.031 A 
BRANCH   8  11
HETATM   11  S1  UNK     1      21.127  -6.834  38.315  1.00  0.00     0.243 S 
HETATM   12  O1  UNK     1      22.573  -6.991  38.270  1.00  0.00    -0.206 OA
HETATM   13  O2  UNK     1      20.452  -6.730  39.602  1.00  0.00    -0.206 OA
BRANCH  11  14
HETATM   14  N1  UNK     1      20.411  -8.093  37.427  1.00  0.00    -0.206 NA
HETATM   15  C1  UNK     1      19.231  -8.778  38.023  1.00  0.00     0.107 C 
HETATM   16  C3  UNK     1      19.202 -10.130  37.328  1.00  0.00     0.017 C 
HETATM   17  C4  UNK     1      20.676 -10.461  37.200  1.00  0.00     0.017 C 
HETATM   18  C2  UNK     1      21.305  -9.126  36.826  1.00  0.00     0.107 C 
ENDBRANCH  11  14
ENDBRANCH   8  11
ENDBRANCH   2   5
BRANCH   3  19
HETATM   19  C12 UNK     1      18.522  -0.224  34.177  1.00  0.00     0.108 A 
HETATM   20  C14 UNK     1      18.371   1.026  34.630  1.00  0.00     0.037 A 
HETATM   21  C13 UNK     1      18.317   2.142  33.700  1.00  0.00     0.001 A 
HETATM   22  C15 UNK     1      18.423   1.887  32.336  1.00  0.00     0.089 A 
HETATM   23  C16 UNK     1      18.161   3.463  34.129  1.00  0.00     0.050 A 
HETATM   24  O3  UNK     1      18.582   0.570  31.864  1.00  0.00    -0.274 OA
HETATM   25  C18 UNK     1      18.378   2.912  31.392  1.00  0.00     0.041 A 
HETATM   26  C17 UNK     1      18.639  -0.518  32.731  1.00  0.00     0.304 A 
HETATM   27  O5  UNK     1      18.776  -1.662  32.311  1.00  0.00    -0.259 OA
HETATM   28  C20 UNK     1      18.222   4.226  31.828  1.00  0.00     0.039 A 
HETATM   29  C19 UNK     1      18.114   4.501  33.194  1.00  0.00     0.103 A 
BRANCH  29  30
HETATM   30  N3  UNK     1      17.955   5.842  33.633  1.00  0.00    -0.116 N 
HETATM   31  O6  UNK     1      16.835   6.393  33.512  1.00  0.00    -0.532 OA
HETATM   32  O7  UNK     1      18.940   6.439  34.131  1.00  0.00    -0.532 OA
ENDBRANCH  29  30
ENDBRANCH   3  19
TORSDOF 5
ENDMDL
MODEL 5
REMARK VINA RESULT:      -9.6      6.340     12.377
REMARK  5 active torsions:
REMARK  status: ('A' for Active; 'I' for Inactive)
REMARK    1  A    between atoms: C5_16  and  S1_1 
REMARK    2  A    between atoms: N1_9  and  S1_1 
REMARK    3  A    between atoms: C10_21  and  N2_10 
REMARK       I    between atoms: C11_22  and  N2_10 
REMARK    4  A    between atoms: C19_30  and  N3_11 
REMARK    5  A    between atoms: C11_22  and  C12_23 
ROOT
HETATM    1  O4  UNK     1      16.675   3.077  30.767  1.00  0.00    -0.267 OA
HETATM    2  N2  UNK     1      18.776   3.817  31.533  1.00  0.00    -0.323 N 
HETATM    3  C11 UNK     1      17.886   2.939  30.929  1.00  0.00     0.262 C 
HETATM    4  H13 UNK     1      19.759   3.562  31.568  1.00  0.00     0.169 HD
ENDROOT
BRANCH   2   5
HETATM    5  C10 UNK     1      18.487   5.081  32.104  1.00  0.00     0.035 A 
HETATM    6  C8  UNK     1      18.504   6.207  31.299  1.00  0.00     0.031 A 
HETATM    7  C6  UNK     1      18.220   7.451  31.863  1.00  0.00     0.027 A 
HETATM    8  C5  UNK     1      17.923   7.550  33.223  1.00  0.00     0.074 A 
HETATM    9  C7  UNK     1      17.910   6.404  34.018  1.00  0.00     0.027 A 
HETATM   10  C9  UNK     1      18.194   5.160  33.455  1.00  0.00     0.031 A 
BRANCH   8  11
HETATM   11  S1  UNK     1      17.568   9.106  33.928  1.00  0.00     0.243 S 
HETATM   12  O1  UNK     1      17.239   8.911  35.332  1.00  0.00    -0.206 OA
HETATM   13  O2  UNK     1      18.627  10.036  33.556  1.00  0.00    -0.206 OA
BRANCH  11  14
HETATM   14  N1  UNK     1      16.154   9.529  33.087  1.00  0.00    -0.206 NA
HETATM   15  C1  UNK     1      15.397  10.722  33.559  1.00  0.00     0.107 C 
HETATM   16  C3  UNK     1      13.990  10.497  33.031  1.00  0.00     0.017 C 
HETATM   17  C4  UNK     1      13.822   8.998  33.183  1.00  0.00     0.017 C 
HETATM   18  C2  UNK     1      15.178   8.447  32.764  1.00  0.00     0.107 C 
ENDBRANCH  11  14
ENDBRANCH   8  11
ENDBRANCH   2   5
BRANCH   3  19
HETATM   19  C12 UNK     1      18.551   1.722  30.449  1.00  0.00     0.108 A 
HETATM   20  C14 UNK     1      18.939   0.850  31.388  1.00  0.00     0.037 A 
HETATM   21  C13 UNK     1      19.606  -0.385  31.011  1.00  0.00     0.001 A 
HETATM   22  C15 UNK     1      19.834  -0.643  29.663  1.00  0.00     0.089 A 
HETATM   23  C16 UNK     1      20.028  -1.324  31.957  1.00  0.00     0.050 A 
HETATM   24  O3  UNK     1      19.424   0.277  28.679  1.00  0.00    -0.274 OA
HETATM   25  C18 UNK     1      20.469  -1.808  29.235  1.00  0.00     0.041 A 
HETATM   26  C17 UNK     1      18.781   1.468  29.009  1.00  0.00     0.304 A 
HETATM   27  O5  UNK     1      18.429   2.263  28.146  1.00  0.00    -0.259 OA
HETATM   28  C20 UNK     1      20.886  -2.738  30.184  1.00  0.00     0.039 A 
HETATM   29  C19 UNK     1      20.665  -2.497  31.543  1.00  0.00     0.103 A 
BRANCH  29  30
HETATM   30  N3  UNK     1      21.093  -3.448  32.507  1.00  0.00    -0.116 N 
HETATM   31  O6  UNK     1      20.873  -3.223  33.721  1.00  0.00    -0.532 OA
HETATM   32  O7  UNK     1      21.678  -4.487  32.117  1.00  0.00    -0.532 OA
ENDBRANCH  29  30
ENDBRANCH   3  19
TORSDOF 5
ENDMDL
MODEL 6
REMARK VINA RESULT:      -9.6      1.591      2.055
REMARK  5 active torsions:
REMARK  status: ('A' for Active; 'I' for Inactive)
REMARK    1  A    between atoms: C5_16  and  S1_1 
REMARK    2  A    between atoms: N1_9  and  S1_1 
REMARK    3  A    between atoms: C10_21  and  N2_10 
REMARK       I    between atoms: C11_22  and  N2_10 
REMARK    4  A    between atoms: C19_30  and  N3_11 
REMARK    5  A    between atoms: C11_22  and  C12_23 
ROOT
HETATM    1  O4  UNK     1      21.384  -3.042  36.197  1.00  0.00    -0.267 OA
HETATM    2  N2  UNK     1      19.524  -4.300  35.487  1.00  0.00    -0.323 N 
HETATM    3  C11 UNK     1      20.361  -3.193  35.532  1.00  0.00     0.262 C 
HETATM    4  H13 UNK     1      18.722  -4.275  34.863  1.00  0.00     0.169 HD
ENDROOT
BRANCH   2   5
HETATM    5  C10 UNK     1      19.659  -5.514  36.204  1.00  0.00     0.035 A 
HETATM    6  C8  UNK     1      19.302  -6.704  35.593  1.00  0.00     0.031 A 
HETATM    7  C6  UNK     1      19.435  -7.899  36.299  1.00  0.00     0.027 A 
HETATM    8  C5  UNK     1      19.924  -7.886  37.606  1.00  0.00     0.074 A 
HETATM    9  C7  UNK     1      20.279  -6.678  38.206  1.00  0.00     0.027 A 
HETATM   10  C9  UNK     1      20.146  -5.483  37.500  1.00  0.00     0.031 A 
BRANCH   8  11
HETATM   11  S1  UNK     1      20.090  -9.382  38.491  1.00  0.00     0.243 S 
HETATM   12  O1  UNK     1      20.639  -9.081  39.805  1.00  0.00    -0.206 OA
HETATM   13  O2  UNK     1      18.842 -10.126  38.382  1.00  0.00    -0.206 OA
BRANCH  11  14
HETATM   14  N1  UNK     1      21.277 -10.174  37.569  1.00  0.00    -0.206 NA
HETATM   15  C1  UNK     1      22.462  -9.383  37.137  1.00  0.00     0.107 C 
HETATM   16  C3  UNK     1      22.989 -10.140  35.929  1.00  0.00     0.017 C 
HETATM   17  C4  UNK     1      21.713 -10.605  35.255  1.00  0.00     0.017 C 
HETATM   18  C2  UNK     1      20.829 -11.019  36.423  1.00  0.00     0.107 C 
ENDBRANCH  11  14
ENDBRANCH   8  11
ENDBRANCH   2   5
BRANCH   3  19
HETATM   19  C12 UNK     1      19.901  -2.116  34.647  1.00  0.00     0.108 A 
HETATM   20  C14 UNK     1      20.237  -2.227  33.356  1.00  0.00     0.037 A 
HETATM   21  C13 UNK     1      19.827  -1.210  32.402  1.00  0.00     0.001 A 
HETATM   22  C15 UNK     1      19.086  -0.123  32.854  1.00  0.00     0.089 A 
HETATM   23  C16 UNK     1      20.154  -1.286  31.045  1.00  0.00     0.050 A 
HETATM   24  O3  UNK     1      18.735  -0.010  34.213  1.00  0.00    -0.274 OA
HETATM   25  C18 UNK     1      18.663   0.887  31.990  1.00  0.00     0.041 A 
HETATM   26  C17 UNK     1      19.112  -0.970  35.150  1.00  0.00     0.304 A 
HETATM   27  O5  UNK     1      18.803  -0.862  36.331  1.00  0.00    -0.259 OA
HETATM   28  C20 UNK     1      18.993   0.803  30.640  1.00  0.00     0.039 A 
HETATM   29  C19 UNK     1      19.737  -0.281  30.167  1.00  0.00     0.103 A 
BRANCH  29  30
HETATM   30  N3  UNK     1      20.071  -0.361  28.790  1.00  0.00    -0.116 N 
HETATM   31  O6  UNK     1      21.226  -0.728  28.465  1.00  0.00    -0.532 OA
HETATM   32  O7  UNK     1      19.202  -0.063  27.935  1.00  0.00    -0.532 OA
ENDBRANCH  29  30
ENDBRANCH   3  19
TORSDOF 5
ENDMDL
MODEL 7
REMARK VINA RESULT:      -9.5      6.657     12.486
REMARK  5 active torsions:
REMARK  status: ('A' for Active; 'I' for Inactive)
REMARK    1  A    between atoms: C5_16  and  S1_1 
REMARK    2  A    between atoms: N1_9  and  S1_1 
REMARK    3  A    between atoms: C10_21  and  N2_10 
REMARK       I    between atoms: C11_22  and  N2_10 
REMARK    4  A    between atoms: C19_30  and  N3_11 
REMARK    5  A    between atoms: C11_22  and  C12_23 
ROOT
HETATM    1  O4  UNK     1      18.870   4.680  29.782  1.00  0.00    -0.267 OA
HETATM    2  N2  UNK     1      17.885   3.857  31.756  1.00  0.00    -0.323 N 
HETATM    3  C11 UNK     1      18.544   3.767  30.538  1.00  0.00     0.262 C 
HETATM    4  H13 UNK     1      17.706   3.001  32.275  1.00  0.00     0.169 HD
ENDROOT
BRANCH   2   5
HETATM    5  C10 UNK     1      17.435   5.031  32.410  1.00  0.00     0.035 A 
HETATM    6  C8  UNK     1      17.879   5.304  33.692  1.00  0.00     0.031 A 
HETATM    7  C6  UNK     1      17.436   6.460  34.335  1.00  0.00     0.027 A 
HETATM    8  C5  UNK     1      16.555   7.325  33.685  1.00  0.00     0.074 A 
HETATM    9  C7  UNK     1      16.118   7.034  32.392  1.00  0.00     0.027 A 
HETATM   10  C9  UNK     1      16.562   5.879  31.749  1.00  0.00     0.031 A 
BRANCH   8  11
HETATM   11  S1  UNK     1      15.999   8.771  34.489  1.00  0.00     0.243 S 
HETATM   12  O1  UNK     1      14.625   9.024  34.082  1.00  0.00    -0.206 OA
HETATM   13  O2  UNK     1      16.327   8.669  35.905  1.00  0.00    -0.206 OA
BRANCH  11  14
HETATM   14  N1  UNK     1      17.005   9.943  33.781  1.00  0.00    -0.206 NA
HETATM   15  C1  UNK     1      18.477   9.780  33.938  1.00  0.00     0.107 C 
HETATM   16  C3  UNK     1      19.026  11.183  33.737  1.00  0.00     0.017 C 
HETATM   17  C4  UNK     1      17.971  12.043  34.404  1.00  0.00     0.017 C 
HETATM   18  C2  UNK     1      16.664  11.381  33.990  1.00  0.00     0.107 C 
ENDBRANCH  11  14
ENDBRANCH   8  11
ENDBRANCH   2   5
BRANCH   3  19
HETATM   19  C12 UNK     1      18.856   2.378  30.180  1.00  0.00     0.108 A 
HETATM   20  C14 UNK     1      19.439   1.639  31.131  1.00  0.00     0.037 A 
HETATM   21  C13 UNK     1      19.787   0.251  30.871  1.00  0.00     0.001 A 
HETATM   22  C15 UNK     1      19.506  -0.290  29.621  1.00  0.00     0.089 A 
HETATM   23  C16 UNK     1      20.395  -0.558  31.835  1.00  0.00     0.050 A 
HETATM   24  O3  UNK     1      18.893   0.492  28.623  1.00  0.00    -0.274 OA
HETATM   25  C18 UNK     1      19.815  -1.614  29.308  1.00  0.00     0.041 A 
HETATM   26  C17 UNK     1      18.547   1.822  28.843  1.00  0.00     0.304 A 
HETATM   27  O5  UNK     1      18.015   2.496  27.968  1.00  0.00    -0.259 OA
HETATM   28  C20 UNK     1      20.421  -2.413  30.274  1.00  0.00     0.039 A 
HETATM   29  C19 UNK     1      20.710  -1.887  31.536  1.00  0.00     0.103 A 
BRANCH  29  30
HETATM   30  N3  UNK     1      21.329  -2.705  32.517  1.00  0.00    -0.116 N 
HETATM   31  O6  UNK     1      21.334  -3.949  32.356  1.00  0.00    -0.532 OA
HETATM   32  O7  UNK     1      21.853  -2.161  33.519  1.00  0.00    -0.532 OA
ENDBRANCH  29  30
ENDBRANCH   3  19
TORSDOF 5
ENDMDL
MODEL 8
REMARK VINA RESULT:      -9.2     17.028     21.368
REMARK  5 active torsions:
REMARK  status: ('A' for Active; 'I' for Inactive)
REMARK    1  A    between atoms: C5_16  and  S1_1 
REMARK    2  A    between atoms: N1_9  and  S1_1 
REMARK    3  A    between atoms: C10_21  and  N2_10 
REMARK       I    between atoms: C11_22  and  N2_10 
REMARK    4  A    between atoms: C19_30  and  N3_11 
REMARK    5  A    between atoms: C11_22  and  C12_23 
ROOT
HETATM    1  O4  UNK     1      17.824  -3.431  15.387  1.00  0.00    -0.267 OA
HETATM    2  N2  UNK     1      19.926  -3.128  14.368  1.00  0.00    -0.323 N 
HETATM    3  C11 UNK     1      18.825  -2.764  15.132  1.00  0.00     0.262 C 
HETATM    4  H13 UNK     1      20.689  -2.463  14.271  1.00  0.00     0.169 HD
ENDROOT
BRANCH   2   5
HETATM    5  C10 UNK     1      20.146  -4.360  13.704  1.00  0.00     0.035 A 
HETATM    6  C8  UNK     1      20.247  -5.522  14.449  1.00  0.00     0.031 A 
HETATM    7  C6  UNK     1      20.464  -6.734  13.795  1.00  0.00     0.027 A 
HETATM    8  C5  UNK     1      20.576  -6.766  12.404  1.00  0.00     0.074 A 
HETATM    9  C7  UNK     1      20.472  -5.585  11.669  1.00  0.00     0.027 A 
HETATM   10  C9  UNK     1      20.255  -4.373  12.323  1.00  0.00     0.031 A 
BRANCH   8  11
HETATM   11  S1  UNK     1      20.849  -8.283  11.585  1.00  0.00     0.243 S 
HETATM   12  O1  UNK     1      21.880  -8.083  10.577  1.00  0.00    -0.206 OA
HETATM   13  O2  UNK     1      21.010  -9.328  12.587  1.00  0.00    -0.206 OA
BRANCH  11  14
HETATM   14  N1  UNK     1      19.356  -8.503  10.805  1.00  0.00    -0.206 NA
HETATM   15  C1  UNK     1      19.218  -7.990   9.414  1.00  0.00     0.107 C 
HETATM   16  C3  UNK     1      17.719  -7.814   9.234  1.00  0.00     0.017 C 
HETATM   17  C4  UNK     1      17.284  -7.322  10.601  1.00  0.00     0.017 C 
HETATM   18  C2  UNK     1      18.112  -8.167  11.559  1.00  0.00     0.107 C 
ENDBRANCH  11  14
ENDBRANCH   8  11
ENDBRANCH   2   5
BRANCH   3  19
HETATM   19  C12 UNK     1      18.949  -1.403  15.667  1.00  0.00     0.108 A 
HETATM   20  C14 UNK     1      18.911  -1.285  17.000  1.00  0.00     0.037 A 
HETATM   21  C13 UNK     1      19.026   0.023  17.624  1.00  0.00     0.001 A 
HETATM   22  C15 UNK     1      19.175   1.144  16.814  1.00  0.00     0.089 A 
HETATM   23  C16 UNK     1      18.992   0.192  19.011  1.00  0.00     0.050 A 
HETATM   24  O3  UNK     1      19.214   1.015  15.412  1.00  0.00    -0.274 OA
HETATM   25  C18 UNK     1      19.290   2.427  17.350  1.00  0.00     0.041 A 
HETATM   26  C17 UNK     1      19.108  -0.224  14.786  1.00  0.00     0.304 A 
HETATM   27  O5  UNK     1      19.142  -0.326  13.565  1.00  0.00    -0.259 OA
HETATM   28  C20 UNK     1      19.255   2.586  18.733  1.00  0.00     0.039 A 
HETATM   29  C19 UNK     1      19.107   1.472  19.563  1.00  0.00     0.103 A 
BRANCH  29  30
HETATM   30  N3  UNK     1      19.071   1.640  20.972  1.00  0.00    -0.116 N 
HETATM   31  O6  UNK     1      18.495   2.646  21.450  1.00  0.00    -0.532 OA
HETATM   32  O7  UNK     1      19.616   0.776  21.701  1.00  0.00    -0.532 OA
ENDBRANCH  29  30
ENDBRANCH   3  19
TORSDOF 5
ENDMDL
MODEL 9
REMARK VINA RESULT:      -9.1     27.874     29.600
REMARK  5 active torsions:
REMARK  status: ('A' for Active; 'I' for Inactive)
REMARK    1  A    between atoms: C5_16  and  S1_1 
REMARK    2  A    between atoms: N1_9  and  S1_1 
REMARK    3  A    between atoms: C10_21  and  N2_10 
REMARK       I    between atoms: C11_22  and  N2_10 
REMARK    4  A    between atoms: C19_30  and  N3_11 
REMARK    5  A    between atoms: C11_22  and  C12_23 
ROOT
HETATM    1  O4  UNK     1      16.867  11.583  10.922  1.00  0.00    -0.267 OA
HETATM    2  N2  UNK     1      17.627   9.921   9.437  1.00  0.00    -0.323 N 
HETATM    3  C11 UNK     1      17.705  11.102  10.161  1.00  0.00     0.262 C 
HETATM    4  H13 UNK     1      18.422   9.650   8.864  1.00  0.00     0.169 HD
ENDROOT
BRANCH   2   5
HETATM    5  C10 UNK     1      16.555   8.995   9.409  1.00  0.00     0.035 A 
HETATM    6  C8  UNK     1      16.742   7.727   9.931  1.00  0.00     0.031 A 
HETATM    7  C6  UNK     1      15.687   6.815   9.903  1.00  0.00     0.027 A 
HETATM    8  C5  UNK     1      14.459   7.187   9.354  1.00  0.00     0.074 A 
HETATM    9  C7  UNK     1      14.287   8.469   8.833  1.00  0.00     0.027 A 
HETATM   10  C9  UNK     1      15.343   9.381   8.861  1.00  0.00     0.031 A 
BRANCH   8  11
HETATM   11  S1  UNK     1      13.138   6.046   9.319  1.00  0.00     0.243 S 
HETATM   12  O1  UNK     1      13.638   4.779   8.806  1.00  0.00    -0.206 OA
HETATM   13  O2  UNK     1      12.456   6.087  10.605  1.00  0.00    -0.206 OA
BRANCH  11  14
HETATM   14  N1  UNK     1      12.131   6.753   8.147  1.00  0.00    -0.206 NA
HETATM   15  C1  UNK     1      10.660   6.703   8.376  1.00  0.00     0.107 C 
HETATM   16  C3  UNK     1      10.067   6.862   6.986  1.00  0.00     0.017 C 
HETATM   17  C4  UNK     1      11.040   6.080   6.126  1.00  0.00     0.017 C 
HETATM   18  C2  UNK     1      12.397   6.442   6.712  1.00  0.00     0.107 C 
ENDBRANCH  11  14
ENDBRANCH   8  11
ENDBRANCH   2   5
BRANCH   3  19
HETATM   19  C12 UNK     1      18.975  11.803   9.940  1.00  0.00     0.108 A 
HETATM   20  C14 UNK     1      19.902  11.665  10.895  1.00  0.00     0.037 A 
HETATM   21  C13 UNK     1      21.193  12.322  10.765  1.00  0.00     0.001 A 
HETATM   22  C15 UNK     1      21.444  13.094   9.636  1.00  0.00     0.089 A 
HETATM   23  C16 UNK     1      22.191  12.204  11.737  1.00  0.00     0.050 A 
HETATM   24  O3  UNK     1      20.466  13.237   8.633  1.00  0.00    -0.274 OA
HETATM   25  C18 UNK     1      22.661  13.751   9.451  1.00  0.00     0.041 A 
HETATM   26  C17 UNK     1      19.222  12.619   8.729  1.00  0.00     0.304 A 
HETATM   27  O5  UNK     1      18.375  12.750   7.852  1.00  0.00    -0.259 OA
HETATM   28  C20 UNK     1      23.649  13.628  10.425  1.00  0.00     0.039 A 
HETATM   29  C19 UNK     1      23.415  12.856  11.566  1.00  0.00     0.103 A 
BRANCH  29  30
HETATM   30  N3  UNK     1      24.425  12.735  12.556  1.00  0.00    -0.116 N 
HETATM   31  O6  UNK     1      24.307  11.854  13.441  1.00  0.00    -0.532 OA
HETATM   32  O7  UNK     1      25.410  13.512  12.517  1.00  0.00    -0.532 OA
ENDBRANCH  29  30
ENDBRANCH   3  19
TORSDOF 5
ENDMDL
MODEL 10
REMARK VINA RESULT:      -9.0      6.812     10.590
REMARK  5 active torsions:
REMARK  status: ('A' for Active; 'I' for Inactive)
REMARK    1  A    between atoms: C5_16  and  S1_1 
REMARK    2  A    between atoms: N1_9  and  S1_1 
REMARK    3  A    between atoms: C10_21  and  N2_10 
REMARK       I    between atoms: C11_22  and  N2_10 
REMARK    4  A    between atoms: C19_30  and  N3_11 
REMARK    5  A    between atoms: C11_22  and  C12_23 
ROOT
HETATM    1  O4  UNK     1      25.450  -5.489  38.800  1.00  0.00    -0.267 OA
HETATM    2  N2  UNK     1      25.491  -7.813  38.423  1.00  0.00    -0.323 N 
HETATM    3  C11 UNK     1      26.039  -6.552  38.611  1.00  0.00     0.262 C 
HETATM    4  H13 UNK     1      26.121  -8.602  38.300  1.00  0.00     0.169 HD
ENDROOT
BRANCH   2   5
HETATM    5  C10 UNK     1      24.118  -8.164  38.403  1.00  0.00     0.035 A 
HETATM    6  C8  UNK     1      23.345  -7.933  39.528  1.00  0.00     0.031 A 
HETATM    7  C6  UNK     1      21.994  -8.278  39.509  1.00  0.00     0.027 A 
HETATM    8  C5  UNK     1      21.437  -8.850  38.365  1.00  0.00     0.074 A 
HETATM    9  C7  UNK     1      22.231  -9.076  37.240  1.00  0.00     0.027 A 
HETATM   10  C9  UNK     1      23.582  -8.730  37.259  1.00  0.00     0.031 A 
BRANCH   8  11
HETATM   11  S1  UNK     1      19.746  -9.284  38.341  1.00  0.00     0.243 S 
HETATM   12  O1  UNK     1      19.594 -10.499  37.553  1.00  0.00    -0.206 OA
HETATM   13  O2  UNK     1      19.236  -9.238  39.705  1.00  0.00    -0.206 OA
BRANCH  11  14
HETATM   14  N1  UNK     1      19.089  -7.981  37.471  1.00  0.00    -0.206 NA
HETATM   15  C1  UNK     1      18.994  -8.114  35.991  1.00  0.00     0.107 C 
HETATM   16  C3  UNK     1      18.936  -6.678  35.496  1.00  0.00     0.017 C 
HETATM   17  C4  UNK     1      19.883  -5.969  36.445  1.00  0.00     0.017 C 
HETATM   18  C2  UNK     1      19.572  -6.606  37.793  1.00  0.00     0.107 C 
ENDBRANCH  11  14
ENDBRANCH   8  11
ENDBRANCH   2   5
BRANCH   3  19
HETATM   19  C12 UNK     1      27.506  -6.575  38.570  1.00  0.00     0.108 A 
HETATM   20  C14 UNK     1      28.096  -5.547  37.947  1.00  0.00     0.037 A 
HETATM   21  C13 UNK     1      29.545  -5.480  37.854  1.00  0.00     0.001 A 
HETATM   22  C15 UNK     1      30.304  -6.501  38.420  1.00  0.00     0.089 A 
HETATM   23  C16 UNK     1      30.204  -4.426  37.215  1.00  0.00     0.050 A 
HETATM   24  O3  UNK     1      29.678  -7.580  39.073  1.00  0.00    -0.274 OA
HETATM   25  C18 UNK     1      31.697  -6.497  38.365  1.00  0.00     0.041 A 
HETATM   26  C17 UNK     1      28.292  -7.670  39.180  1.00  0.00     0.304 A 
HETATM   27  O5  UNK     1      27.756  -8.614  39.749  1.00  0.00    -0.259 OA
HETATM   28  C20 UNK     1      32.345  -5.442  37.726  1.00  0.00     0.039 A 
HETATM   29  C19 UNK     1      31.600  -4.409  37.153  1.00  0.00     0.103 A 
BRANCH  29  30
HETATM   30  N3  UNK     1      32.265  -3.336  36.502  1.00  0.00    -0.116 N 
HETATM   31  O6  UNK     1      33.299  -3.577  35.833  1.00  0.00    -0.532 OA
HETATM   32  O7  UNK     1      31.800  -2.176  36.613  1.00  0.00    -0.532 OA
ENDBRANCH  29  30
ENDBRANCH   3  19
TORSDOF 5
ENDMDL
