MODEL 1
REMARK VINA RESULT:     -11.3      0.000      0.000
REMARK  6 active torsions:
REMARK  status: ('A' for Active; 'I' for Inactive)
REMARK    1  A    between atoms: C17_25  and  O1_3 
REMARK    2  A    between atoms: C16_24  and  N1_8 
REMARK       I    between atoms: C18_26  and  N1_8 
REMARK    3  A    between atoms: C1_9  and  C7_15 
REMARK    4  A    between atoms: C12_20  and  C13_21 
REMARK    5  A    between atoms: C14_22  and  C17_25 
REMARK    6  A    between atoms: C18_26  and  C19_27 
ROOT
HETATM    1  S1  UNK     1      18.068  -0.249  37.153  1.00  0.00    -0.082 SA
HETATM    2  C13 UNK     1      19.211  -2.492  36.641  1.00  0.00    -0.000 A 
HETATM    3  C14 UNK     1      19.441  -1.663  35.505  1.00  0.00     0.085 A 
HETATM    4  C15 UNK     1      18.476  -1.848  37.612  1.00  0.00     0.065 A 
HETATM    5  C16 UNK     1      18.874  -0.439  35.670  1.00  0.00     0.094 A 
ENDROOT
BRANCH   5   6
HETATM    6  N1  UNK     1      18.852   0.671  34.820  1.00  0.00    -0.316 N 
HETATM    7  C18 UNK     1      17.754   1.135  34.110  1.00  0.00     0.262 C 
HETATM    8  O4  UNK     1      16.611   0.682  34.080  1.00  0.00    -0.267 OA
HETATM    9  H17 UNK     1      19.745   1.146  34.728  1.00  0.00     0.169 HD
BRANCH   7  10
HETATM   10  C19 UNK     1      18.080   2.324  33.314  1.00  0.00     0.108 A 
HETATM   11  C21 UNK     1      18.081   3.491  33.967  1.00  0.00     0.037 A 
HETATM   12  C20 UNK     1      18.393   4.726  33.264  1.00  0.00     0.001 A 
HETATM   13  C22 UNK     1      18.689   4.669  31.905  1.00  0.00     0.089 A 
HETATM   14  C24 UNK     1      18.406   5.966  33.906  1.00  0.00     0.038 A 
HETATM   15  O3  UNK     1      18.687   3.438  31.223  1.00  0.00    -0.274 OA
HETATM   16  C25 UNK     1      18.995   5.815  31.173  1.00  0.00     0.040 A 
HETATM   17  C23 UNK     1      18.392   2.240  31.869  1.00  0.00     0.304 A 
HETATM   18  O5  UNK     1      18.391   1.173  31.267  1.00  0.00    -0.259 OA
HETATM   19  C28 UNK     1      19.006   7.048  31.821  1.00  0.00     0.026 A 
HETATM   20  C27 UNK     1      18.712   7.124  33.184  1.00  0.00     0.035 A 
HETATM   21 Cl1  UNK     1      18.727   8.652  33.980  1.00  0.00    -0.084 Cl
ENDBRANCH   7  10
ENDBRANCH   5   6
BRANCH   3  22
HETATM   22  C17 UNK     1      20.175  -2.043  34.323  1.00  0.00     0.296 C 
HETATM   23  O2  UNK     1      21.348  -2.459  34.316  1.00  0.00    -0.259 OA
BRANCH  22  24
HETATM   24  O1  UNK     1      19.425  -1.895  33.182  1.00  0.00    -0.322 OA
HETATM   25  C26 UNK     1      20.129  -1.838  31.937  1.00  0.00     0.213 C 
ENDBRANCH  22  24
ENDBRANCH   3  22
BRANCH   2  26
HETATM   26  C12 UNK     1      19.650  -3.848  36.844  1.00  0.00    -0.024 A 
HETATM   27  C10 UNK     1      20.867  -4.096  37.474  1.00  0.00     0.013 A 
HETATM   28  C8  UNK     1      21.293  -5.409  37.670  1.00  0.00     0.008 A 
HETATM   29  C7  UNK     1      20.501  -6.472  37.234  1.00  0.00    -0.054 A 
HETATM   30  C9  UNK     1      19.283  -6.220  36.603  1.00  0.00     0.008 A 
HETATM   31  C11 UNK     1      18.857  -4.907  36.407  1.00  0.00     0.013 A 
BRANCH  29  32
HETATM   32  C1  UNK     1      20.965  -7.902  37.446  1.00  0.00     0.018 C 
HETATM   33  C2  UNK     1      21.784  -8.421  36.250  1.00  0.00     0.009 C 
HETATM   34  C4  UNK     1      22.254  -9.856  36.477  1.00  0.00     0.001 C 
HETATM   35  C6  UNK     1      21.088 -10.787  36.796  1.00  0.00     0.000 C 
HETATM   36  C5  UNK     1      20.268 -10.279  37.978  1.00  0.00     0.001 C 
HETATM   37  C3  UNK     1      19.789  -8.845  37.758  1.00  0.00     0.009 C 
ENDBRANCH  29  32
ENDBRANCH   2  26
TORSDOF 6
ENDMDL
MODEL 2
REMARK VINA RESULT:     -10.5      7.365     10.787
REMARK  6 active torsions:
REMARK  status: ('A' for Active; 'I' for Inactive)
REMARK    1  A    between atoms: C17_25  and  O1_3 
REMARK    2  A    between atoms: C16_24  and  N1_8 
REMARK       I    between atoms: C18_26  and  N1_8 
REMARK    3  A    between atoms: C1_9  and  C7_15 
REMARK    4  A    between atoms: C12_20  and  C13_21 
REMARK    5  A    between atoms: C14_22  and  C17_25 
REMARK    6  A    between atoms: C18_26  and  C19_27 
ROOT
HETATM    1  S1  UNK     1      19.316   8.580  34.376  1.00  0.00    -0.082 SA
HETATM    2  C13 UNK     1      18.584   6.644  32.854  1.00  0.00    -0.000 A 
HETATM    3  C14 UNK     1      17.634   7.687  32.652  1.00  0.00     0.085 A 
HETATM    4  C15 UNK     1      19.552   6.997  33.768  1.00  0.00     0.065 A 
HETATM    5  C16 UNK     1      17.928   8.771  33.416  1.00  0.00     0.094 A 
ENDROOT
BRANCH   5   6
HETATM    6  N1  UNK     1      17.275  10.003  33.532  1.00  0.00    -0.316 N 
HETATM    7  C18 UNK     1      16.240  10.300  34.408  1.00  0.00     0.262 C 
HETATM    8  O4  UNK     1      15.701   9.568  35.236  1.00  0.00    -0.267 OA
HETATM    9  H17 UNK     1      17.606  10.715  32.887  1.00  0.00     0.169 HD
BRANCH   7  10
HETATM   10  C19 UNK     1      15.786  11.688  34.266  1.00  0.00     0.108 A 
HETATM   11  C21 UNK     1      14.561  11.860  33.756  1.00  0.00     0.037 A 
HETATM   12  C20 UNK     1      14.021  13.200  33.578  1.00  0.00     0.001 A 
HETATM   13  C22 UNK     1      14.801  14.292  33.947  1.00  0.00     0.089 A 
HETATM   14  C24 UNK     1      12.749  13.426  33.050  1.00  0.00     0.038 A 
HETATM   15  O3  UNK     1      16.089  14.105  34.483  1.00  0.00    -0.274 OA
HETATM   16  C25 UNK     1      14.344  15.601  33.800  1.00  0.00     0.040 A 
HETATM   17  C23 UNK     1      16.631  12.835  34.665  1.00  0.00     0.304 A 
HETATM   18  O5  UNK     1      17.754  12.682  35.133  1.00  0.00    -0.259 OA
HETATM   19  C28 UNK     1      13.073  15.818  33.273  1.00  0.00     0.026 A 
HETATM   20  C27 UNK     1      12.277  14.734  32.898  1.00  0.00     0.035 A 
HETATM   21 Cl1  UNK     1      10.706  15.008  32.246  1.00  0.00    -0.084 Cl
ENDBRANCH   7  10
ENDBRANCH   5   6
BRANCH   3  22
HETATM   22  C17 UNK     1      16.500   7.629  31.762  1.00  0.00     0.296 C 
HETATM   23  O2  UNK     1      16.376   8.303  30.723  1.00  0.00    -0.259 OA
BRANCH  22  24
HETATM   24  O1  UNK     1      15.554   6.733  32.192  1.00  0.00    -0.322 OA
HETATM   25  C26 UNK     1      14.215   7.215  32.347  1.00  0.00     0.213 C 
ENDBRANCH  22  24
ENDBRANCH   3  22
BRANCH   2  26
HETATM   26  C12 UNK     1      18.612   5.347  32.230  1.00  0.00    -0.024 A 
HETATM   27  C10 UNK     1      18.194   4.226  32.942  1.00  0.00     0.013 A 
HETATM   28  C8  UNK     1      18.222   2.969  32.338  1.00  0.00     0.008 A 
HETATM   29  C7  UNK     1      18.669   2.837  31.023  1.00  0.00    -0.054 A 
HETATM   30  C9  UNK     1      19.086   3.962  30.312  1.00  0.00     0.008 A 
HETATM   31  C11 UNK     1      19.058   5.219  30.916  1.00  0.00     0.013 A 
BRANCH  29  32
HETATM   32  C1  UNK     1      18.701   1.469  30.366  1.00  0.00     0.018 C 
HETATM   33  C2  UNK     1      19.910   0.638  30.831  1.00  0.00     0.009 C 
HETATM   34  C4  UNK     1      19.928  -0.739  30.171  1.00  0.00     0.001 C 
HETATM   35  C6  UNK     1      19.879  -0.635  28.650  1.00  0.00     0.000 C 
HETATM   36  C5  UNK     1      18.685   0.189  28.179  1.00  0.00     0.001 C 
HETATM   37  C3  UNK     1      18.661   1.570  28.830  1.00  0.00     0.009 C 
ENDBRANCH  29  32
ENDBRANCH   2  26
TORSDOF 6
ENDMDL
MODEL 3
REMARK VINA RESULT:     -10.2      3.885     11.453
REMARK  6 active torsions:
REMARK  status: ('A' for Active; 'I' for Inactive)
REMARK    1  A    between atoms: C17_25  and  O1_3 
REMARK    2  A    between atoms: C16_24  and  N1_8 
REMARK       I    between atoms: C18_26  and  N1_8 
REMARK    3  A    between atoms: C1_9  and  C7_15 
REMARK    4  A    between atoms: C12_20  and  C13_21 
REMARK    5  A    between atoms: C14_22  and  C17_25 
REMARK    6  A    between atoms: C18_26  and  C19_27 
ROOT
HETATM    1  S1  UNK     1      17.770  -1.711  37.839  1.00  0.00    -0.082 SA
HETATM    2  C13 UNK     1      18.353  -0.064  35.957  1.00  0.00    -0.000 A 
HETATM    3  C14 UNK     1      18.837  -1.336  35.533  1.00  0.00     0.085 A 
HETATM    4  C15 UNK     1      17.752  -0.126  37.195  1.00  0.00     0.065 A 
HETATM    5  C16 UNK     1      18.579  -2.292  36.463  1.00  0.00     0.094 A 
ENDROOT
BRANCH   5   6
HETATM    6  N1  UNK     1      18.872  -3.659  36.463  1.00  0.00    -0.316 N 
HETATM    7  C18 UNK     1      19.988  -4.257  37.031  1.00  0.00     0.262 C 
HETATM    8  O4  UNK     1      20.920  -3.726  37.633  1.00  0.00    -0.267 OA
HETATM    9  H17 UNK     1      18.189  -4.234  35.977  1.00  0.00     0.169 HD
BRANCH   7  10
HETATM   10  C19 UNK     1      19.982  -5.713  36.847  1.00  0.00     0.108 A 
HETATM   11  C21 UNK     1      19.784  -6.447  37.948  1.00  0.00     0.037 A 
HETATM   12  C20 UNK     1      19.761  -7.900  37.867  1.00  0.00     0.001 A 
HETATM   13  C22 UNK     1      19.947  -8.507  36.628  1.00  0.00     0.089 A 
HETATM   14  C24 UNK     1      19.557  -8.705  38.989  1.00  0.00     0.038 A 
HETATM   15  O3  UNK     1      20.155  -7.728  35.474  1.00  0.00    -0.274 OA
HETATM   16  C25 UNK     1      19.938  -9.893  36.482  1.00  0.00     0.040 A 
HETATM   17  C23 UNK     1      20.182  -6.337  35.520  1.00  0.00     0.304 A 
HETATM   18  O5  UNK     1      20.364  -5.668  34.510  1.00  0.00    -0.259 OA
HETATM   19  C28 UNK     1      19.734 -10.689  37.607  1.00  0.00     0.026 A 
HETATM   20  C27 UNK     1      19.544 -10.097  38.858  1.00  0.00     0.035 A 
HETATM   21 Cl1  UNK     1      19.293 -11.087  40.245  1.00  0.00    -0.084 Cl
ENDBRANCH   7  10
ENDBRANCH   5   6
BRANCH   3  22
HETATM   22  C17 UNK     1      19.513  -1.604  34.288  1.00  0.00     0.296 C 
HETATM   23  O2  UNK     1      20.691  -1.993  34.186  1.00  0.00    -0.259 OA
BRANCH  22  24
HETATM   24  O1  UNK     1      18.702  -1.380  33.202  1.00  0.00    -0.322 OA
HETATM   25  C26 UNK     1      19.318  -1.385  31.910  1.00  0.00     0.213 C 
ENDBRANCH  22  24
ENDBRANCH   3  22
BRANCH   2  26
HETATM   26  C12 UNK     1      18.436   1.189  35.251  1.00  0.00    -0.024 A 
HETATM   27  C10 UNK     1      17.800   1.334  34.021  1.00  0.00     0.013 A 
HETATM   28  C8  UNK     1      17.880   2.547  33.337  1.00  0.00     0.008 A 
HETATM   29  C7  UNK     1      18.597   3.611  33.885  1.00  0.00    -0.054 A 
HETATM   30  C9  UNK     1      19.233   3.461  35.118  1.00  0.00     0.008 A 
HETATM   31  C11 UNK     1      19.153   2.249  35.801  1.00  0.00     0.013 A 
BRANCH  29  32
HETATM   32  C1  UNK     1      18.686   4.930  33.140  1.00  0.00     0.018 C 
HETATM   33  C2  UNK     1      17.628   5.936  33.628  1.00  0.00     0.009 C 
HETATM   34  C4  UNK     1      17.732   7.263  32.879  1.00  0.00     0.001 C 
HETATM   35  C6  UNK     1      17.654   7.065  31.369  1.00  0.00     0.000 C 
HETATM   36  C5  UNK     1      18.697   6.067  30.875  1.00  0.00     0.001 C 
HETATM   37  C3  UNK     1      18.597   4.735  31.616  1.00  0.00     0.009 C 
ENDBRANCH  29  32
ENDBRANCH   2  26
TORSDOF 6
ENDMDL
MODEL 4
REMARK VINA RESULT:     -10.1      7.400     10.807
REMARK  6 active torsions:
REMARK  status: ('A' for Active; 'I' for Inactive)
REMARK    1  A    between atoms: C17_25  and  O1_3 
REMARK    2  A    between atoms: C16_24  and  N1_8 
REMARK       I    between atoms: C18_26  and  N1_8 
REMARK    3  A    between atoms: C1_9  and  C7_15 
REMARK    4  A    between atoms: C12_20  and  C13_21 
REMARK    5  A    between atoms: C14_22  and  C17_25 
REMARK    6  A    between atoms: C18_26  and  C19_27 
ROOT
HETATM    1  S1  UNK     1      19.331   8.717  34.372  1.00  0.00    -0.082 SA
HETATM    2  C13 UNK     1      18.572   6.769  32.879  1.00  0.00    -0.000 A 
HETATM    3  C14 UNK     1      17.601   7.798  32.709  1.00  0.00     0.085 A 
HETATM    4  C15 UNK     1      19.568   7.136  33.758  1.00  0.00     0.065 A 
HETATM    5  C16 UNK     1      17.907   8.887  33.461  1.00  0.00     0.094 A 
ENDROOT
BRANCH   5   6
HETATM    6  N1  UNK     1      17.242  10.110  33.599  1.00  0.00    -0.316 N 
HETATM    7  C18 UNK     1      16.247  10.400  34.522  1.00  0.00     0.262 C 
HETATM    8  O4  UNK     1      15.761   9.667  35.382  1.00  0.00    -0.267 OA
HETATM    9  H17 UNK     1      17.529  10.820  32.932  1.00  0.00     0.169 HD
BRANCH   7  10
HETATM   10  C19 UNK     1      15.764  11.779  34.391  1.00  0.00     0.108 A 
HETATM   11  C21 UNK     1      16.692  12.740  34.463  1.00  0.00     0.037 A 
HETATM   12  C20 UNK     1      16.311  14.140  34.344  1.00  0.00     0.001 A 
HETATM   13  C22 UNK     1      14.970  14.457  34.153  1.00  0.00     0.089 A 
HETATM   14  C24 UNK     1      17.246  15.175  34.413  1.00  0.00     0.038 A 
HETATM   15  O3  UNK     1      13.998  13.441  34.077  1.00  0.00    -0.274 OA
HETATM   16  C25 UNK     1      14.538  15.776  34.032  1.00  0.00     0.040 A 
HETATM   17  C23 UNK     1      14.332  12.094  34.188  1.00  0.00     0.304 A 
HETATM   18  O5  UNK     1      13.479  11.216  34.121  1.00  0.00    -0.259 OA
HETATM   19  C28 UNK     1      15.477  16.803  34.102  1.00  0.00     0.026 A 
HETATM   20  C27 UNK     1      16.828  16.503  34.293  1.00  0.00     0.035 A 
HETATM   21 Cl1  UNK     1      17.984  17.777  34.379  1.00  0.00    -0.084 Cl
ENDBRANCH   7  10
ENDBRANCH   5   6
BRANCH   3  22
HETATM   22  C17 UNK     1      16.438   7.723  31.859  1.00  0.00     0.296 C 
HETATM   23  O2  UNK     1      16.287   8.359  30.801  1.00  0.00    -0.259 OA
BRANCH  22  24
HETATM   24  O1  UNK     1      15.495   6.855  32.353  1.00  0.00    -0.322 OA
HETATM   25  C26 UNK     1      14.362   7.425  33.018  1.00  0.00     0.213 C 
ENDBRANCH  22  24
ENDBRANCH   3  22
BRANCH   2  26
HETATM   26  C12 UNK     1      18.597   5.471  32.256  1.00  0.00    -0.024 A 
HETATM   27  C10 UNK     1      18.155   4.354  32.962  1.00  0.00     0.013 A 
HETATM   28  C8  UNK     1      18.179   3.098  32.359  1.00  0.00     0.008 A 
HETATM   29  C7  UNK     1      18.646   2.959  31.051  1.00  0.00    -0.054 A 
HETATM   30  C9  UNK     1      19.088   4.080  30.347  1.00  0.00     0.008 A 
HETATM   31  C11 UNK     1      19.063   5.337  30.950  1.00  0.00     0.013 A 
BRANCH  29  32
HETATM   32  C1  UNK     1      18.674   1.591  30.395  1.00  0.00     0.018 C 
HETATM   33  C2  UNK     1      19.910   0.778  30.819  1.00  0.00     0.009 C 
HETATM   34  C4  UNK     1      19.924  -0.601  30.161  1.00  0.00     0.001 C 
HETATM   35  C6  UNK     1      19.821  -0.500  28.643  1.00  0.00     0.000 C 
HETATM   36  C5  UNK     1      18.600   0.307  28.211  1.00  0.00     0.001 C 
HETATM   37  C3  UNK     1      18.580   1.689  28.861  1.00  0.00     0.009 C 
ENDBRANCH  29  32
ENDBRANCH   2  26
TORSDOF 6
ENDMDL
MODEL 5
REMARK VINA RESULT:     -10.0      3.899     11.415
REMARK  6 active torsions:
REMARK  status: ('A' for Active; 'I' for Inactive)
REMARK    1  A    between atoms: C17_25  and  O1_3 
REMARK    2  A    between atoms: C16_24  and  N1_8 
REMARK       I    between atoms: C18_26  and  N1_8 
REMARK    3  A    between atoms: C1_9  and  C7_15 
REMARK    4  A    between atoms: C12_20  and  C13_21 
REMARK    5  A    between atoms: C14_22  and  C17_25 
REMARK    6  A    between atoms: C18_26  and  C19_27 
ROOT
HETATM    1  S1  UNK     1      17.900  -1.461  37.886  1.00  0.00    -0.082 SA
HETATM    2  C13 UNK     1      18.357   0.096  35.894  1.00  0.00    -0.000 A 
HETATM    3  C14 UNK     1      18.716  -1.214  35.463  1.00  0.00     0.085 A 
HETATM    4  C15 UNK     1      17.898   0.105  37.193  1.00  0.00     0.065 A 
HETATM    5  C16 UNK     1      18.511  -2.126  36.448  1.00  0.00     0.094 A 
ENDROOT
BRANCH   5   6
HETATM    6  N1  UNK     1      18.724  -3.509  36.462  1.00  0.00    -0.316 N 
HETATM    7  C18 UNK     1      19.812  -4.163  37.022  1.00  0.00     0.262 C 
HETATM    8  O4  UNK     1      20.782  -3.680  37.604  1.00  0.00    -0.267 OA
HETATM    9  H17 UNK     1      18.002  -4.048  35.994  1.00  0.00     0.169 HD
BRANCH   7  10
HETATM   10  C19 UNK     1      19.719  -5.618  36.858  1.00  0.00     0.108 A 
HETATM   11  C21 UNK     1      20.878  -6.275  36.730  1.00  0.00     0.037 A 
HETATM   12  C20 UNK     1      20.888  -7.721  36.562  1.00  0.00     0.001 A 
HETATM   13  C22 UNK     1      19.676  -8.403  36.539  1.00  0.00     0.089 A 
HETATM   14  C24 UNK     1      22.074  -8.446  36.425  1.00  0.00     0.038 A 
HETATM   15  O3  UNK     1      18.460  -7.706  36.675  1.00  0.00    -0.274 OA
HETATM   16  C25 UNK     1      19.616  -9.786  36.381  1.00  0.00     0.040 A 
HETATM   17  C23 UNK     1      18.418  -6.324  36.837  1.00  0.00     0.304 A 
HETATM   18  O5  UNK     1      17.354  -5.726  36.954  1.00  0.00    -0.259 OA
HETATM   19  C28 UNK     1      20.803 -10.503  36.245  1.00  0.00     0.026 A 
HETATM   20  C27 UNK     1      22.029  -9.834  36.266  1.00  0.00     0.035 A 
HETATM   21 Cl1  UNK     1      23.494 -10.725  36.097  1.00  0.00    -0.084 Cl
ENDBRANCH   7  10
ENDBRANCH   5   6
BRANCH   3  22
HETATM   22  C17 UNK     1      19.229  -1.557  34.159  1.00  0.00     0.296 C 
HETATM   23  O2  UNK     1      18.604  -1.429  33.091  1.00  0.00    -0.259 OA
BRANCH  22  24
HETATM   24  O1  UNK     1      20.510  -2.049  34.224  1.00  0.00    -0.322 OA
HETATM   25  C26 UNK     1      21.036  -2.667  33.044  1.00  0.00     0.213 C 
ENDBRANCH  22  24
ENDBRANCH   3  22
BRANCH   2  26
HETATM   26  C12 UNK     1      18.429   1.321  35.141  1.00  0.00    -0.024 A 
HETATM   27  C10 UNK     1      17.868   1.387  33.869  1.00  0.00     0.013 A 
HETATM   28  C8  UNK     1      17.938   2.573  33.139  1.00  0.00     0.008 A 
HETATM   29  C7  UNK     1      18.571   3.691  33.683  1.00  0.00    -0.054 A 
HETATM   30  C9  UNK     1      19.133   3.621  34.958  1.00  0.00     0.008 A 
HETATM   31  C11 UNK     1      19.062   2.435  35.688  1.00  0.00     0.013 A 
BRANCH  29  32
HETATM   32  C1  UNK     1      18.650   4.981  32.889  1.00  0.00     0.018 C 
HETATM   33  C2  UNK     1      17.505   5.945  33.247  1.00  0.00     0.009 C 
HETATM   34  C4  UNK     1      17.598   7.245  32.449  1.00  0.00     0.001 C 
HETATM   35  C6  UNK     1      17.651   6.980  30.948  1.00  0.00     0.000 C 
HETATM   36  C5  UNK     1      18.782   6.023  30.582  1.00  0.00     0.001 C 
HETATM   37  C3  UNK     1      18.694   4.719  31.372  1.00  0.00     0.009 C 
ENDBRANCH  29  32
ENDBRANCH   2  26
TORSDOF 6
ENDMDL
MODEL 6
REMARK VINA RESULT:      -9.7      6.531     13.745
REMARK  6 active torsions:
REMARK  status: ('A' for Active; 'I' for Inactive)
REMARK    1  A    between atoms: C17_25  and  O1_3 
REMARK    2  A    between atoms: C16_24  and  N1_8 
REMARK       I    between atoms: C18_26  and  N1_8 
REMARK    3  A    between atoms: C1_9  and  C7_15 
REMARK    4  A    between atoms: C12_20  and  C13_21 
REMARK    5  A    between atoms: C14_22  and  C17_25 
REMARK    6  A    between atoms: C18_26  and  C19_27 
ROOT
HETATM    1  S1  UNK     1      20.171   6.664  33.707  1.00  0.00    -0.082 SA
HETATM    2  C13 UNK     1      18.310   8.424  33.511  1.00  0.00    -0.000 A 
HETATM    3  C14 UNK     1      17.989   7.403  32.570  1.00  0.00     0.085 A 
HETATM    4  C15 UNK     1      19.473   8.148  34.197  1.00  0.00     0.065 A 
HETATM    5  C16 UNK     1      18.916   6.411  32.589  1.00  0.00     0.094 A 
ENDROOT
BRANCH   5   6
HETATM    6  N1  UNK     1      18.998   5.231  31.842  1.00  0.00    -0.316 N 
HETATM    7  C18 UNK     1      18.379   4.027  32.146  1.00  0.00     0.262 C 
HETATM    8  O4  UNK     1      17.654   3.756  33.101  1.00  0.00    -0.267 OA
HETATM    9  H17 UNK     1      19.588   5.298  31.018  1.00  0.00     0.169 HD
BRANCH   7  10
HETATM   10  C19 UNK     1      18.677   2.992  31.148  1.00  0.00     0.108 A 
HETATM   11  C21 UNK     1      19.109   1.819  31.624  1.00  0.00     0.037 A 
HETATM   12  C20 UNK     1      19.431   0.731  30.713  1.00  0.00     0.001 A 
HETATM   13  C22 UNK     1      19.279   0.933  29.345  1.00  0.00     0.089 A 
HETATM   14  C24 UNK     1      19.885  -0.510  31.166  1.00  0.00     0.038 A 
HETATM   15  O3  UNK     1      18.823   2.170  28.850  1.00  0.00    -0.274 OA
HETATM   16  C25 UNK     1      19.571  -0.067  28.419  1.00  0.00     0.040 A 
HETATM   17  C23 UNK     1      18.509   3.229  29.697  1.00  0.00     0.304 A 
HETATM   18  O5  UNK     1      18.113   4.303  29.257  1.00  0.00    -0.259 OA
HETATM   19  C28 UNK     1      20.023  -1.302  28.878  1.00  0.00     0.026 A 
HETATM   20  C27 UNK     1      20.181  -1.523  30.248  1.00  0.00     0.035 A 
HETATM   21 Cl1  UNK     1      20.740  -3.052  30.811  1.00  0.00    -0.084 Cl
ENDBRANCH   7  10
ENDBRANCH   5   6
BRANCH   3  22
HETATM   22  C17 UNK     1      16.839   7.396  31.699  1.00  0.00     0.296 C 
HETATM   23  O2  UNK     1      16.717   8.093  30.675  1.00  0.00    -0.259 OA
BRANCH  22  24
HETATM   24  O1  UNK     1      15.872   6.520  32.130  1.00  0.00    -0.322 OA
HETATM   25  C26 UNK     1      14.513   6.966  32.081  1.00  0.00     0.213 C 
ENDBRANCH  22  24
ENDBRANCH   3  22
BRANCH   2  26
HETATM   26  C12 UNK     1      17.575   9.631  33.785  1.00  0.00    -0.024 A 
HETATM   27  C10 UNK     1      16.199   9.573  33.996  1.00  0.00     0.013 A 
HETATM   28  C8  UNK     1      15.487  10.741  34.260  1.00  0.00     0.008 A 
HETATM   29  C7  UNK     1      16.151  11.967  34.312  1.00  0.00    -0.054 A 
HETATM   30  C9  UNK     1      17.529  12.022  34.101  1.00  0.00     0.008 A 
HETATM   31  C11 UNK     1      18.242  10.853  33.837  1.00  0.00     0.013 A 
BRANCH  29  32
HETATM   32  C1  UNK     1      15.376  13.240  34.598  1.00  0.00     0.018 C 
HETATM   33  C2  UNK     1      14.251  13.008  35.623  1.00  0.00     0.009 C 
HETATM   34  C4  UNK     1      13.483  14.297  35.911  1.00  0.00     0.001 C 
HETATM   35  C6  UNK     1      12.945  14.929  34.631  1.00  0.00     0.000 C 
HETATM   36  C5  UNK     1      14.053  15.161  33.607  1.00  0.00     0.001 C 
HETATM   37  C3  UNK     1      14.823  13.876  33.310  1.00  0.00     0.009 C 
ENDBRANCH  29  32
ENDBRANCH   2  26
TORSDOF 6
ENDMDL
MODEL 7
REMARK VINA RESULT:      -9.3      3.862     11.722
REMARK  6 active torsions:
REMARK  status: ('A' for Active; 'I' for Inactive)
REMARK    1  A    between atoms: C17_25  and  O1_3 
REMARK    2  A    between atoms: C16_24  and  N1_8 
REMARK       I    between atoms: C18_26  and  N1_8 
REMARK    3  A    between atoms: C1_9  and  C7_15 
REMARK    4  A    between atoms: C12_20  and  C13_21 
REMARK    5  A    between atoms: C14_22  and  C17_25 
REMARK    6  A    between atoms: C18_26  and  C19_27 
ROOT
HETATM    1  S1  UNK     1      18.970  -1.460  32.433  1.00  0.00    -0.082 SA
HETATM    2  C13 UNK     1      18.593   0.988  33.112  1.00  0.00    -0.000 A 
HETATM    3  C14 UNK     1      18.761   0.262  34.327  1.00  0.00     0.085 A 
HETATM    4  C15 UNK     1      18.682   0.172  32.006  1.00  0.00     0.065 A 
HETATM    5  C16 UNK     1      18.970  -1.058  34.083  1.00  0.00     0.094 A 
ENDROOT
BRANCH   5   6
HETATM    6  N1  UNK     1      19.181  -2.121  34.967  1.00  0.00    -0.316 N 
HETATM    7  C18 UNK     1      20.041  -3.191  34.768  1.00  0.00     0.262 C 
HETATM    8  O4  UNK     1      20.773  -3.420  33.807  1.00  0.00    -0.267 OA
HETATM    9  H17 UNK     1      18.621  -2.079  35.814  1.00  0.00     0.169 HD
BRANCH   7  10
HETATM   10  C19 UNK     1      20.018  -4.129  35.897  1.00  0.00     0.108 A 
HETATM   11  C21 UNK     1      19.826  -5.417  35.593  1.00  0.00     0.037 A 
HETATM   12  C20 UNK     1      19.787  -6.423  36.644  1.00  0.00     0.001 A 
HETATM   13  C22 UNK     1      19.955  -6.020  37.965  1.00  0.00     0.089 A 
HETATM   14  C24 UNK     1      19.589  -7.778  36.371  1.00  0.00     0.038 A 
HETATM   15  O3  UNK     1      20.158  -4.662  38.279  1.00  0.00    -0.274 OA
HETATM   16  C25 UNK     1      19.928  -6.932  39.019  1.00  0.00     0.040 A 
HETATM   17  C23 UNK     1      20.199  -3.678  37.295  1.00  0.00     0.304 A 
HETATM   18  O5  UNK     1      20.376  -2.499  37.579  1.00  0.00    -0.259 OA
HETATM   19  C28 UNK     1      19.729  -8.282  38.739  1.00  0.00     0.026 A 
HETATM   20  C27 UNK     1      19.560  -8.704  37.419  1.00  0.00     0.035 A 
HETATM   21 Cl1  UNK     1      19.315 -10.375  37.078  1.00  0.00    -0.084 Cl
ENDBRANCH   7  10
ENDBRANCH   5   6
BRANCH   3  22
HETATM   22  C17 UNK     1      18.721   0.826  35.654  1.00  0.00     0.296 C 
HETATM   23  O2  UNK     1      19.624   1.515  36.163  1.00  0.00    -0.259 OA
BRANCH  22  24
HETATM   24  O1  UNK     1      17.555   0.516  36.310  1.00  0.00    -0.322 OA
HETATM   25  C26 UNK     1      17.663   0.073  37.667  1.00  0.00     0.213 C 
ENDBRANCH  22  24
ENDBRANCH   3  22
BRANCH   2  26
HETATM   26  C12 UNK     1      18.353   2.399  32.957  1.00  0.00    -0.024 A 
HETATM   27  C10 UNK     1      18.236   2.946  31.681  1.00  0.00     0.013 A 
HETATM   28  C8  UNK     1      18.005   4.312  31.530  1.00  0.00     0.008 A 
HETATM   29  C7  UNK     1      17.892   5.130  32.654  1.00  0.00    -0.054 A 
HETATM   30  C9  UNK     1      18.010   4.579  33.931  1.00  0.00     0.008 A 
HETATM   31  C11 UNK     1      18.241   3.212  34.082  1.00  0.00     0.013 A 
BRANCH  29  32
HETATM   32  C1  UNK     1      17.642   6.618  32.490  1.00  0.00     0.018 C 
HETATM   33  C2  UNK     1      18.218   7.428  33.665  1.00  0.00     0.009 C 
HETATM   34  C4  UNK     1      17.970   8.925  33.486  1.00  0.00     0.001 C 
HETATM   35  C6  UNK     1      16.490   9.229  33.276  1.00  0.00     0.000 C 
HETATM   36  C5  UNK     1      15.908   8.428  32.115  1.00  0.00     0.001 C 
HETATM   37  C3  UNK     1      16.148   6.929  32.288  1.00  0.00     0.009 C 
ENDBRANCH  29  32
ENDBRANCH   2  26
TORSDOF 6
ENDMDL
MODEL 8
REMARK VINA RESULT:      -8.9      9.212     12.946
REMARK  6 active torsions:
REMARK  status: ('A' for Active; 'I' for Inactive)
REMARK    1  A    between atoms: C17_25  and  O1_3 
REMARK    2  A    between atoms: C16_24  and  N1_8 
REMARK       I    between atoms: C18_26  and  N1_8 
REMARK    3  A    between atoms: C1_9  and  C7_15 
REMARK    4  A    between atoms: C12_20  and  C13_21 
REMARK    5  A    between atoms: C14_22  and  C17_25 
REMARK    6  A    between atoms: C18_26  and  C19_27 
ROOT
HETATM    1  S1  UNK     1      26.892 -10.125  39.687  1.00  0.00    -0.082 SA
HETATM    2  C13 UNK     1      28.708  -8.893  38.352  1.00  0.00    -0.000 A 
HETATM    3  C14 UNK     1      27.471  -8.278  37.999  1.00  0.00     0.085 A 
HETATM    4  C15 UNK     1      28.537  -9.913  39.261  1.00  0.00     0.065 A 
HETATM    5  C16 UNK     1      26.432  -8.857  38.655  1.00  0.00     0.094 A 
ENDROOT
BRANCH   5   6
HETATM    6  N1  UNK     1      25.063  -8.576  38.612  1.00  0.00    -0.316 N 
HETATM    7  C18 UNK     1      24.181  -8.957  37.611  1.00  0.00     0.262 C 
HETATM    8  O4  UNK     1      24.411  -9.601  36.589  1.00  0.00    -0.267 OA
HETATM    9  H17 UNK     1      24.725  -8.024  39.396  1.00  0.00     0.169 HD
BRANCH   7  10
HETATM   10  C19 UNK     1      22.814  -8.495  37.882  1.00  0.00     0.108 A 
HETATM   11  C21 UNK     1      21.983  -8.462  36.834  1.00  0.00     0.037 A 
HETATM   12  C20 UNK     1      20.607  -8.018  37.002  1.00  0.00     0.001 A 
HETATM   13  C22 UNK     1      20.176  -7.631  38.267  1.00  0.00     0.089 A 
HETATM   14  C24 UNK     1      19.705  -7.968  35.937  1.00  0.00     0.038 A 
HETATM   15  O3  UNK     1      21.056  -7.668  39.366  1.00  0.00    -0.274 OA
HETATM   16  C25 UNK     1      18.872  -7.195  38.496  1.00  0.00     0.040 A 
HETATM   17  C23 UNK     1      22.377  -8.088  39.236  1.00  0.00     0.304 A 
HETATM   18  O5  UNK     1      23.136  -8.117  40.198  1.00  0.00    -0.259 OA
HETATM   19  C28 UNK     1      17.978  -7.148  37.428  1.00  0.00     0.026 A 
HETATM   20  C27 UNK     1      18.394  -7.533  36.151  1.00  0.00     0.035 A 
HETATM   21 Cl1  UNK     1      17.285  -7.473  34.835  1.00  0.00    -0.084 Cl
ENDBRANCH   7  10
ENDBRANCH   5   6
BRANCH   3  22
HETATM   22  C17 UNK     1      27.313  -7.183  37.073  1.00  0.00     0.296 C 
HETATM   23  O2  UNK     1      27.616  -7.221  35.866  1.00  0.00    -0.259 OA
BRANCH  22  24
HETATM   24  O1  UNK     1      26.780  -6.071  37.677  1.00  0.00    -0.322 OA
HETATM   25  C26 UNK     1      27.626  -5.339  38.570  1.00  0.00     0.213 C 
ENDBRANCH  22  24
ENDBRANCH   3  22
BRANCH   2  26
HETATM   26  C12 UNK     1      30.024  -8.562  37.870  1.00  0.00    -0.024 A 
HETATM   27  C10 UNK     1      30.668  -7.421  38.343  1.00  0.00     0.013 A 
HETATM   28  C8  UNK     1      31.942  -7.099  37.877  1.00  0.00     0.008 A 
HETATM   29  C7  UNK     1      32.570  -7.919  36.939  1.00  0.00    -0.054 A 
HETATM   30  C9  UNK     1      31.921  -9.061  36.467  1.00  0.00     0.008 A 
HETATM   31  C11 UNK     1      30.647  -9.383  36.933  1.00  0.00     0.013 A 
BRANCH  29  32
HETATM   32  C1  UNK     1      33.956  -7.569  36.430  1.00  0.00     0.018 C 
HETATM   33  C2  UNK     1      34.277  -6.076  36.626  1.00  0.00     0.009 C 
HETATM   34  C4  UNK     1      35.678  -5.736  36.120  1.00  0.00     0.001 C 
HETATM   35  C6  UNK     1      35.869  -6.158  34.667  1.00  0.00     0.000 C 
HETATM   36  C5  UNK     1      35.550  -7.636  34.461  1.00  0.00     0.001 C 
HETATM   37  C3  UNK     1      34.149  -7.984  34.960  1.00  0.00     0.009 C 
ENDBRANCH  29  32
ENDBRANCH   2  26
TORSDOF 6
ENDMDL
MODEL 9
REMARK VINA RESULT:      -8.8     26.496     29.148
REMARK  6 active torsions:
REMARK  status: ('A' for Active; 'I' for Inactive)
REMARK    1  A    between atoms: C17_25  and  O1_3 
REMARK    2  A    between atoms: C16_24  and  N1_8 
REMARK       I    between atoms: C18_26  and  N1_8 
REMARK    3  A    between atoms: C1_9  and  C7_15 
REMARK    4  A    between atoms: C12_20  and  C13_21 
REMARK    5  A    between atoms: C14_22  and  C17_25 
REMARK    6  A    between atoms: C18_26  and  C19_27 
ROOT
HETATM    1  S1  UNK     1      15.344  12.266   7.607  1.00  0.00    -0.082 SA
HETATM    2  C13 UNK     1      17.519  11.812   8.896  1.00  0.00    -0.000 A 
HETATM    3  C14 UNK     1      16.680  10.683   9.127  1.00  0.00     0.085 A 
HETATM    4  C15 UNK     1      16.915  12.749   8.087  1.00  0.00     0.065 A 
HETATM    5  C16 UNK     1      15.491  10.819   8.485  1.00  0.00     0.094 A 
ENDROOT
BRANCH   5   6
HETATM    6  N1  UNK     1      14.384   9.964   8.435  1.00  0.00    -0.316 N 
HETATM    7  C18 UNK     1      13.422   9.814   9.424  1.00  0.00     0.262 C 
HETATM    8  O4  UNK     1      13.344  10.383  10.511  1.00  0.00    -0.267 OA
HETATM    9  H17 UNK     1      14.325   9.406   7.589  1.00  0.00     0.169 HD
BRANCH   7  10
HETATM   10  C19 UNK     1      12.399   8.832   9.046  1.00  0.00     0.108 A 
HETATM   11  C21 UNK     1      11.156   9.078   9.476  1.00  0.00     0.037 A 
HETATM   12  C20 UNK     1      10.073   8.161   9.152  1.00  0.00     0.001 A 
HETATM   13  C22 UNK     1      10.354   7.031   8.390  1.00  0.00     0.089 A 
HETATM   14  C24 UNK     1       8.761   8.379   9.579  1.00  0.00     0.038 A 
HETATM   15  O3  UNK     1      11.664   6.778   7.941  1.00  0.00    -0.274 OA
HETATM   16  C25 UNK     1       9.362   6.114   8.047  1.00  0.00     0.040 A 
HETATM   17  C23 UNK     1      12.720   7.636   8.235  1.00  0.00     0.304 A 
HETATM   18  O5  UNK     1      13.858   7.407   7.840  1.00  0.00    -0.259 OA
HETATM   19  C28 UNK     1       8.056   6.337   8.476  1.00  0.00     0.026 A 
HETATM   20  C27 UNK     1       7.756   7.467   9.241  1.00  0.00     0.035 A 
HETATM   21 Cl1  UNK     1       6.139   7.739   9.770  1.00  0.00    -0.084 Cl
ENDBRANCH   7  10
ENDBRANCH   5   6
BRANCH   3  22
HETATM   22  C17 UNK     1      17.021   9.535   9.930  1.00  0.00     0.296 C 
HETATM   23  O2  UNK     1      17.852   8.664   9.612  1.00  0.00    -0.259 OA
BRANCH  22  24
HETATM   24  O1  UNK     1      16.316   9.503  11.108  1.00  0.00    -0.322 OA
HETATM   25  C26 UNK     1      15.916   8.220  11.600  1.00  0.00     0.213 C 
ENDBRANCH  22  24
ENDBRANCH   3  22
BRANCH   2  26
HETATM   26  C12 UNK     1      18.848  12.038   9.402  1.00  0.00    -0.024 A 
HETATM   27  C10 UNK     1      19.945  11.893   8.557  1.00  0.00     0.013 A 
HETATM   28  C8  UNK     1      21.232  12.112   9.047  1.00  0.00     0.008 A 
HETATM   29  C7  UNK     1      21.420  12.475  10.381  1.00  0.00    -0.054 A 
HETATM   30  C9  UNK     1      20.318  12.620  11.224  1.00  0.00     0.008 A 
HETATM   31  C11 UNK     1      19.031  12.401  10.734  1.00  0.00     0.013 A 
BRANCH  29  32
HETATM   32  C1  UNK     1      22.820  12.711  10.915  1.00  0.00     0.018 C 
HETATM   33  C2  UNK     1      23.857  11.806  10.224  1.00  0.00     0.009 C 
HETATM   34  C4  UNK     1      25.264  12.059  10.762  1.00  0.00     0.001 C 
HETATM   35  C6  UNK     1      25.322  11.911  12.279  1.00  0.00     0.000 C 
HETATM   36  C5  UNK     1      24.296  12.802  12.973  1.00  0.00     0.001 C 
HETATM   37  C3  UNK     1      22.885  12.553  12.445  1.00  0.00     0.009 C 
ENDBRANCH  29  32
ENDBRANCH   2  26
TORSDOF 6
ENDMDL
MODEL 10
REMARK VINA RESULT:      -8.7     26.207     28.382
REMARK  6 active torsions:
REMARK  status: ('A' for Active; 'I' for Inactive)
REMARK    1  A    between atoms: C17_25  and  O1_3 
REMARK    2  A    between atoms: C16_24  and  N1_8 
REMARK       I    between atoms: C18_26  and  N1_8 
REMARK    3  A    between atoms: C1_9  and  C7_15 
REMARK    4  A    between atoms: C12_20  and  C13_21 
REMARK    5  A    between atoms: C14_22  and  C17_25 
REMARK    6  A    between atoms: C18_26  and  C19_27 
ROOT
HETATM    1  S1  UNK     1      15.751  13.167  10.587  1.00  0.00    -0.082 SA
HETATM    2  C13 UNK     1      14.830  10.867   9.911  1.00  0.00    -0.000 A 
HETATM    3  C14 UNK     1      16.156  10.639  10.381  1.00  0.00     0.085 A 
HETATM    4  C15 UNK     1      14.483  12.199   9.967  1.00  0.00     0.065 A 
HETATM    5  C16 UNK     1      16.743  11.800  10.769  1.00  0.00     0.094 A 
ENDROOT
BRANCH   5   6
HETATM    6  N1  UNK     1      18.020  12.042  11.288  1.00  0.00    -0.316 N 
HETATM    7  C18 UNK     1      19.167  12.298  10.551  1.00  0.00     0.262 C 
HETATM    8  O4  UNK     1      19.296  12.364   9.330  1.00  0.00    -0.267 OA
HETATM    9  H17 UNK     1      18.074  12.001  12.302  1.00  0.00     0.169 HD
BRANCH   7  10
HETATM   10  C19 UNK     1      20.336  12.506  11.413  1.00  0.00     0.108 A 
HETATM   11  C21 UNK     1      21.523  12.180  10.889  1.00  0.00     0.037 A 
HETATM   12  C20 UNK     1      22.741  12.350  11.667  1.00  0.00     0.001 A 
HETATM   13  C22 UNK     1      22.647  12.858  12.960  1.00  0.00     0.089 A 
HETATM   14  C24 UNK     1      24.001  12.023  11.161  1.00  0.00     0.038 A 
HETATM   15  O3  UNK     1      21.395  13.200  13.505  1.00  0.00    -0.274 OA
HETATM   16  C25 UNK     1      23.774  13.045  13.758  1.00  0.00     0.040 A 
HETATM   17  C23 UNK     1      20.213  13.047  12.785  1.00  0.00     0.304 A 
HETATM   18  O5  UNK     1      19.127  13.347  13.269  1.00  0.00    -0.259 OA
HETATM   19  C28 UNK     1      25.027  12.716  13.245  1.00  0.00     0.026 A 
HETATM   20  C27 UNK     1      25.140  12.206  11.950  1.00  0.00     0.035 A 
HETATM   21 Cl1  UNK     1      26.692  11.801  11.321  1.00  0.00    -0.084 Cl
ENDBRANCH   7  10
ENDBRANCH   5   6
BRANCH   3  22
HETATM   22  C17 UNK     1      16.814   9.357  10.449  1.00  0.00     0.296 C 
HETATM   23  O2  UNK     1      17.802   9.027   9.769  1.00  0.00    -0.259 OA
BRANCH  22  24
HETATM   24  O1  UNK     1      16.220   8.521  11.363  1.00  0.00    -0.322 OA
HETATM   25  C26 UNK     1      15.951   7.178  10.947  1.00  0.00     0.213 C 
ENDBRANCH  22  24
ENDBRANCH   3  22
BRANCH   2  26
HETATM   26  C12 UNK     1      13.892   9.892   9.416  1.00  0.00    -0.024 A 
HETATM   27  C10 UNK     1      12.637   9.775  10.009  1.00  0.00     0.013 A 
HETATM   28  C8  UNK     1      11.729   8.831   9.531  1.00  0.00     0.008 A 
HETATM   29  C7  UNK     1      12.078   8.006   8.461  1.00  0.00    -0.054 A 
HETATM   30  C9  UNK     1      13.336   8.126   7.870  1.00  0.00     0.008 A 
HETATM   31  C11 UNK     1      14.244   9.070   8.348  1.00  0.00     0.013 A 
BRANCH  29  32
HETATM   32  C1  UNK     1      11.091   6.977   7.942  1.00  0.00     0.018 C 
HETATM   33  C2  UNK     1      11.008   6.987   6.405  1.00  0.00     0.009 C 
HETATM   34  C4  UNK     1      10.019   5.942   5.892  1.00  0.00     0.001 C 
HETATM   35  C6  UNK     1       8.641   6.115   6.522  1.00  0.00     0.000 C 
HETATM   36  C5  UNK     1       8.712   6.109   8.046  1.00  0.00     0.001 C 
HETATM   37  C3  UNK     1       9.696   7.154   8.568  1.00  0.00     0.009 C 
ENDBRANCH  29  32
ENDBRANCH   2  26
TORSDOF 6
ENDMDL
