MODEL 1
REMARK VINA RESULT:      -8.7      0.000      0.000
REMARK  7 active torsions:
REMARK  status: ('A' for Active; 'I' for Inactive)
REMARK    1  A    between atoms: C1_9  and  S1_1 
REMARK    2  A    between atoms: N2_6  and  S1_1 
REMARK    3  A    between atoms: C2_10  and  N1_5 
REMARK       I    between atoms: C9_17  and  N1_5 
REMARK    4  A    between atoms: C18_26  and  N2_6 
REMARK    5  A    between atoms: C3_11  and  C8_16 
REMARK    6  A    between atoms: C3_11  and  C9_17 
REMARK    7  A    between atoms: C10_18  and  C11_19 
ROOT
HETATM    1  O3  UNK     1      29.703  -6.337  35.084  1.00  0.00    -0.267 OA
HETATM    2  N1  UNK     1      31.155  -8.172  35.122  1.00  0.00    -0.323 N 
HETATM    3  C9  UNK     1      30.409  -7.144  35.684  1.00  0.00     0.257 C 
HETATM    4  H5  UNK     1      31.695  -8.759  35.754  1.00  0.00     0.169 HD
ENDROOT
BRANCH   2   5
HETATM    5  C2  UNK     1      31.255  -8.514  33.750  1.00  0.00     0.035 A 
HETATM    6  C6  UNK     1      30.518  -9.580  33.263  1.00  0.00     0.031 A 
HETATM    7  C4  UNK     1      30.617  -9.916  31.913  1.00  0.00     0.027 A 
HETATM    8  C1  UNK     1      31.451  -9.181  31.071  1.00  0.00     0.080 A 
HETATM    9  C5  UNK     1      32.186  -8.110  31.578  1.00  0.00     0.027 A 
HETATM   10  C7  UNK     1      32.087  -7.773  32.929  1.00  0.00     0.031 A 
BRANCH   8  11
HETATM   11  S1  UNK     1      31.574  -9.600  29.380  1.00  0.00     0.276 S 
HETATM   12  O1  UNK     1      30.956 -10.908  29.200  1.00  0.00    -0.200 OA
HETATM   13  O2  UNK     1      32.955  -9.411  28.952  1.00  0.00    -0.200 OA
BRANCH  11  14
HETATM   14  N2  UNK     1      30.571  -8.424  28.621  1.00  0.00    -0.109 N 
HETATM   15  H7  UNK     1      30.418  -8.569  27.614  1.00  0.00     0.198 HD
BRANCH  14  16
HETATM   16  C18 UNK     1      29.382  -8.001  29.310  1.00  0.00     0.735 A 
HETATM   17  N3  UNK     1      28.389  -8.901  29.379  1.00  0.00    -0.074 NA
HETATM   18  C23 UNK     1      27.289  -8.472  30.034  1.00  0.00     0.138 A 
HETATM   19  C25 UNK     1      27.172  -7.215  30.593  1.00  0.00     0.040 A 
HETATM   20  C24 UNK     1      28.269  -6.391  30.447  1.00  0.00     0.138 A 
HETATM   21  N4  UNK     1      29.399  -6.755  29.806  1.00  0.00    -0.074 NA
ENDBRANCH  14  16
ENDBRANCH  11  14
ENDBRANCH   8  11
ENDBRANCH   2   5
BRANCH   3  22
HETATM   22  C3  UNK     1      30.540  -7.073  37.188  1.00  0.00     0.043 C 
HETATM   23  C10 UNK     1      31.609  -6.383  37.668  1.00  0.00     0.029 C 
BRANCH  23  24
HETATM   24  C11 UNK     1      32.647  -5.736  36.882  1.00  0.00    -0.035 A 
HETATM   25  C14 UNK     1      32.417  -4.480  36.321  1.00  0.00     0.011 A 
HETATM   26  C20 UNK     1      33.414  -3.858  35.568  1.00  0.00     0.001 A 
HETATM   27  C22 UNK     1      34.640  -4.494  35.376  1.00  0.00     0.000 A 
HETATM   28  C21 UNK     1      34.871  -5.749  35.937  1.00  0.00     0.001 A 
HETATM   29  C15 UNK     1      33.874  -6.371  36.691  1.00  0.00     0.011 A 
ENDBRANCH  23  24
BRANCH  22  30
HETATM   30  C8  UNK     1      29.542  -7.692  38.082  1.00  0.00    -0.021 A 
HETATM   31  C12 UNK     1      28.687  -6.880  38.805  1.00  0.00     0.012 A 
HETATM   32  C16 UNK     1      27.745  -7.465  39.651  1.00  0.00     0.001 A 
HETATM   33  C19 UNK     1      27.673  -8.853  39.761  1.00  0.00     0.000 A 
HETATM   34  C17 UNK     1      28.544  -9.657  39.025  1.00  0.00     0.001 A 
HETATM   35  C13 UNK     1      29.486  -9.072  38.179  1.00  0.00     0.012 A 
ENDBRANCH  22  30
ENDBRANCH   3  22
TORSDOF 7
ENDMDL
MODEL 2
REMARK VINA RESULT:      -8.7     12.640     14.952
REMARK  7 active torsions:
REMARK  status: ('A' for Active; 'I' for Inactive)
REMARK    1  A    between atoms: C1_9  and  S1_1 
REMARK    2  A    between atoms: N2_6  and  S1_1 
REMARK    3  A    between atoms: C2_10  and  N1_5 
REMARK       I    between atoms: C9_17  and  N1_5 
REMARK    4  A    between atoms: C18_26  and  N2_6 
REMARK    5  A    between atoms: C3_11  and  C8_16 
REMARK    6  A    between atoms: C3_11  and  C9_17 
REMARK    7  A    between atoms: C10_18  and  C11_19 
ROOT
HETATM    1  O3  UNK     1      20.981  -1.679  35.323  1.00  0.00    -0.267 OA
HETATM    2  N1  UNK     1      18.724  -1.623  34.704  1.00  0.00    -0.323 N 
HETATM    3  C9  UNK     1      19.807  -2.002  35.487  1.00  0.00     0.257 C 
HETATM    4  H5  UNK     1      17.808  -1.978  34.968  1.00  0.00     0.169 HD
ENDROOT
BRANCH   2   5
HETATM    5  C2  UNK     1      18.738  -0.783  33.563  1.00  0.00     0.035 A 
HETATM    6  C6  UNK     1      19.186  -1.291  32.355  1.00  0.00     0.031 A 
HETATM    7  C4  UNK     1      19.200  -0.464  31.232  1.00  0.00     0.027 A 
HETATM    8  C1  UNK     1      18.766   0.857  31.333  1.00  0.00     0.080 A 
HETATM    9  C5  UNK     1      18.317   1.352  32.558  1.00  0.00     0.027 A 
HETATM   10  C7  UNK     1      18.303   0.525  33.681  1.00  0.00     0.031 A 
BRANCH   8  11
HETATM   11  S1  UNK     1      18.782   1.892  29.927  1.00  0.00     0.276 S 
HETATM   12  O1  UNK     1      17.410   2.308  29.664  1.00  0.00    -0.200 OA
HETATM   13  O2  UNK     1      19.531   1.228  28.867  1.00  0.00    -0.200 OA
BRANCH  11  14
HETATM   14  N2  UNK     1      19.662   3.268  30.476  1.00  0.00    -0.109 N 
HETATM   15  H7  UNK     1      20.511   3.484  29.937  1.00  0.00     0.198 HD
BRANCH  14  16
HETATM   16  C18 UNK     1      18.921   4.443  30.845  1.00  0.00     0.735 A 
HETATM   17  N3  UNK     1      18.208   4.360  31.978  1.00  0.00    -0.074 NA
HETATM   18  C23 UNK     1      17.525   5.481  32.294  1.00  0.00     0.138 A 
HETATM   19  C25 UNK     1      17.543   6.630  31.530  1.00  0.00     0.040 A 
HETATM   20  C24 UNK     1      18.318   6.577  30.389  1.00  0.00     0.138 A 
HETATM   21  N4  UNK     1      19.025   5.491  30.014  1.00  0.00    -0.074 NA
ENDBRANCH  14  16
ENDBRANCH  11  14
ENDBRANCH   8  11
ENDBRANCH   2   5
BRANCH   3  22
HETATM   22  C3  UNK     1      19.418  -2.912  36.631  1.00  0.00     0.043 C 
HETATM   23  C10 UNK     1      18.450  -2.451  37.465  1.00  0.00     0.029 C 
BRANCH  23  24
HETATM   24  C11 UNK     1      17.775  -1.166  37.385  1.00  0.00    -0.035 A 
HETATM   25  C14 UNK     1      18.256  -0.078  38.115  1.00  0.00     0.011 A 
HETATM   26  C20 UNK     1      17.609   1.155  38.038  1.00  0.00     0.001 A 
HETATM   27  C22 UNK     1      16.480   1.301  37.232  1.00  0.00     0.000 A 
HETATM   28  C21 UNK     1      15.999   0.214  36.502  1.00  0.00     0.001 A 
HETATM   29  C15 UNK     1      16.646  -1.019  36.579  1.00  0.00     0.011 A 
ENDBRANCH  23  24
BRANCH  22  30
HETATM   30  C8  UNK     1      20.037  -4.241  36.807  1.00  0.00    -0.021 A 
HETATM   31  C12 UNK     1      19.592  -5.300  36.036  1.00  0.00     0.012 A 
HETATM   32  C16 UNK     1      20.175  -6.556  36.204  1.00  0.00     0.001 A 
HETATM   33  C19 UNK     1      21.194  -6.732  37.139  1.00  0.00     0.000 A 
HETATM   34  C17 UNK     1      21.630  -5.653  37.908  1.00  0.00     0.001 A 
HETATM   35  C13 UNK     1      21.046  -4.398  37.741  1.00  0.00     0.012 A 
ENDBRANCH  22  30
ENDBRANCH   3  22
TORSDOF 7
ENDMDL
MODEL 3
REMARK VINA RESULT:      -8.6     16.320     19.014
REMARK  7 active torsions:
REMARK  status: ('A' for Active; 'I' for Inactive)
REMARK    1  A    between atoms: C1_9  and  S1_1 
REMARK    2  A    between atoms: N2_6  and  S1_1 
REMARK    3  A    between atoms: C2_10  and  N1_5 
REMARK       I    between atoms: C9_17  and  N1_5 
REMARK    4  A    between atoms: C18_26  and  N2_6 
REMARK    5  A    between atoms: C3_11  and  C8_16 
REMARK    6  A    between atoms: C3_11  and  C9_17 
REMARK    7  A    between atoms: C10_18  and  C11_19 
ROOT
HETATM    1  O3  UNK     1      16.848   1.433  33.400  1.00  0.00    -0.267 OA
HETATM    2  N1  UNK     1      18.750   2.635  32.755  1.00  0.00    -0.323 N 
HETATM    3  C9  UNK     1      18.033   1.491  33.083  1.00  0.00     0.257 C 
HETATM    4  H5  UNK     1      19.732   2.521  32.517  1.00  0.00     0.169 HD
ENDROOT
BRANCH   2   5
HETATM    5  C2  UNK     1      18.271   3.968  32.709  1.00  0.00     0.035 A 
HETATM    6  C6  UNK     1      18.037   4.561  31.479  1.00  0.00     0.031 A 
HETATM    7  C4  UNK     1      17.565   5.872  31.435  1.00  0.00     0.027 A 
HETATM    8  C1  UNK     1      17.335   6.572  32.618  1.00  0.00     0.080 A 
HETATM    9  C5  UNK     1      17.576   5.960  33.849  1.00  0.00     0.027 A 
HETATM   10  C7  UNK     1      18.047   4.647  33.894  1.00  0.00     0.031 A 
BRANCH   8  11
HETATM   11  S1  UNK     1      16.744   8.214  32.562  1.00  0.00     0.276 S 
HETATM   12  O1  UNK     1      16.212   8.450  31.226  1.00  0.00    -0.200 OA
HETATM   13  O2  UNK     1      17.782   9.101  33.073  1.00  0.00    -0.200 OA
BRANCH  11  14
HETATM   14  N2  UNK     1      15.421   8.181  33.666  1.00  0.00    -0.109 N 
HETATM   15  H7  UNK     1      15.530   7.530  34.455  1.00  0.00     0.198 HD
BRANCH  14  16
HETATM   16  C18 UNK     1      14.832   9.434  34.055  1.00  0.00     0.735 A 
HETATM   17  N3  UNK     1      15.261   9.953  35.215  1.00  0.00    -0.074 NA
HETATM   18  C23 UNK     1      14.689  11.129  35.548  1.00  0.00     0.138 A 
HETATM   19  C25 UNK     1      13.737  11.765  34.775  1.00  0.00     0.040 A 
HETATM   20  C24 UNK     1      13.388  11.118  33.607  1.00  0.00     0.138 A 
HETATM   21  N4  UNK     1      13.920   9.943  33.213  1.00  0.00    -0.074 NA
ENDBRANCH  14  16
ENDBRANCH  11  14
ENDBRANCH   8  11
ENDBRANCH   2   5
BRANCH   3  22
HETATM   22  C3  UNK     1      18.871   0.234  33.029  1.00  0.00     0.043 C 
HETATM   23  C10 UNK     1      19.058  -0.417  34.207  1.00  0.00     0.029 C 
BRANCH  23  24
HETATM   24  C11 UNK     1      18.560  -0.011  35.511  1.00  0.00    -0.035 A 
HETATM   25  C14 UNK     1      18.836   1.267  35.998  1.00  0.00     0.011 A 
HETATM   26  C20 UNK     1      18.358   1.657  37.249  1.00  0.00     0.001 A 
HETATM   27  C22 UNK     1      17.603   0.768  38.014  1.00  0.00     0.000 A 
HETATM   28  C21 UNK     1      17.326  -0.509  37.528  1.00  0.00     0.001 A 
HETATM   29  C15 UNK     1      17.804  -0.899  36.277  1.00  0.00     0.011 A 
ENDBRANCH  23  24
BRANCH  22  30
HETATM   30  C8  UNK     1      19.426  -0.272  31.758  1.00  0.00    -0.021 A 
HETATM   31  C12 UNK     1      19.580   0.598  30.694  1.00  0.00     0.012 A 
HETATM   32  C16 UNK     1      20.103   0.119  29.493  1.00  0.00     0.001 A 
HETATM   33  C19 UNK     1      20.463  -1.223  29.375  1.00  0.00     0.000 A 
HETATM   34  C17 UNK     1      20.301  -2.086  30.458  1.00  0.00     0.001 A 
HETATM   35  C13 UNK     1      19.777  -1.608  31.659  1.00  0.00     0.012 A 
ENDBRANCH  22  30
ENDBRANCH   3  22
TORSDOF 7
ENDMDL
MODEL 4
REMARK VINA RESULT:      -8.5     11.032     14.283
REMARK  7 active torsions:
REMARK  status: ('A' for Active; 'I' for Inactive)
REMARK    1  A    between atoms: C1_9  and  S1_1 
REMARK    2  A    between atoms: N2_6  and  S1_1 
REMARK    3  A    between atoms: C2_10  and  N1_5 
REMARK       I    between atoms: C9_17  and  N1_5 
REMARK    4  A    between atoms: C18_26  and  N2_6 
REMARK    5  A    between atoms: C3_11  and  C8_16 
REMARK    6  A    between atoms: C3_11  and  C9_17 
REMARK    7  A    between atoms: C10_18  and  C11_19 
ROOT
HETATM    1  O3  UNK     1      17.568  -1.824  33.617  1.00  0.00    -0.267 OA
HETATM    2  N1  UNK     1      19.716  -1.439  34.465  1.00  0.00    -0.323 N 
HETATM    3  C9  UNK     1      18.581  -1.136  33.722  1.00  0.00     0.257 C 
HETATM    4  H5  UNK     1      20.479  -0.766  34.449  1.00  0.00     0.169 HD
ENDROOT
BRANCH   2   5
HETATM    5  C2  UNK     1      19.945  -2.589  35.259  1.00  0.00     0.035 A 
HETATM    6  C6  UNK     1      20.011  -2.459  36.636  1.00  0.00     0.031 A 
HETATM    7  C4  UNK     1      20.236  -3.593  37.417  1.00  0.00     0.027 A 
HETATM    8  C1  UNK     1      20.391  -4.838  36.811  1.00  0.00     0.080 A 
HETATM    9  C5  UNK     1      20.322  -4.952  35.422  1.00  0.00     0.027 A 
HETATM   10  C7  UNK     1      20.097  -3.818  34.640  1.00  0.00     0.031 A 
BRANCH   8  11
HETATM   11  S1  UNK     1      20.672  -6.257  37.788  1.00  0.00     0.276 S 
HETATM   12  O1  UNK     1      20.039  -6.038  39.083  1.00  0.00    -0.200 OA
HETATM   13  O2  UNK     1      22.093  -6.579  37.746  1.00  0.00    -0.200 OA
BRANCH  11  14
HETATM   14  N2  UNK     1      19.782  -7.476  36.957  1.00  0.00    -0.109 N 
HETATM   15  H7  UNK     1      19.142  -7.127  36.232  1.00  0.00     0.198 HD
BRANCH  14  16
HETATM   16  C18 UNK     1      20.477  -8.670  36.560  1.00  0.00     0.735 A 
HETATM   17  N3  UNK     1      21.033  -8.651  35.339  1.00  0.00    -0.074 NA
HETATM   18  C23 UNK     1      21.678  -9.787  34.999  1.00  0.00     0.138 A 
HETATM   19  C25 UNK     1      21.771 -10.891  35.823  1.00  0.00     0.040 A 
HETATM   20  C24 UNK     1      21.153 -10.774  37.051  1.00  0.00     0.138 A 
HETATM   21  N4  UNK     1      20.493  -9.669  37.455  1.00  0.00    -0.074 NA
ENDBRANCH  14  16
ENDBRANCH  11  14
ENDBRANCH   8  11
ENDBRANCH   2   5
BRANCH   3  22
HETATM   22  C3  UNK     1      18.687   0.184  32.993  1.00  0.00     0.043 C 
HETATM   23  C10 UNK     1      18.339   1.292  33.699  1.00  0.00     0.029 C 
BRANCH  23  24
HETATM   24  C11 UNK     1      17.849   1.331  35.068  1.00  0.00    -0.035 A 
HETATM   25  C14 UNK     1      16.558   0.891  35.360  1.00  0.00     0.011 A 
HETATM   26  C20 UNK     1      16.088   0.928  36.673  1.00  0.00     0.001 A 
HETATM   27  C22 UNK     1      16.911   1.405  37.694  1.00  0.00     0.000 A 
HETATM   28  C21 UNK     1      18.202   1.844  37.402  1.00  0.00     0.001 A 
HETATM   29  C15 UNK     1      18.672   1.807  36.089  1.00  0.00     0.011 A 
ENDBRANCH  23  24
BRANCH  22  30
HETATM   30  C8  UNK     1      19.174   0.262  31.602  1.00  0.00    -0.021 A 
HETATM   31  C12 UNK     1      20.006  -0.732  31.121  1.00  0.00     0.012 A 
HETATM   32  C16 UNK     1      20.467  -0.657  29.806  1.00  0.00     0.001 A 
HETATM   33  C19 UNK     1      20.089   0.412  28.995  1.00  0.00     0.000 A 
HETATM   34  C17 UNK     1      19.250   1.407  29.497  1.00  0.00     0.001 A 
HETATM   35  C13 UNK     1      18.789   1.331  30.811  1.00  0.00     0.012 A 
ENDBRANCH  22  30
ENDBRANCH   3  22
TORSDOF 7
ENDMDL
MODEL 5
REMARK VINA RESULT:      -8.5     31.611     34.849
REMARK  7 active torsions:
REMARK  status: ('A' for Active; 'I' for Inactive)
REMARK    1  A    between atoms: C1_9  and  S1_1 
REMARK    2  A    between atoms: N2_6  and  S1_1 
REMARK    3  A    between atoms: C2_10  and  N1_5 
REMARK       I    between atoms: C9_17  and  N1_5 
REMARK    4  A    between atoms: C18_26  and  N2_6 
REMARK    5  A    between atoms: C3_11  and  C8_16 
REMARK    6  A    between atoms: C3_11  and  C9_17 
REMARK    7  A    between atoms: C10_18  and  C11_19 
ROOT
HETATM    1  O3  UNK     1      19.296  10.918   7.670  1.00  0.00    -0.267 OA
HETATM    2  N1  UNK     1      17.938  11.494   9.488  1.00  0.00    -0.323 N 
HETATM    3  C9  UNK     1      19.035  11.620   8.644  1.00  0.00     0.257 C 
HETATM    4  H5  UNK     1      17.862  12.154  10.258  1.00  0.00     0.169 HD
ENDROOT
BRANCH   2   5
HETATM    5  C2  UNK     1      16.891  10.543   9.404  1.00  0.00     0.035 A 
HETATM    6  C6  UNK     1      15.805  10.803   8.585  1.00  0.00     0.031 A 
HETATM    7  C4  UNK     1      14.775   9.866   8.503  1.00  0.00     0.027 A 
HETATM    8  C1  UNK     1      14.846   8.684   9.239  1.00  0.00     0.080 A 
HETATM    9  C5  UNK     1      15.948   8.438  10.059  1.00  0.00     0.027 A 
HETATM   10  C7  UNK     1      16.979   9.375  10.141  1.00  0.00     0.031 A 
BRANCH   8  11
HETATM   11  S1  UNK     1      13.557   7.511   9.136  1.00  0.00     0.276 S 
HETATM   12  O1  UNK     1      12.993   7.352  10.470  1.00  0.00    -0.200 OA
HETATM   13  O2  UNK     1      14.054   6.332   8.437  1.00  0.00    -0.200 OA
BRANCH  11  14
HETATM   14  N2  UNK     1      12.390   8.312   8.153  1.00  0.00    -0.109 N 
HETATM   15  H7  UNK     1      12.777   8.995   7.489  1.00  0.00     0.198 HD
BRANCH  14  16
HETATM   16  C18 UNK     1      11.327   7.526   7.588  1.00  0.00     0.735 A 
HETATM   17  N3  UNK     1      11.541   7.044   6.354  1.00  0.00    -0.074 NA
HETATM   18  C23 UNK     1      10.524   6.311   5.855  1.00  0.00     0.138 A 
HETATM   19  C25 UNK     1       9.350   6.063   6.538  1.00  0.00     0.040 A 
HETATM   20  C24 UNK     1       9.263   6.620   7.799  1.00  0.00     0.138 A 
HETATM   21  N4  UNK     1      10.241   7.362   8.358  1.00  0.00    -0.074 NA
ENDBRANCH  14  16
ENDBRANCH  11  14
ENDBRANCH   8  11
ENDBRANCH   2   5
BRANCH   3  22
HETATM   22  C3  UNK     1      19.955  12.753   9.037  1.00  0.00     0.043 C 
HETATM   23  C10 UNK     1      19.660  13.976   8.522  1.00  0.00     0.029 C 
BRANCH  23  24
HETATM   24  C11 UNK     1      18.571  14.294   7.612  1.00  0.00    -0.035 A 
HETATM   25  C14 UNK     1      17.329  14.678   8.118  1.00  0.00     0.011 A 
HETATM   26  C20 UNK     1      16.284  14.984   7.245  1.00  0.00     0.001 A 
HETATM   27  C22 UNK     1      16.482  14.906   5.867  1.00  0.00     0.000 A 
HETATM   28  C21 UNK     1      17.724  14.523   5.361  1.00  0.00     0.001 A 
HETATM   29  C15 UNK     1      18.768  14.217   6.233  1.00  0.00     0.011 A 
ENDBRANCH  23  24
BRANCH  22  30
HETATM   30  C8  UNK     1      21.091  12.544   9.957  1.00  0.00    -0.021 A 
HETATM   31  C12 UNK     1      20.845  12.393  11.309  1.00  0.00     0.012 A 
HETATM   32  C16 UNK     1      21.918  12.196  12.178  1.00  0.00     0.001 A 
HETATM   33  C19 UNK     1      23.220  12.155  11.681  1.00  0.00     0.000 A 
HETATM   34  C17 UNK     1      23.449  12.310  10.313  1.00  0.00     0.001 A 
HETATM   35  C13 UNK     1      22.376  12.506   9.444  1.00  0.00     0.012 A 
ENDBRANCH  22  30
ENDBRANCH   3  22
TORSDOF 7
ENDMDL
MODEL 6
REMARK VINA RESULT:      -8.5     31.639     34.868
REMARK  7 active torsions:
REMARK  status: ('A' for Active; 'I' for Inactive)
REMARK    1  A    between atoms: C1_9  and  S1_1 
REMARK    2  A    between atoms: N2_6  and  S1_1 
REMARK    3  A    between atoms: C2_10  and  N1_5 
REMARK       I    between atoms: C9_17  and  N1_5 
REMARK    4  A    between atoms: C18_26  and  N2_6 
REMARK    5  A    between atoms: C3_11  and  C8_16 
REMARK    6  A    between atoms: C3_11  and  C9_17 
REMARK    7  A    between atoms: C10_18  and  C11_19 
ROOT
HETATM    1  O3  UNK     1      19.301  10.927   7.661  1.00  0.00    -0.267 OA
HETATM    2  N1  UNK     1      17.946  11.519   9.475  1.00  0.00    -0.323 N 
HETATM    3  C9  UNK     1      19.042  11.637   8.629  1.00  0.00     0.257 C 
HETATM    4  H5  UNK     1      17.871  12.184  10.241  1.00  0.00     0.169 HD
ENDROOT
BRANCH   2   5
HETATM    5  C2  UNK     1      16.897  10.569   9.399  1.00  0.00     0.035 A 
HETATM    6  C6  UNK     1      16.957   9.429  10.184  1.00  0.00     0.031 A 
HETATM    7  C4  UNK     1      15.924   8.496  10.108  1.00  0.00     0.027 A 
HETATM    8  C1  UNK     1      14.848   8.714   9.250  1.00  0.00     0.080 A 
HETATM    9  C5  UNK     1      14.803   9.867   8.466  1.00  0.00     0.027 A 
HETATM   10  C7  UNK     1      15.836  10.802   8.542  1.00  0.00     0.031 A 
BRANCH   8  11
HETATM   11  S1  UNK     1      13.554   7.545   9.155  1.00  0.00     0.276 S 
HETATM   12  O1  UNK     1      12.982   7.406  10.488  1.00  0.00    -0.200 OA
HETATM   13  O2  UNK     1      14.050   6.354   8.475  1.00  0.00    -0.200 OA
BRANCH  11  14
HETATM   14  N2  UNK     1      12.396   8.337   8.155  1.00  0.00    -0.109 N 
HETATM   15  H7  UNK     1      12.789   9.011   7.485  1.00  0.00     0.198 HD
BRANCH  14  16
HETATM   16  C18 UNK     1      11.333   7.548   7.594  1.00  0.00     0.735 A 
HETATM   17  N3  UNK     1      10.259   7.363   8.376  1.00  0.00    -0.074 NA
HETATM   18  C23 UNK     1       9.281   6.619   7.818  1.00  0.00     0.138 A 
HETATM   19  C25 UNK     1       9.357   6.081   6.549  1.00  0.00     0.040 A 
HETATM   20  C24 UNK     1      10.519   6.350   5.855  1.00  0.00     0.138 A 
HETATM   21  N4  UNK     1      11.535   7.085   6.352  1.00  0.00    -0.074 NA
ENDBRANCH  14  16
ENDBRANCH  11  14
ENDBRANCH   8  11
ENDBRANCH   2   5
BRANCH   3  22
HETATM   22  C3  UNK     1      19.965  12.771   9.014  1.00  0.00     0.043 C 
HETATM   23  C10 UNK     1      19.666  13.992   8.498  1.00  0.00     0.029 C 
BRANCH  23  24
HETATM   24  C11 UNK     1      18.571  14.309   7.595  1.00  0.00    -0.035 A 
HETATM   25  C14 UNK     1      18.761  14.234   6.215  1.00  0.00     0.011 A 
HETATM   26  C20 UNK     1      17.710  14.538   5.349  1.00  0.00     0.001 A 
HETATM   27  C22 UNK     1      16.470  14.917   5.863  1.00  0.00     0.000 A 
HETATM   28  C21 UNK     1      16.281  14.991   7.243  1.00  0.00     0.001 A 
HETATM   29  C15 UNK     1      17.331  14.687   8.109  1.00  0.00     0.011 A 
ENDBRANCH  23  24
BRANCH  22  30
HETATM   30  C8  UNK     1      21.107  12.564   9.927  1.00  0.00    -0.021 A 
HETATM   31  C12 UNK     1      20.868  12.392  11.278  1.00  0.00     0.012 A 
HETATM   32  C16 UNK     1      21.947  12.198  12.140  1.00  0.00     0.001 A 
HETATM   33  C19 UNK     1      23.247  12.178  11.637  1.00  0.00     0.000 A 
HETATM   34  C17 UNK     1      23.470  12.353  10.272  1.00  0.00     0.001 A 
HETATM   35  C13 UNK     1      22.391  12.548   9.409  1.00  0.00     0.012 A 
ENDBRANCH  22  30
ENDBRANCH   3  22
TORSDOF 7
ENDMDL
MODEL 7
REMARK VINA RESULT:      -8.4      1.659      2.159
REMARK  7 active torsions:
REMARK  status: ('A' for Active; 'I' for Inactive)
REMARK    1  A    between atoms: C1_9  and  S1_1 
REMARK    2  A    between atoms: N2_6  and  S1_1 
REMARK    3  A    between atoms: C2_10  and  N1_5 
REMARK       I    between atoms: C9_17  and  N1_5 
REMARK    4  A    between atoms: C18_26  and  N2_6 
REMARK    5  A    between atoms: C3_11  and  C8_16 
REMARK    6  A    between atoms: C3_11  and  C9_17 
REMARK    7  A    between atoms: C10_18  and  C11_19 
ROOT
HETATM    1  O3  UNK     1      32.545  -9.235  36.654  1.00  0.00    -0.267 OA
HETATM    2  N1  UNK     1      30.915  -8.611  35.094  1.00  0.00    -0.323 N 
HETATM    3  C9  UNK     1      31.565  -8.573  36.321  1.00  0.00     0.257 C 
HETATM    4  H5  UNK     1      30.110  -8.001  34.970  1.00  0.00     0.169 HD
ENDROOT
BRANCH   2   5
HETATM    5  C2  UNK     1      31.243  -9.410  33.970  1.00  0.00     0.035 A 
HETATM    6  C6  UNK     1      30.557 -10.594  33.758  1.00  0.00     0.031 A 
HETATM    7  C4  UNK     1      30.880 -11.379  32.651  1.00  0.00     0.027 A 
HETATM    8  C1  UNK     1      31.883 -10.969  31.774  1.00  0.00     0.080 A 
HETATM    9  C5  UNK     1      32.564  -9.773  32.003  1.00  0.00     0.027 A 
HETATM   10  C7  UNK     1      32.241  -8.987  33.109  1.00  0.00     0.031 A 
BRANCH   8  11
HETATM   11  S1  UNK     1      32.288 -11.951  30.388  1.00  0.00     0.276 S 
HETATM   12  O1  UNK     1      32.132 -13.348  30.772  1.00  0.00    -0.200 OA
HETATM   13  O2  UNK     1      33.572 -11.507  29.860  1.00  0.00    -0.200 OA
BRANCH  11  14
HETATM   14  N2  UNK     1      31.039 -11.562  29.267  1.00  0.00    -0.109 N 
HETATM   15  H7  UNK     1      30.229 -12.194  29.283  1.00  0.00     0.198 HD
BRANCH  14  16
HETATM   16  C18 UNK     1      30.666 -10.181  29.121  1.00  0.00     0.735 A 
HETATM   17  N3  UNK     1      31.550  -9.394  28.490  1.00  0.00    -0.074 NA
HETATM   18  C23 UNK     1      31.167  -8.105  28.370  1.00  0.00     0.138 A 
HETATM   19  C25 UNK     1      29.971  -7.613  28.851  1.00  0.00     0.040 A 
HETATM   20  C24 UNK     1      29.156  -8.533  29.480  1.00  0.00     0.138 A 
HETATM   21  N4  UNK     1      29.476  -9.834  29.634  1.00  0.00    -0.074 NA
ENDBRANCH  14  16
ENDBRANCH  11  14
ENDBRANCH   8  11
ENDBRANCH   2   5
BRANCH   3  22
HETATM   22  C3  UNK     1      30.936  -7.599  37.292  1.00  0.00     0.043 C 
HETATM   23  C10 UNK     1      31.491  -6.359  37.346  1.00  0.00     0.029 C 
BRANCH  23  24
HETATM   24  C11 UNK     1      32.640  -5.889  36.590  1.00  0.00    -0.035 A 
HETATM   25  C14 UNK     1      33.925  -6.030  37.113  1.00  0.00     0.011 A 
HETATM   26  C20 UNK     1      35.028  -5.578  36.387  1.00  0.00     0.001 A 
HETATM   27  C22 UNK     1      34.844  -4.985  35.138  1.00  0.00     0.000 A 
HETATM   28  C21 UNK     1      33.560  -4.845  34.614  1.00  0.00     0.001 A 
HETATM   29  C15 UNK     1      32.457  -5.296  35.340  1.00  0.00     0.011 A 
ENDBRANCH  23  24
BRANCH  22  30
HETATM   30  C8  UNK     1      29.764  -7.969  38.109  1.00  0.00    -0.021 A 
HETATM   31  C12 UNK     1      28.991  -6.970  38.672  1.00  0.00     0.012 A 
HETATM   32  C16 UNK     1      27.884  -7.320  39.445  1.00  0.00     0.001 A 
HETATM   33  C19 UNK     1      27.568  -8.664  39.643  1.00  0.00     0.000 A 
HETATM   34  C17 UNK     1      28.359  -9.658  39.068  1.00  0.00     0.001 A 
HETATM   35  C13 UNK     1      29.466  -9.308  38.295  1.00  0.00     0.012 A 
ENDBRANCH  22  30
ENDBRANCH   3  22
TORSDOF 7
ENDMDL
MODEL 8
REMARK VINA RESULT:      -8.4      9.768     13.042
REMARK  7 active torsions:
REMARK  status: ('A' for Active; 'I' for Inactive)
REMARK    1  A    between atoms: C1_9  and  S1_1 
REMARK    2  A    between atoms: N2_6  and  S1_1 
REMARK    3  A    between atoms: C2_10  and  N1_5 
REMARK       I    between atoms: C9_17  and  N1_5 
REMARK    4  A    between atoms: C18_26  and  N2_6 
REMARK    5  A    between atoms: C3_11  and  C8_16 
REMARK    6  A    between atoms: C3_11  and  C9_17 
REMARK    7  A    between atoms: C10_18  and  C11_19 
ROOT
HETATM    1  O3  UNK     1      20.914  -1.550  35.323  1.00  0.00    -0.267 OA
HETATM    2  N1  UNK     1      19.175  -3.060  35.740  1.00  0.00    -0.323 N 
HETATM    3  C9  UNK     1      19.726  -1.861  35.304  1.00  0.00     0.257 C 
HETATM    4  H5  UNK     1      18.166  -3.168  35.661  1.00  0.00     0.169 HD
ENDROOT
BRANCH   2   5
HETATM    5  C2  UNK     1      19.858  -4.173  36.288  1.00  0.00     0.035 A 
HETATM    6  C6  UNK     1      20.564  -4.019  37.470  1.00  0.00     0.031 A 
HETATM    7  C4  UNK     1      21.237  -5.115  38.009  1.00  0.00     0.027 A 
HETATM    8  C1  UNK     1      21.194  -6.348  37.361  1.00  0.00     0.080 A 
HETATM    9  C5  UNK     1      20.478  -6.486  36.171  1.00  0.00     0.027 A 
HETATM   10  C7  UNK     1      19.804  -5.390  35.632  1.00  0.00     0.031 A 
BRANCH   8  11
HETATM   11  S1  UNK     1      22.035  -7.721  38.036  1.00  0.00     0.276 S 
HETATM   12  O1  UNK     1      22.918  -8.252  37.006  1.00  0.00    -0.200 OA
HETATM   13  O2  UNK     1      21.057  -8.611  38.651  1.00  0.00    -0.200 OA
BRANCH  11  14
HETATM   14  N2  UNK     1      23.011  -7.005  39.262  1.00  0.00    -0.109 N 
HETATM   15  H7  UNK     1      22.797  -7.309  40.220  1.00  0.00     0.198 HD
BRANCH  14  16
HETATM   16  C18 UNK     1      24.423  -6.884  39.018  1.00  0.00     0.735 A 
HETATM   17  N3  UNK     1      24.880  -5.642  38.802  1.00  0.00    -0.074 NA
HETATM   18  C23 UNK     1      26.209  -5.565  38.578  1.00  0.00     0.138 A 
HETATM   19  C25 UNK     1      27.049  -6.660  38.566  1.00  0.00     0.040 A 
HETATM   20  C24 UNK     1      26.445  -7.878  38.802  1.00  0.00     0.138 A 
HETATM   21  N4  UNK     1      25.125  -8.027  39.034  1.00  0.00    -0.074 NA
ENDBRANCH  14  16
ENDBRANCH  11  14
ENDBRANCH   8  11
ENDBRANCH   2   5
BRANCH   3  22
HETATM   22  C3  UNK     1      18.692  -0.893  34.775  1.00  0.00     0.043 C 
HETATM   23  C10 UNK     1      18.612  -0.776  33.423  1.00  0.00     0.029 C 
BRANCH  23  24
HETATM   24  C11 UNK     1      19.437  -1.461  32.442  1.00  0.00    -0.035 A 
HETATM   25  C14 UNK     1      19.479  -1.006  31.124  1.00  0.00     0.011 A 
HETATM   26  C20 UNK     1      20.271  -1.663  30.183  1.00  0.00     0.001 A 
HETATM   27  C22 UNK     1      21.021  -2.777  30.560  1.00  0.00     0.000 A 
HETATM   28  C21 UNK     1      20.980  -3.232  31.877  1.00  0.00     0.001 A 
HETATM   29  C15 UNK     1      20.188  -2.575  32.819  1.00  0.00     0.011 A 
ENDBRANCH  23  24
BRANCH  22  30
HETATM   30  C8  UNK     1      17.797  -0.146  35.681  1.00  0.00    -0.021 A 
HETATM   31  C12 UNK     1      18.343   0.557  36.740  1.00  0.00     0.012 A 
HETATM   32  C16 UNK     1      17.498   1.263  37.596  1.00  0.00     0.001 A 
HETATM   33  C19 UNK     1      16.120   1.254  37.380  1.00  0.00     0.000 A 
HETATM   34  C17 UNK     1      15.587   0.539  36.307  1.00  0.00     0.001 A 
HETATM   35  C13 UNK     1      16.432  -0.166  35.451  1.00  0.00     0.012 A 
ENDBRANCH  22  30
ENDBRANCH   3  22
TORSDOF 7
ENDMDL
MODEL 9
REMARK VINA RESULT:      -8.3      9.525     13.294
REMARK  7 active torsions:
REMARK  status: ('A' for Active; 'I' for Inactive)
REMARK    1  A    between atoms: C1_9  and  S1_1 
REMARK    2  A    between atoms: N2_6  and  S1_1 
REMARK    3  A    between atoms: C2_10  and  N1_5 
REMARK       I    between atoms: C9_17  and  N1_5 
REMARK    4  A    between atoms: C18_26  and  N2_6 
REMARK    5  A    between atoms: C3_11  and  C8_16 
REMARK    6  A    between atoms: C3_11  and  C9_17 
REMARK    7  A    between atoms: C10_18  and  C11_19 
ROOT
HETATM    1  O3  UNK     1      21.384  -1.858  35.098  1.00  0.00    -0.267 OA
HETATM    2  N1  UNK     1      19.698  -3.466  34.872  1.00  0.00    -0.323 N 
HETATM    3  C9  UNK     1      20.336  -2.262  34.600  1.00  0.00     0.257 C 
HETATM    4  H5  UNK     1      18.829  -3.657  34.379  1.00  0.00     0.169 HD
ENDROOT
BRANCH   2   5
HETATM    5  C2  UNK     1      20.118  -4.481  35.766  1.00  0.00     0.035 A 
HETATM    6  C6  UNK     1      20.125  -5.799  35.340  1.00  0.00     0.031 A 
HETATM    7  C4  UNK     1      20.539  -6.797  36.221  1.00  0.00     0.027 A 
HETATM    8  C1  UNK     1      20.941  -6.465  37.513  1.00  0.00     0.080 A 
HETATM    9  C5  UNK     1      20.928  -5.132  37.927  1.00  0.00     0.027 A 
HETATM   10  C7  UNK     1      20.514  -4.133  37.046  1.00  0.00     0.031 A 
BRANCH   8  11
HETATM   11  S1  UNK     1      21.460  -7.715  38.616  1.00  0.00     0.276 S 
HETATM   12  O1  UNK     1      22.184  -8.717  37.844  1.00  0.00    -0.200 OA
HETATM   13  O2  UNK     1      20.317  -8.135  39.417  1.00  0.00    -0.200 OA
BRANCH  11  14
HETATM   14  N2  UNK     1      22.593  -6.892  39.620  1.00  0.00    -0.109 N 
HETATM   15  H7  UNK     1      22.470  -7.046  40.630  1.00  0.00     0.198 HD
BRANCH  14  16
HETATM   16  C18 UNK     1      23.974  -6.886  39.220  1.00  0.00     0.735 A 
HETATM   17  N3  UNK     1      24.517  -5.681  38.992  1.00  0.00    -0.074 NA
HETATM   18  C23 UNK     1      25.814  -5.713  38.620  1.00  0.00     0.138 A 
HETATM   19  C25 UNK     1      26.542  -6.877  38.477  1.00  0.00     0.040 A 
HETATM   20  C24 UNK     1      25.858  -8.047  38.743  1.00  0.00     0.138 A 
HETATM   21  N4  UNK     1      24.563  -8.087  39.120  1.00  0.00    -0.074 NA
ENDBRANCH  14  16
ENDBRANCH  11  14
ENDBRANCH   8  11
ENDBRANCH   2   5
BRANCH   3  22
HETATM   22  C3  UNK     1      19.597  -1.417  33.587  1.00  0.00     0.043 C 
HETATM   23  C10 UNK     1      18.672  -0.554  34.083  1.00  0.00     0.029 C 
BRANCH  23  24
HETATM   24  C11 UNK     1      18.303  -0.384  35.479  1.00  0.00    -0.035 A 
HETATM   25  C14 UNK     1      17.877  -1.481  36.227  1.00  0.00     0.011 A 
HETATM   26  C20 UNK     1      17.524  -1.319  37.567  1.00  0.00     0.001 A 
HETATM   27  C22 UNK     1      17.596  -0.057  38.158  1.00  0.00     0.000 A 
HETATM   28  C21 UNK     1      18.022   1.040  37.410  1.00  0.00     0.001 A 
HETATM   29  C15 UNK     1      18.375   0.877  36.071  1.00  0.00     0.011 A 
ENDBRANCH  23  24
BRANCH  22  30
HETATM   30  C8  UNK     1      19.892  -1.506  32.143  1.00  0.00    -0.021 A 
HETATM   31  C12 UNK     1      20.485  -2.651  31.645  1.00  0.00     0.012 A 
HETATM   32  C16 UNK     1      20.764  -2.734  30.281  1.00  0.00     0.001 A 
HETATM   33  C19 UNK     1      20.448  -1.670  29.438  1.00  0.00     0.000 A 
HETATM   34  C17 UNK     1      19.851  -0.522  29.958  1.00  0.00     0.001 A 
HETATM   35  C13 UNK     1      19.571  -0.439  31.322  1.00  0.00     0.012 A 
ENDBRANCH  22  30
ENDBRANCH   3  22
TORSDOF 7
ENDMDL
MODEL 10
REMARK VINA RESULT:      -8.3     31.014     34.002
REMARK  7 active torsions:
REMARK  status: ('A' for Active; 'I' for Inactive)
REMARK    1  A    between atoms: C1_9  and  S1_1 
REMARK    2  A    between atoms: N2_6  and  S1_1 
REMARK    3  A    between atoms: C2_10  and  N1_5 
REMARK       I    between atoms: C9_17  and  N1_5 
REMARK    4  A    between atoms: C18_26  and  N2_6 
REMARK    5  A    between atoms: C3_11  and  C8_16 
REMARK    6  A    between atoms: C3_11  and  C9_17 
REMARK    7  A    between atoms: C10_18  and  C11_19 
ROOT
HETATM    1  O3  UNK     1      18.602  10.799   8.470  1.00  0.00    -0.267 OA
HETATM    2  N1  UNK     1      17.258  10.603  10.377  1.00  0.00    -0.323 N 
HETATM    3  C9  UNK     1      18.198  11.212   9.554  1.00  0.00     0.257 C 
HETATM    4  H5  UNK     1      17.029  11.069  11.251  1.00  0.00     0.169 HD
ENDROOT
BRANCH   2   5
HETATM    5  C2  UNK     1      16.564   9.390  10.141  1.00  0.00     0.035 A 
HETATM    6  C6  UNK     1      17.204   8.186  10.380  1.00  0.00     0.031 A 
HETATM    7  C4  UNK     1      16.520   6.993  10.148  1.00  0.00     0.027 A 
HETATM    8  C1  UNK     1      15.207   7.021   9.681  1.00  0.00     0.080 A 
HETATM    9  C5  UNK     1      14.577   8.243   9.445  1.00  0.00     0.027 A 
HETATM   10  C7  UNK     1      15.261   9.437   9.677  1.00  0.00     0.031 A 
BRANCH   8  11
HETATM   11  S1  UNK     1      14.350   5.528   9.391  1.00  0.00     0.276 S 
HETATM   12  O1  UNK     1      13.141   5.544  10.203  1.00  0.00    -0.200 OA
HETATM   13  O2  UNK     1      15.284   4.418   9.541  1.00  0.00    -0.200 OA
BRANCH  11  14
HETATM   14  N2  UNK     1      13.886   5.669   7.737  1.00  0.00    -0.109 N 
HETATM   15  H7  UNK     1      14.303   4.970   7.109  1.00  0.00     0.198 HD
BRANCH  14  16
HETATM   16  C18 UNK     1      12.504   5.931   7.442  1.00  0.00     0.735 A 
HETATM   17  N3  UNK     1      12.263   6.647   6.334  1.00  0.00    -0.074 NA
HETATM   18  C23 UNK     1      10.955   6.873   6.087  1.00  0.00     0.138 A 
HETATM   19  C25 UNK     1       9.932   6.417   6.894  1.00  0.00     0.040 A 
HETATM   20  C24 UNK     1      10.323   5.694   8.002  1.00  0.00     0.138 A 
HETATM   21  N4  UNK     1      11.610   5.431   8.309  1.00  0.00    -0.074 NA
ENDBRANCH  14  16
ENDBRANCH  11  14
ENDBRANCH   8  11
ENDBRANCH   2   5
BRANCH   3  22
HETATM   22  C3  UNK     1      18.736  12.503  10.128  1.00  0.00     0.043 C 
HETATM   23  C10 UNK     1      18.155  13.648   9.683  1.00  0.00     0.029 C 
BRANCH  23  24
HETATM   24  C11 UNK     1      17.094  13.756   8.694  1.00  0.00    -0.035 A 
HETATM   25  C14 UNK     1      15.762  13.616   9.081  1.00  0.00     0.011 A 
HETATM   26  C20 UNK     1      14.744  13.720   8.132  1.00  0.00     0.001 A 
HETATM   27  C22 UNK     1      15.060  13.963   6.795  1.00  0.00     0.000 A 
HETATM   28  C21 UNK     1      16.392  14.103   6.408  1.00  0.00     0.001 A 
HETATM   29  C15 UNK     1      17.410  13.999   7.357  1.00  0.00     0.011 A 
ENDBRANCH  23  24
BRANCH  22  30
HETATM   30  C8  UNK     1      19.810  12.512  11.141  1.00  0.00    -0.021 A 
HETATM   31  C12 UNK     1      19.533  12.975  12.414  1.00  0.00     0.012 A 
HETATM   32  C16 UNK     1      20.548  12.985  13.370  1.00  0.00     0.001 A 
HETATM   33  C19 UNK     1      21.824  12.531  13.038  1.00  0.00     0.000 A 
HETATM   34  C17 UNK     1      22.086  12.067  11.748  1.00  0.00     0.001 A 
HETATM   35  C13 UNK     1      21.070  12.058  10.792  1.00  0.00     0.012 A 
ENDBRANCH  22  30
ENDBRANCH   3  22
TORSDOF 7
ENDMDL
