MODEL 1
REMARK VINA RESULT:      -7.3      0.000      0.000
REMARK  12 active torsions:
REMARK  status: ('A' for Active; 'I' for Inactive)
REMARK    1  A    between atoms: C10_17  and  O1_1 
REMARK    2  A    between atoms: C11_18  and  O1_1 
REMARK    3  A    between atoms: C12_19  and  O2_2 
REMARK    4  A    between atoms: C13_20  and  O2_2 
REMARK    5  A    between atoms: C14_21  and  O3_3 
REMARK    6  A    between atoms: C22_29  and  O3_3 
REMARK    7  A    between atoms: C25_32  and  N1_6 
REMARK    8  A    between atoms: C1_8  and  C2_9 
REMARK    9  A    between atoms: C1_8  and  C3_10 
REMARK   10  A    between atoms: C11_18  and  C12_19 
REMARK   11  A    between atoms: C15_22  and  C19_26 
REMARK   12  A    between atoms: C20_27  and  C21_28 
ROOT
HETATM    1  N2  UNK     1      28.794  -8.693  31.621  1.00  0.00    -0.191 NA
HETATM    2  C19 UNK     1      31.129  -7.751  33.999  1.00  0.00     0.035 C 
HETATM    3  C20 UNK     1      31.078  -8.100  32.689  1.00  0.00     0.055 C 
HETATM    4  C29 UNK     1      29.817  -8.427  32.101  1.00  0.00     0.100 C 
ENDROOT
BRANCH   3   5
HETATM    5  C21 UNK     1      32.280  -8.151  31.833  1.00  0.00    -0.015 A 
HETATM    6  C23 UNK     1      33.520  -7.902  32.396  1.00  0.00     0.015 A 
HETATM    7  C26 UNK     1      34.656  -7.951  31.587  1.00  0.00     0.037 A 
HETATM    8  C25 UNK     1      34.534  -8.251  30.230  1.00  0.00     0.102 A 
HETATM    9  C27 UNK     1      33.276  -8.498  29.680  1.00  0.00     0.037 A 
HETATM   10  C24 UNK     1      32.140  -8.450  30.489  1.00  0.00     0.015 A 
BRANCH   8  11
HETATM   11  N1  UNK     1      35.691  -8.301  29.408  1.00  0.00    -0.116 N 
HETATM   12  O4  UNK     1      36.608  -9.106  29.698  1.00  0.00    -0.532 OA
HETATM   13  O5  UNK     1      35.764  -7.539  28.414  1.00  0.00    -0.532 OA
ENDBRANCH   8  11
ENDBRANCH   3   5
BRANCH   2  14
HETATM   14  C15 UNK     1      30.010  -7.664  34.925  1.00  0.00    -0.032 A 
HETATM   15  C16 UNK     1      29.731  -8.725  35.785  1.00  0.00     0.051 A 
HETATM   16  C14 UNK     1      28.658  -8.641  36.671  1.00  0.00     0.102 A 
HETATM   17  C13 UNK     1      27.869  -7.496  36.693  1.00  0.00     0.102 A 
HETATM   18  C17 UNK     1      28.142  -6.434  35.837  1.00  0.00     0.040 A 
HETATM   19  C18 UNK     1      29.215  -6.518  34.951  1.00  0.00     0.014 A 
BRANCH  16  20
HETATM   20  O3  UNK     1      28.396  -9.685  37.508  1.00  0.00    -0.349 OA
BRANCH  20  21
HETATM   21  C22 UNK     1      29.107  -9.718  38.744  1.00  0.00     0.171 C 
HETATM   22  C28 UNK     1      28.164 -10.165  39.841  1.00  0.00     0.034 C 
ENDBRANCH  20  21
ENDBRANCH  16  20
BRANCH  17  23
HETATM   23  O2  UNK     1      26.813  -7.401  37.561  1.00  0.00    -0.346 OA
BRANCH  23  24
HETATM   24  C12 UNK     1      26.838  -6.318  38.484  1.00  0.00     0.202 C 
BRANCH  24  25
HETATM   25  C11 UNK     1      27.937  -6.562  39.501  1.00  0.00     0.202 C 
BRANCH  25  26
HETATM   26  O1  UNK     1      28.729  -5.383  39.622  1.00  0.00    -0.349 OA
BRANCH  26  27
HETATM   27  C10 UNK     1      29.763  -5.238  38.749  1.00  0.00     0.068 A 
HETATM   28  C8  UNK     1      29.899  -4.058  38.017  1.00  0.00     0.037 A 
HETATM   29  C6  UNK     1      30.959  -3.911  37.123  1.00  0.00     0.010 A 
HETATM   30  C3  UNK     1      31.861  -4.946  36.976  1.00  0.00    -0.054 A 
HETATM   31  C7  UNK     1      31.746  -6.123  37.690  1.00  0.00     0.010 A 
HETATM   32  C9  UNK     1      30.687  -6.270  38.585  1.00  0.00     0.037 A 
BRANCH  30  33
HETATM   33  C1  UNK     1      33.015  -4.786  36.001  1.00  0.00     0.014 C 
HETATM   34  C4  UNK     1      32.496  -4.385  34.614  1.00  0.00     0.015 C 
BRANCH  33  35
HETATM   35  C2  UNK     1      33.897  -6.045  35.889  1.00  0.00     0.004 C 
HETATM   36  C5  UNK     1      35.331  -5.814  36.352  1.00  0.00     0.006 C 
ENDBRANCH  33  35
ENDBRANCH  30  33
ENDBRANCH  26  27
ENDBRANCH  25  26
ENDBRANCH  24  25
ENDBRANCH  23  24
ENDBRANCH  17  23
ENDBRANCH   2  14
TORSDOF 12
ENDMDL
MODEL 2
REMARK VINA RESULT:      -7.2      3.694      8.183
REMARK  12 active torsions:
REMARK  status: ('A' for Active; 'I' for Inactive)
REMARK    1  A    between atoms: C10_17  and  O1_1 
REMARK    2  A    between atoms: C11_18  and  O1_1 
REMARK    3  A    between atoms: C12_19  and  O2_2 
REMARK    4  A    between atoms: C13_20  and  O2_2 
REMARK    5  A    between atoms: C14_21  and  O3_3 
REMARK    6  A    between atoms: C22_29  and  O3_3 
REMARK    7  A    between atoms: C25_32  and  N1_6 
REMARK    8  A    between atoms: C1_8  and  C2_9 
REMARK    9  A    between atoms: C1_8  and  C3_10 
REMARK   10  A    between atoms: C11_18  and  C12_19 
REMARK   11  A    between atoms: C15_22  and  C19_26 
REMARK   12  A    between atoms: C20_27  and  C21_28 
ROOT
HETATM    1  N2  UNK     1      27.974 -10.335  39.753  1.00  0.00    -0.191 NA
HETATM    2  C19 UNK     1      28.094  -8.826  36.637  1.00  0.00     0.035 C 
HETATM    3  C20 UNK     1      27.229  -9.538  37.404  1.00  0.00     0.055 C 
HETATM    4  C29 UNK     1      27.642  -9.977  38.699  1.00  0.00     0.100 C 
ENDROOT
BRANCH   3   5
HETATM    5  C21 UNK     1      25.863  -9.875  36.956  1.00  0.00    -0.015 A 
HETATM    6  C23 UNK     1      24.839  -8.970  37.172  1.00  0.00     0.015 A 
HETATM    7  C26 UNK     1      23.549  -9.289  36.747  1.00  0.00     0.037 A 
HETATM    8  C25 UNK     1      23.304 -10.507  36.112  1.00  0.00     0.102 A 
HETATM    9  C27 UNK     1      24.349 -11.407  35.903  1.00  0.00     0.037 A 
HETATM   10  C24 UNK     1      25.640 -11.088  36.328  1.00  0.00     0.015 A 
BRANCH   8  11
HETATM   11  N1  UNK     1      21.990 -10.831  35.680  1.00  0.00    -0.116 N 
HETATM   12  O4  UNK     1      21.719 -10.766  34.457  1.00  0.00    -0.532 OA
HETATM   13  O5  UNK     1      21.137 -11.172  36.534  1.00  0.00    -0.532 OA
ENDBRANCH   8  11
ENDBRANCH   3   5
BRANCH   2  14
HETATM   14  C15 UNK     1      29.452  -8.437  36.984  1.00  0.00    -0.032 A 
HETATM   15  C16 UNK     1      29.708  -7.155  37.469  1.00  0.00     0.051 A 
HETATM   16  C14 UNK     1      31.010  -6.782  37.800  1.00  0.00     0.102 A 
HETATM   17  C13 UNK     1      32.049  -7.693  37.646  1.00  0.00     0.102 A 
HETATM   18  C17 UNK     1      31.801  -8.973  37.163  1.00  0.00     0.040 A 
HETATM   19  C18 UNK     1      30.499  -9.346  36.832  1.00  0.00     0.014 A 
BRANCH  16  20
HETATM   20  O3  UNK     1      31.248  -5.525  38.274  1.00  0.00    -0.349 OA
BRANCH  20  21
HETATM   21  C22 UNK     1      30.484  -4.464  37.705  1.00  0.00     0.171 C 
HETATM   22  C28 UNK     1      31.422  -3.503  37.005  1.00  0.00     0.034 C 
ENDBRANCH  20  21
ENDBRANCH  16  20
BRANCH  17  23
HETATM   23  O2  UNK     1      33.333  -7.339  37.970  1.00  0.00    -0.346 OA
BRANCH  23  24
HETATM   24  C12 UNK     1      34.270  -7.279  36.901  1.00  0.00     0.202 C 
BRANCH  24  25
HETATM   25  C11 UNK     1      34.032  -6.010  36.106  1.00  0.00     0.202 C 
BRANCH  25  26
HETATM   26  O1  UNK     1      33.924  -6.340  34.723  1.00  0.00    -0.349 OA
BRANCH  26  27
HETATM   27  C10 UNK     1      32.727  -6.826  34.293  1.00  0.00     0.068 A 
HETATM   28  C8  UNK     1      31.582  -6.033  34.374  1.00  0.00     0.037 A 
HETATM   29  C6  UNK     1      30.356  -6.532  33.934  1.00  0.00     0.010 A 
HETATM   30  C3  UNK     1      30.298  -7.813  33.423  1.00  0.00    -0.054 A 
HETATM   31  C7  UNK     1      31.419  -8.617  33.334  1.00  0.00     0.010 A 
HETATM   32  C9  UNK     1      32.644  -8.118  33.774  1.00  0.00     0.037 A 
BRANCH  30  33
HETATM   33  C1  UNK     1      28.963  -8.357  32.945  1.00  0.00     0.014 C 
HETATM   34  C4  UNK     1      28.899  -9.877  33.142  1.00  0.00     0.015 C 
BRANCH  33  35
HETATM   35  C2  UNK     1      28.651  -8.004  31.476  1.00  0.00     0.004 C 
HETATM   36  C5  UNK     1      27.655  -6.859  31.335  1.00  0.00     0.006 C 
ENDBRANCH  33  35
ENDBRANCH  30  33
ENDBRANCH  26  27
ENDBRANCH  25  26
ENDBRANCH  24  25
ENDBRANCH  23  24
ENDBRANCH  17  23
ENDBRANCH   2  14
TORSDOF 12
ENDMDL
MODEL 3
REMARK VINA RESULT:      -7.1     12.945     16.724
REMARK  12 active torsions:
REMARK  status: ('A' for Active; 'I' for Inactive)
REMARK    1  A    between atoms: C10_17  and  O1_1 
REMARK    2  A    between atoms: C11_18  and  O1_1 
REMARK    3  A    between atoms: C12_19  and  O2_2 
REMARK    4  A    between atoms: C13_20  and  O2_2 
REMARK    5  A    between atoms: C14_21  and  O3_3 
REMARK    6  A    between atoms: C22_29  and  O3_3 
REMARK    7  A    between atoms: C25_32  and  N1_6 
REMARK    8  A    between atoms: C1_8  and  C2_9 
REMARK    9  A    between atoms: C1_8  and  C3_10 
REMARK   10  A    between atoms: C11_18  and  C12_19 
REMARK   11  A    between atoms: C15_22  and  C19_26 
REMARK   12  A    between atoms: C20_27  and  C21_28 
ROOT
HETATM    1  N2  UNK     1      17.950   3.399  31.380  1.00  0.00    -0.191 NA
HETATM    2  C19 UNK     1      18.396   3.835  34.786  1.00  0.00     0.035 C 
HETATM    3  C20 UNK     1      18.195   4.582  33.671  1.00  0.00     0.055 C 
HETATM    4  C29 UNK     1      18.060   3.928  32.408  1.00  0.00     0.100 C 
ENDROOT
BRANCH   3   5
HETATM    5  C21 UNK     1      18.103   6.055  33.707  1.00  0.00    -0.015 A 
HETATM    6  C23 UNK     1      19.136   6.781  34.273  1.00  0.00     0.015 A 
HETATM    7  C26 UNK     1      19.050   8.174  34.307  1.00  0.00     0.037 A 
HETATM    8  C25 UNK     1      17.933   8.816  33.772  1.00  0.00     0.102 A 
HETATM    9  C27 UNK     1      16.901   8.067  33.206  1.00  0.00     0.037 A 
HETATM   10  C24 UNK     1      16.988   6.675  33.172  1.00  0.00     0.015 A 
BRANCH   8  11
HETATM   11  N1  UNK     1      17.846  10.234  33.806  1.00  0.00    -0.116 N 
HETATM   12  O4  UNK     1      16.750  10.769  34.098  1.00  0.00    -0.532 OA
HETATM   13  O5  UNK     1      18.868  10.911  33.542  1.00  0.00    -0.532 OA
ENDBRANCH   8  11
ENDBRANCH   3   5
BRANCH   2  14
HETATM   14  C15 UNK     1      18.496   2.386  34.862  1.00  0.00    -0.032 A 
HETATM   15  C16 UNK     1      18.320   1.613  33.714  1.00  0.00     0.051 A 
HETATM   16  C14 UNK     1      18.415   0.224  33.788  1.00  0.00     0.102 A 
HETATM   17  C13 UNK     1      18.686  -0.385  35.008  1.00  0.00     0.102 A 
HETATM   18  C17 UNK     1      18.863   0.379  36.156  1.00  0.00     0.040 A 
HETATM   19  C18 UNK     1      18.768   1.769  36.083  1.00  0.00     0.014 A 
BRANCH  16  20
HETATM   20  O3  UNK     1      18.241  -0.520  32.659  1.00  0.00    -0.349 OA
BRANCH  20  21
HETATM   21  C22 UNK     1      19.240  -0.406  31.648  1.00  0.00     0.171 C 
HETATM   22  C28 UNK     1      20.021  -1.702  31.579  1.00  0.00     0.034 C 
ENDBRANCH  20  21
ENDBRANCH  16  20
BRANCH  17  23
HETATM   23  O2  UNK     1      18.784  -1.750  35.092  1.00  0.00    -0.346 OA
BRANCH  23  24
HETATM   24  C12 UNK     1      18.981  -2.299  36.390  1.00  0.00     0.202 C 
BRANCH  24  25
HETATM   25  C11 UNK     1      20.291  -3.063  36.408  1.00  0.00     0.202 C 
BRANCH  25  26
HETATM   26  O1  UNK     1      20.167  -4.220  35.585  1.00  0.00    -0.349 OA
BRANCH  26  27
HETATM   27  C10 UNK     1      19.921  -5.404  36.212  1.00  0.00     0.068 A 
HETATM   28  C8  UNK     1      20.202  -5.544  37.571  1.00  0.00     0.037 A 
HETATM   29  C6  UNK     1      19.950  -6.757  38.213  1.00  0.00     0.010 A 
HETATM   30  C3  UNK     1      19.424  -7.805  37.483  1.00  0.00    -0.054 A 
HETATM   31  C7  UNK     1      19.140  -7.689  36.136  1.00  0.00     0.010 A 
HETATM   32  C9  UNK     1      19.391  -6.476  35.495  1.00  0.00     0.037 A 
BRANCH  30  33
HETATM   33  C1  UNK     1      19.151  -9.126  38.182  1.00  0.00     0.014 C 
HETATM   34  C4  UNK     1      20.005  -9.251  39.450  1.00  0.00     0.015 C 
BRANCH  33  35
HETATM   35  C2  UNK     1      19.376 -10.353  37.275  1.00  0.00     0.004 C 
HETATM   36  C5  UNK     1      20.839 -10.770  37.186  1.00  0.00     0.006 C 
ENDBRANCH  33  35
ENDBRANCH  30  33
ENDBRANCH  26  27
ENDBRANCH  25  26
ENDBRANCH  24  25
ENDBRANCH  23  24
ENDBRANCH  17  23
ENDBRANCH   2  14
TORSDOF 12
ENDMDL
MODEL 4
REMARK VINA RESULT:      -7.1     13.819     17.267
REMARK  12 active torsions:
REMARK  status: ('A' for Active; 'I' for Inactive)
REMARK    1  A    between atoms: C10_17  and  O1_1 
REMARK    2  A    between atoms: C11_18  and  O1_1 
REMARK    3  A    between atoms: C12_19  and  O2_2 
REMARK    4  A    between atoms: C13_20  and  O2_2 
REMARK    5  A    between atoms: C14_21  and  O3_3 
REMARK    6  A    between atoms: C22_29  and  O3_3 
REMARK    7  A    between atoms: C25_32  and  N1_6 
REMARK    8  A    between atoms: C1_8  and  C2_9 
REMARK    9  A    between atoms: C1_8  and  C3_10 
REMARK   10  A    between atoms: C11_18  and  C12_19 
REMARK   11  A    between atoms: C15_22  and  C19_26 
REMARK   12  A    between atoms: C20_27  and  C21_28 
ROOT
HETATM    1  N2  UNK     1      22.061  -1.750  35.340  1.00  0.00    -0.191 NA
HETATM    2  C19 UNK     1      18.660  -2.222  35.794  1.00  0.00     0.035 C 
HETATM    3  C20 UNK     1      19.831  -2.859  36.049  1.00  0.00     0.055 C 
HETATM    4  C29 UNK     1      21.060  -2.246  35.657  1.00  0.00     0.100 C 
ENDROOT
BRANCH   3   5
HETATM    5  C21 UNK     1      19.890  -4.169  36.728  1.00  0.00    -0.015 A 
HETATM    6  C23 UNK     1      20.941  -4.436  37.588  1.00  0.00     0.015 A 
HETATM    7  C26 UNK     1      20.997  -5.674  38.230  1.00  0.00     0.037 A 
HETATM    8  C25 UNK     1      20.000  -6.623  38.003  1.00  0.00     0.102 A 
HETATM    9  C27 UNK     1      18.949  -6.336  37.132  1.00  0.00     0.037 A 
HETATM   10  C24 UNK     1      18.893  -5.098  36.490  1.00  0.00     0.015 A 
BRANCH   8  11
HETATM   11  N1  UNK     1      20.058  -7.882  38.657  1.00  0.00    -0.116 N 
HETATM   12  O4  UNK     1      20.774  -8.004  39.680  1.00  0.00    -0.532 OA
HETATM   13  O5  UNK     1      19.390  -8.838  38.193  1.00  0.00    -0.532 OA
ENDBRANCH   8  11
ENDBRANCH   3   5
BRANCH   2  14
HETATM   14  C15 UNK     1      18.491  -0.933  35.140  1.00  0.00    -0.032 A 
HETATM   15  C16 UNK     1      18.646  -0.825  33.758  1.00  0.00     0.051 A 
HETATM   16  C14 UNK     1      18.485   0.410  33.133  1.00  0.00     0.102 A 
HETATM   17  C13 UNK     1      18.169   1.532  33.892  1.00  0.00     0.102 A 
HETATM   18  C17 UNK     1      18.012   1.431  35.270  1.00  0.00     0.040 A 
HETATM   19  C18 UNK     1      18.173   0.196  35.896  1.00  0.00     0.014 A 
BRANCH  16  20
HETATM   20  O3  UNK     1      18.639   0.503  31.781  1.00  0.00    -0.349 OA
BRANCH  20  21
HETATM   21  C22 UNK     1      19.664  -0.294  31.191  1.00  0.00     0.171 C 
HETATM   22  C28 UNK     1      19.922   0.202  29.783  1.00  0.00     0.034 C 
ENDBRANCH  20  21
ENDBRANCH  16  20
BRANCH  17  23
HETATM   23  O2  UNK     1      18.006   2.751  33.288  1.00  0.00    -0.346 OA
BRANCH  23  24
HETATM   24  C12 UNK     1      18.370   3.897  34.050  1.00  0.00     0.202 C 
BRANCH  24  25
HETATM   25  C11 UNK     1      18.500   5.087  33.119  1.00  0.00     0.202 C 
BRANCH  25  26
HETATM   26  O1  UNK     1      17.238   5.340  32.507  1.00  0.00    -0.349 OA
BRANCH  26  27
HETATM   27  C10 UNK     1      16.535   6.416  32.958  1.00  0.00     0.068 A 
HETATM   28  C8  UNK     1      15.415   6.862  32.256  1.00  0.00     0.037 A 
HETATM   29  C6  UNK     1      14.695   7.963  32.719  1.00  0.00     0.010 A 
HETATM   30  C3  UNK     1      15.111   8.598  33.872  1.00  0.00    -0.054 A 
HETATM   31  C7  UNK     1      16.217   8.175  34.583  1.00  0.00     0.010 A 
HETATM   32  C9  UNK     1      16.936   7.073  34.121  1.00  0.00     0.037 A 
BRANCH  30  33
HETATM   33  C1  UNK     1      14.328   9.799  34.376  1.00  0.00     0.014 C 
HETATM   34  C4  UNK     1      13.635  10.517  33.211  1.00  0.00     0.015 C 
BRANCH  33  35
HETATM   35  C2  UNK     1      15.191  10.800  35.170  1.00  0.00     0.004 C 
HETATM   36  C5  UNK     1      15.786  11.899  34.298  1.00  0.00     0.006 C 
ENDBRANCH  33  35
ENDBRANCH  30  33
ENDBRANCH  26  27
ENDBRANCH  25  26
ENDBRANCH  24  25
ENDBRANCH  23  24
ENDBRANCH  17  23
ENDBRANCH   2  14
TORSDOF 12
ENDMDL
MODEL 5
REMARK VINA RESULT:      -7.0      2.582      8.276
REMARK  12 active torsions:
REMARK  status: ('A' for Active; 'I' for Inactive)
REMARK    1  A    between atoms: C10_17  and  O1_1 
REMARK    2  A    between atoms: C11_18  and  O1_1 
REMARK    3  A    between atoms: C12_19  and  O2_2 
REMARK    4  A    between atoms: C13_20  and  O2_2 
REMARK    5  A    between atoms: C14_21  and  O3_3 
REMARK    6  A    between atoms: C22_29  and  O3_3 
REMARK    7  A    between atoms: C25_32  and  N1_6 
REMARK    8  A    between atoms: C1_8  and  C2_9 
REMARK    9  A    between atoms: C1_8  and  C3_10 
REMARK   10  A    between atoms: C11_18  and  C12_19 
REMARK   11  A    between atoms: C15_22  and  C19_26 
REMARK   12  A    between atoms: C20_27  and  C21_28 
ROOT
HETATM    1  N2  UNK     1      29.268  -9.967  34.716  1.00  0.00    -0.191 NA
HETATM    2  C19 UNK     1      31.917  -7.736  34.745  1.00  0.00     0.035 C 
HETATM    3  C20 UNK     1      30.699  -7.896  35.323  1.00  0.00     0.055 C 
HETATM    4  C29 UNK     1      29.911  -9.039  34.987  1.00  0.00     0.100 C 
ENDROOT
BRANCH   3   5
HETATM    5  C21 UNK     1      30.151  -6.932  36.297  1.00  0.00    -0.015 A 
HETATM    6  C23 UNK     1      29.000  -7.258  36.993  1.00  0.00     0.015 A 
HETATM    7  C26 UNK     1      28.481  -6.347  37.915  1.00  0.00     0.037 A 
HETATM    8  C25 UNK     1      29.124  -5.127  38.127  1.00  0.00     0.102 A 
HETATM    9  C27 UNK     1      30.283  -4.816  37.416  1.00  0.00     0.037 A 
HETATM   10  C24 UNK     1      30.801  -5.726  36.494  1.00  0.00     0.015 A 
BRANCH   8  11
HETATM   11  N1  UNK     1      28.596  -4.201  39.066  1.00  0.00    -0.116 N 
HETATM   12  O4  UNK     1      27.369  -3.941  39.040  1.00  0.00    -0.532 OA
HETATM   13  O5  UNK     1      29.372  -3.670  39.897  1.00  0.00    -0.532 OA
ENDBRANCH   8  11
ENDBRANCH   3   5
BRANCH   2  14
HETATM   14  C15 UNK     1      32.550  -8.624  33.783  1.00  0.00    -0.032 A 
HETATM   15  C16 UNK     1      32.300  -8.470  32.420  1.00  0.00     0.051 A 
HETATM   16  C14 UNK     1      32.907  -9.322  31.498  1.00  0.00     0.102 A 
HETATM   17  C13 UNK     1      33.762 -10.324  31.944  1.00  0.00     0.102 A 
HETATM   18  C17 UNK     1      34.016 -10.484  33.302  1.00  0.00     0.040 A 
HETATM   19  C18 UNK     1      33.409  -9.632  34.223  1.00  0.00     0.014 A 
BRANCH  16  20
HETATM   20  O3  UNK     1      32.654  -9.160  30.168  1.00  0.00    -0.349 OA
BRANCH  20  21
HETATM   21  C22 UNK     1      31.608  -8.258  29.813  1.00  0.00     0.171 C 
HETATM   22  C28 UNK     1      31.370  -8.344  28.320  1.00  0.00     0.034 C 
ENDBRANCH  20  21
ENDBRANCH  16  20
BRANCH  17  23
HETATM   23  O2  UNK     1      34.365 -11.166  31.047  1.00  0.00    -0.346 OA
BRANCH  23  24
HETATM   24  C12 UNK     1      35.788 -11.162  31.022  1.00  0.00     0.202 C 
BRANCH  24  25
HETATM   25  C11 UNK     1      36.271  -9.794  30.580  1.00  0.00     0.202 C 
BRANCH  25  26
HETATM   26  O1  UNK     1      37.184  -9.287  31.550  1.00  0.00    -0.349 OA
BRANCH  26  27
HETATM   27  C10 UNK     1      36.697  -8.389  32.450  1.00  0.00     0.068 A 
HETATM   28  C8  UNK     1      37.037  -8.499  33.799  1.00  0.00     0.037 A 
HETATM   29  C6  UNK     1      36.537  -7.578  34.720  1.00  0.00     0.010 A 
HETATM   30  C3  UNK     1      35.708  -6.568  34.275  1.00  0.00    -0.054 A 
HETATM   31  C7  UNK     1      35.357  -6.440  32.945  1.00  0.00     0.010 A 
HETATM   32  C9  UNK     1      35.857  -7.360  32.024  1.00  0.00     0.037 A 
BRANCH  30  33
HETATM   33  C1  UNK     1      35.163  -5.566  35.279  1.00  0.00     0.014 C 
HETATM   34  C4  UNK     1      34.753  -6.273  36.577  1.00  0.00     0.015 C 
BRANCH  33  35
HETATM   35  C2  UNK     1      33.979  -4.740  34.735  1.00  0.00     0.004 C 
HETATM   36  C5  UNK     1      33.944  -3.317  35.280  1.00  0.00     0.006 C 
ENDBRANCH  33  35
ENDBRANCH  30  33
ENDBRANCH  26  27
ENDBRANCH  25  26
ENDBRANCH  24  25
ENDBRANCH  23  24
ENDBRANCH  17  23
ENDBRANCH   2  14
TORSDOF 12
ENDMDL
MODEL 6
REMARK VINA RESULT:      -6.9      2.972      8.852
REMARK  12 active torsions:
REMARK  status: ('A' for Active; 'I' for Inactive)
REMARK    1  A    between atoms: C10_17  and  O1_1 
REMARK    2  A    between atoms: C11_18  and  O1_1 
REMARK    3  A    between atoms: C12_19  and  O2_2 
REMARK    4  A    between atoms: C13_20  and  O2_2 
REMARK    5  A    between atoms: C14_21  and  O3_3 
REMARK    6  A    between atoms: C22_29  and  O3_3 
REMARK    7  A    between atoms: C25_32  and  N1_6 
REMARK    8  A    between atoms: C1_8  and  C2_9 
REMARK    9  A    between atoms: C1_8  and  C3_10 
REMARK   10  A    between atoms: C11_18  and  C12_19 
REMARK   11  A    between atoms: C15_22  and  C19_26 
REMARK   12  A    between atoms: C20_27  and  C21_28 
ROOT
HETATM    1  N2  UNK     1      34.773  -6.884  35.870  1.00  0.00    -0.191 NA
HETATM    2  C19 UNK     1      31.668  -7.896  34.717  1.00  0.00     0.035 C 
HETATM    3  C20 UNK     1      32.199  -7.092  35.672  1.00  0.00     0.055 C 
HETATM    4  C29 UNK     1      33.619  -6.978  35.780  1.00  0.00     0.100 C 
ENDROOT
BRANCH   3   5
HETATM    5  C21 UNK     1      31.364  -6.316  36.611  1.00  0.00    -0.015 A 
HETATM    6  C23 UNK     1      31.405  -4.933  36.565  1.00  0.00     0.015 A 
HETATM    7  C26 UNK     1      30.616  -4.200  37.452  1.00  0.00     0.037 A 
HETATM    8  C25 UNK     1      29.797  -4.861  38.368  1.00  0.00     0.102 A 
HETATM    9  C27 UNK     1      29.769  -6.255  38.399  1.00  0.00     0.037 A 
HETATM   10  C24 UNK     1      30.558  -6.989  37.512  1.00  0.00     0.015 A 
BRANCH   8  11
HETATM   11  N1  UNK     1      28.993  -4.113  39.269  1.00  0.00    -0.116 N 
HETATM   12  O4  UNK     1      27.747  -4.124  39.125  1.00  0.00    -0.532 OA
HETATM   13  O5  UNK     1      29.552  -3.463  40.185  1.00  0.00    -0.532 OA
ENDBRANCH   8  11
ENDBRANCH   3   5
BRANCH   2  14
HETATM   14  C15 UNK     1      32.397  -8.695  33.743  1.00  0.00    -0.032 A 
HETATM   15  C16 UNK     1      32.530  -8.245  32.430  1.00  0.00     0.051 A 
HETATM   16  C14 UNK     1      33.228  -9.012  31.498  1.00  0.00     0.102 A 
HETATM   17  C13 UNK     1      33.789 -10.224  31.883  1.00  0.00     0.102 A 
HETATM   18  C17 UNK     1      33.660 -10.679  33.191  1.00  0.00     0.040 A 
HETATM   19  C18 UNK     1      32.962  -9.912  34.124  1.00  0.00     0.014 A 
BRANCH  16  20
HETATM   20  O3  UNK     1      33.352  -8.561  30.217  1.00  0.00    -0.349 OA
BRANCH  20  21
HETATM   21  C22 UNK     1      33.990  -7.298  30.035  1.00  0.00     0.171 C 
HETATM   22  C28 UNK     1      35.169  -7.474  29.101  1.00  0.00     0.034 C 
ENDBRANCH  20  21
ENDBRANCH  16  20
BRANCH  17  23
HETATM   23  O2  UNK     1      34.479 -10.986  30.976  1.00  0.00    -0.346 OA
BRANCH  23  24
HETATM   24  C12 UNK     1      34.034 -12.325  30.795  1.00  0.00     0.202 C 
BRANCH  24  25
HETATM   25  C11 UNK     1      32.819 -12.324  29.887  1.00  0.00     0.202 C 
BRANCH  25  26
HETATM   26  O1  UNK     1      31.661 -12.632  30.659  1.00  0.00    -0.349 OA
BRANCH  26  27
HETATM   27  C10 UNK     1      30.816 -11.604  30.948  1.00  0.00     0.068 A 
HETATM   28  C8  UNK     1      30.522 -10.648  29.975  1.00  0.00     0.037 A 
HETATM   29  C6  UNK     1      29.657  -9.595  30.272  1.00  0.00     0.010 A 
HETATM   30  C3  UNK     1      29.105  -9.518  31.535  1.00  0.00    -0.054 A 
HETATM   31  C7  UNK     1      29.382 -10.452  32.514  1.00  0.00     0.010 A 
HETATM   32  C9  UNK     1      30.246 -11.505  32.217  1.00  0.00     0.037 A 
BRANCH  30  33
HETATM   33  C1  UNK     1      28.164  -8.370  31.858  1.00  0.00     0.014 C 
HETATM   34  C4  UNK     1      27.318  -8.005  30.632  1.00  0.00     0.015 C 
BRANCH  33  35
HETATM   35  C2  UNK     1      28.890  -7.116  32.387  1.00  0.00     0.004 C 
HETATM   36  C5  UNK     1      28.305  -6.594  33.694  1.00  0.00     0.006 C 
ENDBRANCH  33  35
ENDBRANCH  30  33
ENDBRANCH  26  27
ENDBRANCH  25  26
ENDBRANCH  24  25
ENDBRANCH  23  24
ENDBRANCH  17  23
ENDBRANCH   2  14
TORSDOF 12
ENDMDL
MODEL 7
REMARK VINA RESULT:      -6.7      3.860      8.246
REMARK  12 active torsions:
REMARK  status: ('A' for Active; 'I' for Inactive)
REMARK    1  A    between atoms: C10_17  and  O1_1 
REMARK    2  A    between atoms: C11_18  and  O1_1 
REMARK    3  A    between atoms: C12_19  and  O2_2 
REMARK    4  A    between atoms: C13_20  and  O2_2 
REMARK    5  A    between atoms: C14_21  and  O3_3 
REMARK    6  A    between atoms: C22_29  and  O3_3 
REMARK    7  A    between atoms: C25_32  and  N1_6 
REMARK    8  A    between atoms: C1_8  and  C2_9 
REMARK    9  A    between atoms: C1_8  and  C3_10 
REMARK   10  A    between atoms: C11_18  and  C12_19 
REMARK   11  A    between atoms: C15_22  and  C19_26 
REMARK   12  A    between atoms: C20_27  and  C21_28 
ROOT
HETATM    1  N2  UNK     1      28.820 -10.458  39.607  1.00  0.00    -0.191 NA
HETATM    2  C19 UNK     1      28.510  -7.797  37.413  1.00  0.00     0.035 C 
HETATM    3  C20 UNK     1      27.723  -8.681  38.076  1.00  0.00     0.055 C 
HETATM    4  C29 UNK     1      28.330  -9.661  38.920  1.00  0.00     0.100 C 
ENDROOT
BRANCH   3   5
HETATM    5  C21 UNK     1      26.251  -8.671  37.966  1.00  0.00    -0.015 A 
HETATM    6  C23 UNK     1      25.512  -7.926  38.869  1.00  0.00     0.015 A 
HETATM    7  C26 UNK     1      24.121  -7.916  38.766  1.00  0.00     0.037 A 
HETATM    8  C25 UNK     1      23.491  -8.649  37.760  1.00  0.00     0.102 A 
HETATM    9  C27 UNK     1      24.251  -9.394  36.859  1.00  0.00     0.037 A 
HETATM   10  C24 UNK     1      25.643  -9.404  36.963  1.00  0.00     0.015 A 
BRANCH   8  11
HETATM   11  N1  UNK     1      22.074  -8.637  37.655  1.00  0.00    -0.116 N 
HETATM   12  O4  UNK     1      21.506  -9.538  36.992  1.00  0.00    -0.532 OA
HETATM   13  O5  UNK     1      21.430  -7.725  38.227  1.00  0.00    -0.532 OA
ENDBRANCH   8  11
ENDBRANCH   3   5
BRANCH   2  14
HETATM   14  C15 UNK     1      29.962  -7.717  37.455  1.00  0.00    -0.032 A 
HETATM   15  C16 UNK     1      30.730  -8.515  36.608  1.00  0.00     0.051 A 
HETATM   16  C14 UNK     1      32.122  -8.438  36.650  1.00  0.00     0.102 A 
HETATM   17  C13 UNK     1      32.738  -7.563  37.538  1.00  0.00     0.102 A 
HETATM   18  C17 UNK     1      31.978  -6.764  38.385  1.00  0.00     0.040 A 
HETATM   19  C18 UNK     1      30.586  -6.841  38.344  1.00  0.00     0.014 A 
BRANCH  16  20
HETATM   20  O3  UNK     1      32.862  -9.223  35.816  1.00  0.00    -0.349 OA
BRANCH  20  21
HETATM   21  C22 UNK     1      32.155 -10.183  35.034  1.00  0.00     0.171 C 
HETATM   22  C28 UNK     1      32.930 -10.445  33.759  1.00  0.00     0.034 C 
ENDBRANCH  20  21
ENDBRANCH  16  20
BRANCH  17  23
HETATM   23  O2  UNK     1      34.105  -7.478  37.587  1.00  0.00    -0.346 OA
BRANCH  23  24
HETATM   24  C12 UNK     1      34.673  -6.185  37.405  1.00  0.00     0.202 C 
BRANCH  24  25
HETATM   25  C11 UNK     1      35.156  -6.055  35.974  1.00  0.00     0.202 C 
BRANCH  25  26
HETATM   26  O1  UNK     1      34.365  -5.077  35.302  1.00  0.00    -0.349 OA
BRANCH  26  27
HETATM   27  C10 UNK     1      33.230  -5.513  34.690  1.00  0.00     0.068 A 
HETATM   28  C8  UNK     1      33.307  -6.465  33.673  1.00  0.00     0.037 A 
HETATM   29  C6  UNK     1      32.144  -6.911  33.046  1.00  0.00     0.010 A 
HETATM   30  C3  UNK     1      30.927  -6.396  33.447  1.00  0.00    -0.054 A 
HETATM   31  C7  UNK     1      30.827  -5.452  34.451  1.00  0.00     0.010 A 
HETATM   32  C9  UNK     1      31.990  -5.006  35.078  1.00  0.00     0.037 A 
BRANCH  30  33
HETATM   33  C1  UNK     1      29.660  -6.881  32.763  1.00  0.00     0.014 C 
HETATM   34  C4  UNK     1      28.951  -5.719  32.056  1.00  0.00     0.015 C 
BRANCH  33  35
HETATM   35  C2  UNK     1      28.681  -7.587  33.723  1.00  0.00     0.004 C 
HETATM   36  C5  UNK     1      28.743  -9.107  33.628  1.00  0.00     0.006 C 
ENDBRANCH  33  35
ENDBRANCH  30  33
ENDBRANCH  26  27
ENDBRANCH  25  26
ENDBRANCH  24  25
ENDBRANCH  23  24
ENDBRANCH  17  23
ENDBRANCH   2  14
TORSDOF 12
ENDMDL
MODEL 8
REMARK VINA RESULT:      -6.7      3.130      8.546
REMARK  12 active torsions:
REMARK  status: ('A' for Active; 'I' for Inactive)
REMARK    1  A    between atoms: C10_17  and  O1_1 
REMARK    2  A    between atoms: C11_18  and  O1_1 
REMARK    3  A    between atoms: C12_19  and  O2_2 
REMARK    4  A    between atoms: C13_20  and  O2_2 
REMARK    5  A    between atoms: C14_21  and  O3_3 
REMARK    6  A    between atoms: C22_29  and  O3_3 
REMARK    7  A    between atoms: C25_32  and  N1_6 
REMARK    8  A    between atoms: C1_8  and  C2_9 
REMARK    9  A    between atoms: C1_8  and  C3_10 
REMARK   10  A    between atoms: C11_18  and  C12_19 
REMARK   11  A    between atoms: C15_22  and  C19_26 
REMARK   12  A    between atoms: C20_27  and  C21_28 
ROOT
HETATM    1  N2  UNK     1      31.389 -10.806  37.854  1.00  0.00    -0.191 NA
HETATM    2  C19 UNK     1      31.325  -8.572  35.208  1.00  0.00     0.035 C 
HETATM    3  C20 UNK     1      30.978  -8.625  36.519  1.00  0.00     0.055 C 
HETATM    4  C29 UNK     1      31.205  -9.829  37.254  1.00  0.00     0.100 C 
ENDROOT
BRANCH   3   5
HETATM    5  C21 UNK     1      30.377  -7.478  37.229  1.00  0.00    -0.015 A 
HETATM    6  C23 UNK     1      30.846  -6.202  36.970  1.00  0.00     0.015 A 
HETATM    7  C26 UNK     1      30.277  -5.119  37.640  1.00  0.00     0.037 A 
HETATM    8  C25 UNK     1      29.246  -5.329  38.556  1.00  0.00     0.102 A 
HETATM    9  C27 UNK     1      28.786  -6.621  38.804  1.00  0.00     0.037 A 
HETATM   10  C24 UNK     1      29.355  -7.705  38.134  1.00  0.00     0.015 A 
BRANCH   8  11
HETATM   11  N1  UNK     1      28.667  -4.225  39.236  1.00  0.00    -0.116 N 
HETATM   12  O4  UNK     1      27.457  -3.957  39.042  1.00  0.00    -0.532 OA
HETATM   13  O5  UNK     1      29.382  -3.548  40.014  1.00  0.00    -0.532 OA
ENDBRANCH   8  11
ENDBRANCH   3   5
BRANCH   2  14
HETATM   14  C15 UNK     1      31.926  -9.636  34.420  1.00  0.00    -0.032 A 
HETATM   15  C16 UNK     1      33.287  -9.598  34.118  1.00  0.00     0.051 A 
HETATM   16  C14 UNK     1      33.863 -10.618  33.362  1.00  0.00     0.102 A 
HETATM   17  C13 UNK     1      33.074 -11.671  32.911  1.00  0.00     0.102 A 
HETATM   18  C17 UNK     1      31.717 -11.716  33.209  1.00  0.00     0.040 A 
HETATM   19  C18 UNK     1      31.141 -10.695  33.965  1.00  0.00     0.014 A 
BRANCH  16  20
HETATM   20  O3  UNK     1      35.195 -10.570  33.074  1.00  0.00    -0.349 OA
BRANCH  20  21
HETATM   21  C22 UNK     1      35.704  -9.336  32.571  1.00  0.00     0.171 C 
HETATM   22  C28 UNK     1      36.979  -8.992  33.311  1.00  0.00     0.034 C 
ENDBRANCH  20  21
ENDBRANCH  16  20
BRANCH  17  23
HETATM   23  O2  UNK     1      33.629 -12.681  32.168  1.00  0.00    -0.346 OA
BRANCH  23  24
HETATM   24  C12 UNK     1      34.030 -12.354  30.843  1.00  0.00     0.202 C 
BRANCH  24  25
HETATM   25  C11 UNK     1      32.794 -12.166  29.985  1.00  0.00     0.202 C 
BRANCH  25  26
HETATM   26  O1  UNK     1      32.810 -10.854  29.427  1.00  0.00    -0.349 OA
BRANCH  26  27
HETATM   27  C10 UNK     1      32.054  -9.907  30.047  1.00  0.00     0.068 A 
HETATM   28  C8  UNK     1      32.649  -8.738  30.520  1.00  0.00     0.037 A 
HETATM   29  C6  UNK     1      31.874  -7.768  31.156  1.00  0.00     0.010 A 
HETATM   30  C3  UNK     1      30.519  -7.988  31.308  1.00  0.00    -0.054 A 
HETATM   31  C7  UNK     1      29.908  -9.139  30.848  1.00  0.00     0.010 A 
HETATM   32  C9  UNK     1      30.683 -10.107  30.212  1.00  0.00     0.037 A 
BRANCH  30  33
HETATM   33  C1  UNK     1      29.674  -6.933  32.001  1.00  0.00     0.014 C 
HETATM   34  C4  UNK     1      30.565  -5.958  32.782  1.00  0.00     0.015 C 
BRANCH  33  35
HETATM   35  C2  UNK     1      28.602  -7.527  32.936  1.00  0.00     0.004 C 
HETATM   36  C5  UNK     1      28.333  -6.664  34.163  1.00  0.00     0.006 C 
ENDBRANCH  33  35
ENDBRANCH  30  33
ENDBRANCH  26  27
ENDBRANCH  25  26
ENDBRANCH  24  25
ENDBRANCH  23  24
ENDBRANCH  17  23
ENDBRANCH   2  14
TORSDOF 12
ENDMDL
MODEL 9
REMARK VINA RESULT:      -6.7      3.318      8.547
REMARK  12 active torsions:
REMARK  status: ('A' for Active; 'I' for Inactive)
REMARK    1  A    between atoms: C10_17  and  O1_1 
REMARK    2  A    between atoms: C11_18  and  O1_1 
REMARK    3  A    between atoms: C12_19  and  O2_2 
REMARK    4  A    between atoms: C13_20  and  O2_2 
REMARK    5  A    between atoms: C14_21  and  O3_3 
REMARK    6  A    between atoms: C22_29  and  O3_3 
REMARK    7  A    between atoms: C25_32  and  N1_6 
REMARK    8  A    between atoms: C1_8  and  C2_9 
REMARK    9  A    between atoms: C1_8  and  C3_10 
REMARK   10  A    between atoms: C11_18  and  C12_19 
REMARK   11  A    between atoms: C15_22  and  C19_26 
REMARK   12  A    between atoms: C20_27  and  C21_28 
ROOT
HETATM    1  N2  UNK     1      32.074  -6.852  33.335  1.00  0.00    -0.191 NA
HETATM    2  C19 UNK     1      30.149  -9.085  35.153  1.00  0.00     0.035 C 
HETATM    3  C20 UNK     1      30.493  -7.773  35.169  1.00  0.00     0.055 C 
HETATM    4  C29 UNK     1      31.365  -7.266  34.157  1.00  0.00     0.100 C 
ENDROOT
BRANCH   3   5
HETATM    5  C21 UNK     1      29.996  -6.834  36.194  1.00  0.00    -0.015 A 
HETATM    6  C23 UNK     1      28.793  -7.099  36.825  1.00  0.00     0.015 A 
HETATM    7  C26 UNK     1      28.323  -6.212  37.795  1.00  0.00     0.037 A 
HETATM    8  C25 UNK     1      29.065  -5.076  38.119  1.00  0.00     0.102 A 
HETATM    9  C27 UNK     1      30.275  -4.825  37.472  1.00  0.00     0.037 A 
HETATM   10  C24 UNK     1      30.745  -5.712  36.502  1.00  0.00     0.015 A 
BRANCH   8  11
HETATM   11  N1  UNK     1      28.587  -4.174  39.106  1.00  0.00    -0.116 N 
HETATM   12  O4  UNK     1      27.366  -3.885  39.126  1.00  0.00    -0.532 OA
HETATM   13  O5  UNK     1      29.399  -3.692  39.932  1.00  0.00    -0.532 OA
ENDBRANCH   8  11
ENDBRANCH   3   5
BRANCH   2  14
HETATM   14  C15 UNK     1      30.575 -10.089  34.189  1.00  0.00    -0.032 A 
HETATM   15  C16 UNK     1      31.923 -10.432  34.089  1.00  0.00     0.051 A 
HETATM   16  C14 UNK     1      32.331 -11.393  33.165  1.00  0.00     0.102 A 
HETATM   17  C13 UNK     1      31.389 -12.007  32.347  1.00  0.00     0.102 A 
HETATM   18  C17 UNK     1      30.043 -11.670  32.442  1.00  0.00     0.040 A 
HETATM   19  C18 UNK     1      29.635 -10.708  33.366  1.00  0.00     0.014 A 
BRANCH  16  20
HETATM   20  O3  UNK     1      33.652 -11.720  33.076  1.00  0.00    -0.349 OA
BRANCH  20  21
HETATM   21  C22 UNK     1      34.482 -10.855  32.304  1.00  0.00     0.171 C 
HETATM   22  C28 UNK     1      35.396 -10.089  33.237  1.00  0.00     0.034 C 
ENDBRANCH  20  21
ENDBRANCH  16  20
BRANCH  17  23
HETATM   23  O2  UNK     1      31.778 -12.954  31.436  1.00  0.00    -0.346 OA
BRANCH  23  24
HETATM   24  C12 UNK     1      31.412 -12.727  30.080  1.00  0.00     0.202 C 
BRANCH  24  25
HETATM   25  C11 UNK     1      32.040 -11.429  29.610  1.00  0.00     0.202 C 
BRANCH  25  26
HETATM   26  O1  UNK     1      31.131 -10.761  28.737  1.00  0.00    -0.349 OA
BRANCH  26  27
HETATM   27  C10 UNK     1      30.231  -9.915  29.310  1.00  0.00     0.068 A 
HETATM   28  C8  UNK     1      30.665  -8.939  30.208  1.00  0.00     0.037 A 
HETATM   29  C6  UNK     1      29.742  -8.072  30.794  1.00  0.00     0.010 A 
HETATM   30  C3  UNK     1      28.405  -8.199  30.472  1.00  0.00    -0.054 A 
HETATM   31  C7  UNK     1      27.953  -9.158  29.586  1.00  0.00     0.010 A 
HETATM   32  C9  UNK     1      28.876 -10.024  29.000  1.00  0.00     0.037 A 
BRANCH  30  33
HETATM   33  C1  UNK     1      27.401  -7.256  31.111  1.00  0.00     0.014 C 
HETATM   34  C4  UNK     1      26.411  -6.732  30.062  1.00  0.00     0.015 C 
BRANCH  33  35
HETATM   35  C2  UNK     1      28.059  -6.073  31.849  1.00  0.00     0.004 C 
HETATM   36  C5  UNK     1      27.777  -6.072  33.347  1.00  0.00     0.006 C 
ENDBRANCH  33  35
ENDBRANCH  30  33
ENDBRANCH  26  27
ENDBRANCH  25  26
ENDBRANCH  24  25
ENDBRANCH  23  24
ENDBRANCH  17  23
ENDBRANCH   2  14
TORSDOF 12
ENDMDL
MODEL 10
REMARK VINA RESULT:      -6.6      2.191      3.205
REMARK  12 active torsions:
REMARK  status: ('A' for Active; 'I' for Inactive)
REMARK    1  A    between atoms: C10_17  and  O1_1 
REMARK    2  A    between atoms: C11_18  and  O1_1 
REMARK    3  A    between atoms: C12_19  and  O2_2 
REMARK    4  A    between atoms: C13_20  and  O2_2 
REMARK    5  A    between atoms: C14_21  and  O3_3 
REMARK    6  A    between atoms: C22_29  and  O3_3 
REMARK    7  A    between atoms: C25_32  and  N1_6 
REMARK    8  A    between atoms: C1_8  and  C2_9 
REMARK    9  A    between atoms: C1_8  and  C3_10 
REMARK   10  A    between atoms: C11_18  and  C12_19 
REMARK   11  A    between atoms: C15_22  and  C19_26 
REMARK   12  A    between atoms: C20_27  and  C21_28 
ROOT
HETATM    1  N2  UNK     1      31.190 -10.765  32.867  1.00  0.00    -0.191 NA
HETATM    2  C19 UNK     1      33.175  -8.788  34.904  1.00  0.00     0.035 C 
HETATM    3  C20 UNK     1      33.298  -9.607  33.829  1.00  0.00     0.055 C 
HETATM    4  C29 UNK     1      32.134 -10.245  33.300  1.00  0.00     0.100 C 
ENDROOT
BRANCH   3   5
HETATM    5  C21 UNK     1      34.595  -9.866  33.172  1.00  0.00    -0.015 A 
HETATM    6  C23 UNK     1      34.956 -11.170  32.884  1.00  0.00     0.015 A 
HETATM    7  C26 UNK     1      36.182 -11.415  32.263  1.00  0.00     0.037 A 
HETATM    8  C25 UNK     1      37.024 -10.351  31.938  1.00  0.00     0.102 A 
HETATM    9  C27 UNK     1      36.643  -9.043  32.237  1.00  0.00     0.037 A 
HETATM   10  C24 UNK     1      35.418  -8.799  32.858  1.00  0.00     0.015 A 
BRANCH   8  11
HETATM   11  N1  UNK     1      38.271 -10.601  31.305  1.00  0.00    -0.116 N 
HETATM   12  O4  UNK     1      38.290 -10.850  30.076  1.00  0.00    -0.532 OA
HETATM   13  O5  UNK     1      39.319 -10.566  31.994  1.00  0.00    -0.532 OA
ENDBRANCH   8  11
ENDBRANCH   3   5
BRANCH   2  14
HETATM   14  C15 UNK     1      31.950  -8.462  35.618  1.00  0.00    -0.032 A 
HETATM   15  C16 UNK     1      31.003  -7.622  35.034  1.00  0.00     0.051 A 
HETATM   16  C14 UNK     1      29.830  -7.310  35.719  1.00  0.00     0.102 A 
HETATM   17  C13 UNK     1      29.610  -7.840  36.986  1.00  0.00     0.102 A 
HETATM   18  C17 UNK     1      30.550  -8.678  37.575  1.00  0.00     0.040 A 
HETATM   19  C18 UNK     1      31.723  -8.990  36.889  1.00  0.00     0.014 A 
BRANCH  16  20
HETATM   20  O3  UNK     1      28.911  -6.488  35.137  1.00  0.00    -0.349 OA
BRANCH  20  21
HETATM   21  C22 UNK     1      28.322  -6.937  33.918  1.00  0.00     0.171 C 
HETATM   22  C28 UNK     1      28.466  -5.850  32.873  1.00  0.00     0.034 C 
ENDBRANCH  20  21
ENDBRANCH  16  20
BRANCH  17  23
HETATM   23  O2  UNK     1      28.459  -7.541  37.669  1.00  0.00    -0.346 OA
BRANCH  23  24
HETATM   24  C12 UNK     1      28.610  -6.861  38.910  1.00  0.00     0.202 C 
BRANCH  24  25
HETATM   25  C11 UNK     1      28.558  -5.366  38.664  1.00  0.00     0.202 C 
BRANCH  25  26
HETATM   26  O1  UNK     1      29.756  -4.771  39.158  1.00  0.00    -0.349 OA
BRANCH  26  27
HETATM   27  C10 UNK     1      30.847  -4.807  38.344  1.00  0.00     0.068 A 
HETATM   28  C8  UNK     1      30.844  -4.100  37.141  1.00  0.00     0.037 A 
HETATM   29  C6  UNK     1      31.963  -4.138  36.309  1.00  0.00     0.010 A 
HETATM   30  C3  UNK     1      33.061  -4.881  36.694  1.00  0.00    -0.054 A 
HETATM   31  C7  UNK     1      33.086  -5.589  37.881  1.00  0.00     0.010 A 
HETATM   32  C9  UNK     1      31.968  -5.551  38.713  1.00  0.00     0.037 A 
BRANCH  30  33
HETATM   33  C1  UNK     1      34.278  -4.923  35.787  1.00  0.00     0.014 C 
HETATM   34  C4  UNK     1      33.873  -5.316  34.360  1.00  0.00     0.015 C 
BRANCH  33  35
HETATM   35  C2  UNK     1      35.387  -5.865  36.297  1.00  0.00     0.004 C 
HETATM   36  C5  UNK     1      36.172  -6.528  35.171  1.00  0.00     0.006 C 
ENDBRANCH  33  35
ENDBRANCH  30  33
ENDBRANCH  26  27
ENDBRANCH  25  26
ENDBRANCH  24  25
ENDBRANCH  23  24
ENDBRANCH  17  23
ENDBRANCH   2  14
TORSDOF 12
ENDMDL
