MODEL 1
REMARK VINA RESULT:      -7.2      0.000      0.000
REMARK  1 active torsions:
REMARK  status: ('A' for Active; 'I' for Inactive)
REMARK    1  A    between atoms: C4_8  and  C9_13 
ROOT
HETATM    1 Br1  UNK     1      17.715   8.071  34.626  1.00  0.00    -0.051 Br
HETATM    2  O1  UNK     1      18.131   3.087  33.039  1.00  0.00    -0.274 OA
HETATM    3  O2  UNK     1      18.284   0.883  32.459  1.00  0.00    -0.259 OA
HETATM    4  C1  UNK     1      18.522   4.801  31.360  1.00  0.00    -0.001 A 
HETATM    5  C2  UNK     1      18.210   4.444  32.668  1.00  0.00     0.091 A 
HETATM    6  C3  UNK     1      18.764   3.752  30.383  1.00  0.00     0.035 A 
HETATM    7  C4  UNK     1      18.686   2.465  30.741  1.00  0.00     0.086 A 
HETATM    8  C5  UNK     1      18.593   6.156  31.030  1.00  0.00     0.015 A 
HETATM    9  C6  UNK     1      17.968   5.400  33.651  1.00  0.00     0.057 A 
HETATM   10  C7  UNK     1      18.356   2.061  32.126  1.00  0.00     0.302 A 
HETATM   11  C8  UNK     1      18.352   7.127  32.006  1.00  0.00     0.020 A 
HETATM   12  C10 UNK     1      18.040   6.750  33.315  1.00  0.00     0.013 A 
ENDROOT
BRANCH   7  13
HETATM   13  C9  UNK     1      18.946   1.479  29.685  1.00  0.00     0.161 C 
HETATM   14  C11 UNK     1      17.970   1.397  28.540  1.00  0.00     0.097 C 
HETATM   15  O3  UNK     1      19.931   0.742  29.745  1.00  0.00    -0.293 OA
ENDBRANCH   7  13
TORSDOF 1
ENDMDL
MODEL 2
REMARK VINA RESULT:      -6.8      1.030      1.236
REMARK  1 active torsions:
REMARK  status: ('A' for Active; 'I' for Inactive)
REMARK    1  A    between atoms: C4_8  and  C9_13 
ROOT
HETATM    1 Br1  UNK     1      17.494   8.170  33.260  1.00  0.00    -0.051 Br
HETATM    2  O1  UNK     1      18.140   3.030  32.428  1.00  0.00    -0.274 OA
HETATM    3  O2  UNK     1      18.386   0.773  32.178  1.00  0.00    -0.259 OA
HETATM    4  C1  UNK     1      18.610   4.504  30.553  1.00  0.00    -0.001 A 
HETATM    5  C2  UNK     1      18.213   4.323  31.874  1.00  0.00     0.091 A 
HETATM    6  C3  UNK     1      18.946   3.337  29.753  1.00  0.00     0.035 A 
HETATM    7  C4  UNK     1      18.873   2.111  30.284  1.00  0.00     0.086 A 
HETATM    8  C5  UNK     1      18.673   5.802  30.039  1.00  0.00     0.015 A 
HETATM    9  C6  UNK     1      17.879   5.399  32.693  1.00  0.00     0.057 A 
HETATM   10  C7  UNK     1      18.454   1.894  31.686  1.00  0.00     0.302 A 
HETATM   11  C8  UNK     1      18.339   6.891  30.849  1.00  0.00     0.020 A 
HETATM   12  C10 UNK     1      17.943   6.690  32.174  1.00  0.00     0.013 A 
ENDROOT
BRANCH   7  13
HETATM   13  C9  UNK     1      19.232   0.997  29.398  1.00  0.00     0.161 C 
HETATM   14  C11 UNK     1      20.384   0.115  29.803  1.00  0.00     0.097 C 
HETATM   15  O3  UNK     1      18.607   0.801  28.355  1.00  0.00    -0.293 OA
ENDBRANCH   7  13
TORSDOF 1
ENDMDL
MODEL 3
REMARK VINA RESULT:      -6.7     13.706     16.776
REMARK  1 active torsions:
REMARK  status: ('A' for Active; 'I' for Inactive)
REMARK    1  A    between atoms: C4_8  and  C9_13 
ROOT
HETATM    1 Br1  UNK     1      19.230  -3.270  12.618  1.00  0.00    -0.051 Br
HETATM    2  O1  UNK     1      19.350   1.314  15.166  1.00  0.00    -0.274 OA
HETATM    3  O2  UNK     1      19.416   3.365  16.171  1.00  0.00    -0.259 OA
HETATM    4  C1  UNK     1      19.057  -0.680  16.526  1.00  0.00    -0.001 A 
HETATM    5  C2  UNK     1      19.226  -0.085  15.280  1.00  0.00     0.091 A 
HETATM    6  C3  UNK     1      19.009   0.164  17.709  1.00  0.00     0.035 A 
HETATM    7  C4  UNK     1      19.127   1.492  17.595  1.00  0.00     0.086 A 
HETATM    8  C5  UNK     1      18.939  -2.070  16.598  1.00  0.00     0.015 A 
HETATM    9  C6  UNK     1      19.281  -0.837  14.109  1.00  0.00     0.057 A 
HETATM   10  C7  UNK     1      19.307   2.148  16.280  1.00  0.00     0.302 A 
HETATM   11  C8  UNK     1      18.991  -2.838  15.431  1.00  0.00     0.020 A 
HETATM   12  C10 UNK     1      19.162  -2.222  14.189  1.00  0.00     0.013 A 
ENDROOT
BRANCH   7  13
HETATM   13  C9  UNK     1      19.066   2.260  18.845  1.00  0.00     0.161 C 
HETATM   14  C11 UNK     1      18.332   1.651  20.012  1.00  0.00     0.097 C 
HETATM   15  O3  UNK     1      19.597   3.368  18.925  1.00  0.00    -0.293 OA
ENDBRANCH   7  13
TORSDOF 1
ENDMDL
MODEL 4
REMARK VINA RESULT:      -6.7      3.413      4.654
REMARK  1 active torsions:
REMARK  status: ('A' for Active; 'I' for Inactive)
REMARK    1  A    between atoms: C4_8  and  C9_13 
ROOT
HETATM    1 Br1  UNK     1      17.337   1.216  37.194  1.00  0.00    -0.051 Br
HETATM    2  O1  UNK     1      18.325   2.308  32.159  1.00  0.00    -0.274 OA
HETATM    3  O2  UNK     1      18.722   2.896  29.987  1.00  0.00    -0.259 OA
HETATM    4  C1  UNK     1      18.744   0.025  32.881  1.00  0.00    -0.001 A 
HETATM    5  C2  UNK     1      18.330   1.322  33.165  1.00  0.00     0.091 A 
HETATM    6  C3  UNK     1      19.172  -0.297  31.529  1.00  0.00     0.035 A 
HETATM    7  C4  UNK     1      19.165   0.644  30.577  1.00  0.00     0.086 A 
HETATM    8  C5  UNK     1      18.734  -0.926  33.904  1.00  0.00     0.015 A 
HETATM    9  C6  UNK     1      17.908   1.694  34.440  1.00  0.00     0.057 A 
HETATM   10  C7  UNK     1      18.730   2.030  30.856  1.00  0.00     0.302 A 
HETATM   11  C8  UNK     1      18.314  -0.567  35.188  1.00  0.00     0.020 A 
HETATM   12  C10 UNK     1      17.902   0.741  35.455  1.00  0.00     0.013 A 
ENDROOT
BRANCH   7  13
HETATM   13  C9  UNK     1      19.615   0.223  29.244  1.00  0.00     0.161 C 
HETATM   14  C11 UNK     1      20.887  -0.577  29.148  1.00  0.00     0.097 C 
HETATM   15  O3  UNK     1      18.967   0.527  28.241  1.00  0.00    -0.293 OA
ENDBRANCH   7  13
TORSDOF 1
ENDMDL
MODEL 5
REMARK VINA RESULT:      -6.6      3.147      4.337
REMARK  1 active torsions:
REMARK  status: ('A' for Active; 'I' for Inactive)
REMARK    1  A    between atoms: C4_8  and  C9_13 
ROOT
HETATM    1 Br1  UNK     1      14.704  10.629  35.342  1.00  0.00    -0.051 Br
HETATM    2  O1  UNK     1      18.750   7.740  33.664  1.00  0.00    -0.274 OA
HETATM    3  O2  UNK     1      20.568   6.509  33.035  1.00  0.00    -0.259 OA
HETATM    4  C1  UNK     1      16.820   7.870  32.192  1.00  0.00    -0.001 A 
HETATM    5  C2  UNK     1      17.454   8.215  33.381  1.00  0.00     0.091 A 
HETATM    6  C3  UNK     1      17.516   7.012  31.246  1.00  0.00     0.035 A 
HETATM    7  C4  UNK     1      18.746   6.564  31.521  1.00  0.00     0.086 A 
HETATM    8  C5  UNK     1      15.535   8.361  31.945  1.00  0.00     0.015 A 
HETATM    9  C6  UNK     1      16.842   9.033  34.328  1.00  0.00     0.057 A 
HETATM   10  C7  UNK     1      19.440   6.917  32.779  1.00  0.00     0.302 A 
HETATM   11  C8  UNK     1      14.909   9.183  32.887  1.00  0.00     0.020 A 
HETATM   12  C10 UNK     1      15.561   9.518  34.076  1.00  0.00     0.013 A 
ENDROOT
BRANCH   7  13
HETATM   13  C9  UNK     1      19.366   5.704  30.505  1.00  0.00     0.161 C 
HETATM   14  C11 UNK     1      19.014   4.239  30.509  1.00  0.00     0.097 C 
HETATM   15  O3  UNK     1      20.154   6.175  29.684  1.00  0.00    -0.293 OA
ENDBRANCH   7  13
TORSDOF 1
ENDMDL
MODEL 6
REMARK VINA RESULT:      -6.6     21.878     23.971
REMARK  1 active torsions:
REMARK  status: ('A' for Active; 'I' for Inactive)
REMARK    1  A    between atoms: C4_8  and  C9_13 
ROOT
HETATM    1 Br1  UNK     1       9.688   6.130   5.916  1.00  0.00    -0.051 Br
HETATM    2  O1  UNK     1      14.286   5.316   8.307  1.00  0.00    -0.274 OA
HETATM    3  O2  UNK     1      16.289   4.851   9.303  1.00  0.00    -0.259 OA
HETATM    4  C1  UNK     1      13.273   7.505   8.611  1.00  0.00    -0.001 A 
HETATM    5  C2  UNK     1      13.240   6.227   8.063  1.00  0.00     0.091 A 
HETATM    6  C3  UNK     1      14.406   7.885   9.440  1.00  0.00     0.035 A 
HETATM    7  C4  UNK     1      15.397   7.016   9.668  1.00  0.00     0.086 A 
HETATM    8  C5  UNK     1      12.217   8.380   8.347  1.00  0.00     0.015 A 
HETATM    9  C6  UNK     1      12.183   5.800   7.261  1.00  0.00     0.057 A 
HETATM   10  C7  UNK     1      15.383   5.652   9.096  1.00  0.00     0.302 A 
HETATM   11  C8  UNK     1      11.151   7.966   7.544  1.00  0.00     0.020 A 
HETATM   12  C10 UNK     1      11.134   6.678   7.001  1.00  0.00     0.013 A 
ENDROOT
BRANCH   7  13
HETATM   13  C9  UNK     1      16.497   7.492  10.517  1.00  0.00     0.161 C 
HETATM   14  C11 UNK     1      16.158   7.990  11.898  1.00  0.00     0.097 C 
HETATM   15  O3  UNK     1      17.656   7.486  10.101  1.00  0.00    -0.293 OA
ENDBRANCH   7  13
TORSDOF 1
ENDMDL
MODEL 7
REMARK VINA RESULT:      -6.5     22.624     24.370
REMARK  1 active torsions:
REMARK  status: ('A' for Active; 'I' for Inactive)
REMARK    1  A    between atoms: C4_8  and  C9_13 
ROOT
HETATM    1 Br1  UNK     1      16.637   7.508  10.924  1.00  0.00    -0.051 Br
HETATM    2  O1  UNK     1      11.575   7.872   9.595  1.00  0.00    -0.274 OA
HETATM    3  O2  UNK     1       9.359   8.119   9.096  1.00  0.00    -0.259 OA
HETATM    4  C1  UNK     1      12.892   6.202   8.417  1.00  0.00    -0.001 A 
HETATM    5  C2  UNK     1      12.800   7.216   9.366  1.00  0.00     0.091 A 
HETATM    6  C3  UNK     1      11.704   5.833   7.665  1.00  0.00     0.035 A 
HETATM    7  C4  UNK     1      10.543   6.461   7.886  1.00  0.00     0.086 A 
HETATM    8  C5  UNK     1      14.124   5.574   8.219  1.00  0.00     0.015 A 
HETATM    9  C6  UNK     1      13.901   7.616  10.120  1.00  0.00     0.057 A 
HETATM   10  C7  UNK     1      10.421   7.541   8.889  1.00  0.00     0.302 A 
HETATM   11  C8  UNK     1      15.237   5.966   8.968  1.00  0.00     0.020 A 
HETATM   12  C10 UNK     1      15.125   6.985   9.917  1.00  0.00     0.013 A 
ENDROOT
BRANCH   7  13
HETATM   13  C9  UNK     1       9.400   6.017   7.077  1.00  0.00     0.161 C 
HETATM   14  C11 UNK     1       9.361   6.425   5.627  1.00  0.00     0.097 C 
HETATM   15  O3  UNK     1       8.504   5.339   7.580  1.00  0.00    -0.293 OA
ENDBRANCH   7  13
TORSDOF 1
ENDMDL
MODEL 8
REMARK VINA RESULT:      -6.5      3.264      5.851
REMARK  1 active torsions:
REMARK  status: ('A' for Active; 'I' for Inactive)
REMARK    1  A    between atoms: C4_8  and  C9_13 
ROOT
HETATM    1 Br1  UNK     1      18.881   1.682  30.000  1.00  0.00    -0.051 Br
HETATM    2  O1  UNK     1      17.405   5.343  33.456  1.00  0.00    -0.274 OA
HETATM    3  O2  UNK     1      16.725   6.849  35.033  1.00  0.00    -0.259 OA
HETATM    4  C1  UNK     1      18.408   6.138  31.389  1.00  0.00    -0.001 A 
HETATM    5  C2  UNK     1      17.986   5.088  32.198  1.00  0.00     0.091 A 
HETATM    6  C3  UNK     1      18.240   7.502  31.862  1.00  0.00     0.035 A 
HETATM    7  C4  UNK     1      17.688   7.738  33.059  1.00  0.00     0.086 A 
HETATM    8  C5  UNK     1      18.978   5.846  30.148  1.00  0.00     0.015 A 
HETATM    9  C6  UNK     1      18.117   3.758  31.802  1.00  0.00     0.057 A 
HETATM   10  C7  UNK     1      17.232   6.638  33.936  1.00  0.00     0.302 A 
HETATM   11  C8  UNK     1      19.117   4.516  29.738  1.00  0.00     0.020 A 
HETATM   12  C10 UNK     1      18.688   3.475  30.564  1.00  0.00     0.013 A 
ENDROOT
BRANCH   7  13
HETATM   13  C9  UNK     1      17.562   9.148  33.449  1.00  0.00     0.161 C 
HETATM   14  C11 UNK     1      18.755   9.816  34.081  1.00  0.00     0.097 C 
HETATM   15  O3  UNK     1      16.506   9.755  33.267  1.00  0.00    -0.293 OA
ENDBRANCH   7  13
TORSDOF 1
ENDMDL
MODEL 9
REMARK VINA RESULT:      -6.4     22.357     23.924
REMARK  1 active torsions:
REMARK  status: ('A' for Active; 'I' for Inactive)
REMARK    1  A    between atoms: C4_8  and  C9_13 
ROOT
HETATM    1 Br1  UNK     1       8.100   7.082   7.486  1.00  0.00    -0.051 Br
HETATM    2  O1  UNK     1      12.625   7.348  10.127  1.00  0.00    -0.274 OA
HETATM    3  O2  UNK     1      14.540   7.531  11.359  1.00  0.00    -0.259 OA
HETATM    4  C1  UNK     1      12.639   6.052   8.070  1.00  0.00    -0.001 A 
HETATM    5  C2  UNK     1      11.960   6.840   8.994  1.00  0.00     0.091 A 
HETATM    6  C3  UNK     1      14.046   5.760   8.295  1.00  0.00     0.035 A 
HETATM    7  C4  UNK     1      14.672   6.244   9.374  1.00  0.00     0.086 A 
HETATM    8  C5  UNK     1      11.947   5.568   6.958  1.00  0.00     0.015 A 
HETATM    9  C6  UNK     1      10.613   7.157   8.837  1.00  0.00     0.057 A 
HETATM   10  C7  UNK     1      13.971   7.084  10.369  1.00  0.00     0.302 A 
HETATM   11  C8  UNK     1      10.594   5.877   6.788  1.00  0.00     0.020 A 
HETATM   12  C10 UNK     1       9.928   6.670   7.726  1.00  0.00     0.013 A 
ENDROOT
BRANCH   7  13
HETATM   13  C9  UNK     1      16.092   5.894   9.513  1.00  0.00     0.161 C 
HETATM   14  C11 UNK     1      17.071   7.009   9.775  1.00  0.00     0.097 C 
HETATM   15  O3  UNK     1      16.460   4.724   9.410  1.00  0.00    -0.293 OA
ENDBRANCH   7  13
TORSDOF 1
ENDMDL
MODEL 10
REMARK VINA RESULT:      -6.4     15.492     16.471
REMARK  1 active torsions:
REMARK  status: ('A' for Active; 'I' for Inactive)
REMARK    1  A    between atoms: C4_8  and  C9_13 
ROOT
HETATM    1 Br1  UNK     1      34.457  -3.964  34.545  1.00  0.00    -0.051 Br
HETATM    2  O1  UNK     1      30.829  -3.899  38.334  1.00  0.00    -0.274 OA
HETATM    3  O2  UNK     1      29.313  -3.787  40.040  1.00  0.00    -0.259 OA
HETATM    4  C1  UNK     1      30.440  -5.424  36.481  1.00  0.00    -0.001 A 
HETATM    5  C2  UNK     1      31.225  -4.459  37.104  1.00  0.00     0.091 A 
HETATM    6  C3  UNK     1      29.204  -5.844  37.120  1.00  0.00     0.035 A 
HETATM    7  C4  UNK     1      28.831  -5.308  38.288  1.00  0.00     0.086 A 
HETATM    8  C5  UNK     1      30.867  -5.957  35.263  1.00  0.00     0.015 A 
HETATM    9  C6  UNK     1      32.421  -4.014  36.545  1.00  0.00     0.057 A 
HETATM   10  C7  UNK     1      29.650  -4.281  38.969  1.00  0.00     0.302 A 
HETATM   11  C8  UNK     1      32.065  -5.519  34.689  1.00  0.00     0.020 A 
HETATM   12  C10 UNK     1      32.840  -4.549  35.329  1.00  0.00     0.013 A 
ENDROOT
BRANCH   7  13
HETATM   13  C9  UNK     1      27.568  -5.797  38.854  1.00  0.00     0.161 C 
HETATM   14  C11 UNK     1      27.515  -7.222  39.339  1.00  0.00     0.097 C 
HETATM   15  O3  UNK     1      26.585  -5.058  38.919  1.00  0.00    -0.293 OA
ENDBRANCH   7  13
TORSDOF 1
ENDMDL
