MODEL 1
REMARK VINA RESULT:      -7.6      0.000      0.000
REMARK  4 active torsions:
REMARK  status: ('A' for Active; 'I' for Inactive)
REMARK    1  A    between atoms: C11_17  and  O2_3 
REMARK    2  A    between atoms: C3_9  and  O2_3 
REMARK    3  A    between atoms: C17_23  and  O3_4 
REMARK    4  A    between atoms: C8_14  and  O3_4 
ROOT
HETATM    1  O1  UNK     1      16.288   6.913   9.859  1.00  0.00    -0.311 OA
HETATM    2  O4  UNK     1      12.732   8.862  10.250  1.00  0.00    -0.284 OA
HETATM    3  C1  UNK     1      15.079   9.008  10.074  1.00  0.00     0.051 A 
HETATM    4  C2  UNK     1      16.260   8.282   9.939  1.00  0.00     0.092 A 
HETATM    5  C3  UNK     1      13.884   6.803  10.044  1.00  0.00     0.156 A 
HETATM    6  C4  UNK     1      13.803   8.281  10.134  1.00  0.00     0.221 A 
HETATM    7  C5  UNK     1      15.088   6.219   9.915  1.00  0.00     0.087 A 
HETATM    8  C6  UNK     1      15.112  10.402  10.151  1.00  0.00     0.021 A 
HETATM    9  C7  UNK     1      17.486   8.948   9.880  1.00  0.00     0.075 A 
HETATM   10  C8  UNK     1      17.523  10.340   9.957  1.00  0.00     0.081 A 
HETATM   11  C9  UNK     1      16.338  11.066  10.092  1.00  0.00     0.038 A 
HETATM   12  C10 UNK     1      15.279   4.736   9.815  1.00  0.00     0.080 C 
ENDROOT
BRANCH   5  13
HETATM   13  O2  UNK     1      12.712   6.083  10.096  1.00  0.00    -0.304 OA
BRANCH  13  14
HETATM   14  C11 UNK     1      11.917   6.112   8.983  1.00  0.00     0.076 A 
HETATM   15  C12 UNK     1      12.494   6.025   7.719  1.00  0.00     0.039 A 
HETATM   16  C14 UNK     1      11.684   6.057   6.584  1.00  0.00     0.026 A 
HETATM   17  C16 UNK     1      10.301   6.176   6.718  1.00  0.00     0.034 A 
HETATM   18  C15 UNK     1       9.727   6.262   7.987  1.00  0.00     0.026 A 
HETATM   19 Cl1  UNK     1       9.300   6.216   5.318  1.00  0.00    -0.084 Cl
HETATM   20  C13 UNK     1      10.537   6.231   9.122  1.00  0.00     0.039 A 
ENDBRANCH  13  14
ENDBRANCH   5  13
BRANCH  10  21
HETATM   21  O3  UNK     1      18.716  10.991   9.900  1.00  0.00    -0.279 OA
BRANCH  21  22
HETATM   22  C17 UNK     1      19.017  11.531   8.638  1.00  0.00     0.260 C 
HETATM   23  O5  UNK     1      19.314  10.890   7.639  1.00  0.00    -0.265 OA
HETATM   24  C18 UNK     1      18.922  13.027   8.683  1.00  0.00     0.126 C 
ENDBRANCH  21  22
ENDBRANCH  10  21
TORSDOF 4
ENDMDL
MODEL 2
REMARK VINA RESULT:      -7.5     23.117     24.881
REMARK  4 active torsions:
REMARK  status: ('A' for Active; 'I' for Inactive)
REMARK    1  A    between atoms: C11_17  and  O2_3 
REMARK    2  A    between atoms: C3_9  and  O2_3 
REMARK    3  A    between atoms: C17_23  and  O3_4 
REMARK    4  A    between atoms: C8_14  and  O3_4 
ROOT
HETATM    1  O1  UNK     1      18.855   0.801  32.676  1.00  0.00    -0.311 OA
HETATM    2  O4  UNK     1      18.414   2.841  29.177  1.00  0.00    -0.284 OA
HETATM    3  C1  UNK     1      19.177   0.896  30.271  1.00  0.00     0.051 A 
HETATM    4  C2  UNK     1      19.297   0.252  31.500  1.00  0.00     0.092 A 
HETATM    5  C3  UNK     1      18.089   2.778  31.522  1.00  0.00     0.156 A 
HETATM    6  C4  UNK     1      18.550   2.225  30.226  1.00  0.00     0.221 A 
HETATM    7  C5  UNK     1      18.262   2.055  32.642  1.00  0.00     0.087 A 
HETATM    8  C6  UNK     1      19.646   0.287  29.105  1.00  0.00     0.021 A 
HETATM    9  C7  UNK     1      19.889  -1.011  31.570  1.00  0.00     0.075 A 
HETATM   10  C8  UNK     1      20.358  -1.623  30.408  1.00  0.00     0.081 A 
HETATM   11  C9  UNK     1      20.237  -0.975  29.178  1.00  0.00     0.038 A 
HETATM   12  C10 UNK     1      17.832   2.523  34.000  1.00  0.00     0.080 C 
ENDROOT
BRANCH   5  13
HETATM   13  O2  UNK     1      17.496   4.021  31.525  1.00  0.00    -0.304 OA
BRANCH  13  14
HETATM   14  C11 UNK     1      18.192   5.038  32.118  1.00  0.00     0.076 A 
HETATM   15  C12 UNK     1      19.478   5.341  31.682  1.00  0.00     0.039 A 
HETATM   16  C14 UNK     1      20.189   6.378  32.287  1.00  0.00     0.026 A 
HETATM   17  C16 UNK     1      19.610   7.106  33.326  1.00  0.00     0.034 A 
HETATM   18  C15 UNK     1      18.320   6.799  33.759  1.00  0.00     0.026 A 
HETATM   19 Cl1  UNK     1      20.487   8.385  34.074  1.00  0.00    -0.084 Cl
HETATM   20  C13 UNK     1      17.609   5.763  33.154  1.00  0.00     0.039 A 
ENDBRANCH  13  14
ENDBRANCH   5  13
BRANCH  10  21
HETATM   21  O3  UNK     1      20.936  -2.853  30.475  1.00  0.00    -0.279 OA
BRANCH  21  22
HETATM   22  C17 UNK     1      21.289  -3.253  31.774  1.00  0.00     0.260 C 
HETATM   23  O5  UNK     1      21.329  -2.527  32.759  1.00  0.00    -0.265 OA
HETATM   24  C18 UNK     1      21.616  -4.716  31.791  1.00  0.00     0.126 C 
ENDBRANCH  21  22
ENDBRANCH  10  21
TORSDOF 4
ENDMDL
MODEL 3
REMARK VINA RESULT:      -7.5      6.122     10.507
REMARK  4 active torsions:
REMARK  status: ('A' for Active; 'I' for Inactive)
REMARK    1  A    between atoms: C11_17  and  O2_3 
REMARK    2  A    between atoms: C3_9  and  O2_3 
REMARK    3  A    between atoms: C17_23  and  O3_4 
REMARK    4  A    between atoms: C8_14  and  O3_4 
ROOT
HETATM    1  O1  UNK     1       6.772   6.264  11.421  1.00  0.00    -0.311 OA
HETATM    2  O4  UNK     1       7.183   3.464   8.491  1.00  0.00    -0.284 OA
HETATM    3  C1  UNK     1       6.410   3.988  10.657  1.00  0.00     0.051 A 
HETATM    4  C2  UNK     1       6.301   4.992  11.617  1.00  0.00     0.092 A 
HETATM    5  C3  UNK     1       7.552   5.690   9.211  1.00  0.00     0.156 A 
HETATM    6  C4  UNK     1       7.058   4.301   9.375  1.00  0.00     0.221 A 
HETATM    7  C5  UNK     1       7.385   6.568  10.214  1.00  0.00     0.087 A 
HETATM    8  C6  UNK     1       5.911   2.709  10.913  1.00  0.00     0.021 A 
HETATM    9  C7  UNK     1       5.691   4.720  12.843  1.00  0.00     0.075 A 
HETATM   10  C8  UNK     1       5.191   3.444  13.102  1.00  0.00     0.081 A 
HETATM   11  C9  UNK     1       5.302   2.440  12.138  1.00  0.00     0.038 A 
HETATM   12  C10 UNK     1       7.847   7.993  10.149  1.00  0.00     0.080 C 
ENDROOT
BRANCH   5  13
HETATM   13  O2  UNK     1       8.165   6.026   8.024  1.00  0.00    -0.304 OA
BRANCH  13  14
HETATM   14  C11 UNK     1       9.528   5.928   7.983  1.00  0.00     0.076 A 
HETATM   15  C12 UNK     1      10.220   5.432   9.084  1.00  0.00     0.039 A 
HETATM   16  C14 UNK     1      11.611   5.334   9.042  1.00  0.00     0.026 A 
HETATM   17  C16 UNK     1      12.304   5.732   7.900  1.00  0.00     0.034 A 
HETATM   18  C15 UNK     1      11.606   6.227   6.797  1.00  0.00     0.026 A 
HETATM   19 Cl1  UNK     1      14.020   5.612   7.848  1.00  0.00    -0.084 Cl
HETATM   20  C13 UNK     1      10.216   6.326   6.839  1.00  0.00     0.039 A 
ENDBRANCH  13  14
ENDBRANCH   5  13
BRANCH  10  21
HETATM   21  O3  UNK     1       4.596   3.177  14.296  1.00  0.00    -0.279 OA
BRANCH  21  22
HETATM   22  C17 UNK     1       5.495   2.879  15.333  1.00  0.00     0.260 C 
HETATM   23  O5  UNK     1       6.264   3.671  15.862  1.00  0.00    -0.265 OA
HETATM   24  C18 UNK     1       5.384   1.431  15.709  1.00  0.00     0.126 C 
ENDBRANCH  21  22
ENDBRANCH  10  21
TORSDOF 4
ENDMDL
MODEL 4
REMARK VINA RESULT:      -7.5     25.893     27.643
REMARK  4 active torsions:
REMARK  status: ('A' for Active; 'I' for Inactive)
REMARK    1  A    between atoms: C11_17  and  O2_3 
REMARK    2  A    between atoms: C3_9  and  O2_3 
REMARK    3  A    between atoms: C17_23  and  O3_4 
REMARK    4  A    between atoms: C8_14  and  O3_4 
ROOT
HETATM    1  O1  UNK     1      19.659  -0.941  33.081  1.00  0.00    -0.311 OA
HETATM    2  O4  UNK     1      17.075   1.013  35.550  1.00  0.00    -0.284 OA
HETATM    3  C1  UNK     1      18.599  -0.762  35.258  1.00  0.00     0.051 A 
HETATM    4  C2  UNK     1      19.468  -1.384  34.364  1.00  0.00     0.092 A 
HETATM    5  C3  UNK     1      18.091   0.862  33.416  1.00  0.00     0.156 A 
HETATM    6  C4  UNK     1      17.851   0.422  34.812  1.00  0.00     0.221 A 
HETATM    7  C5  UNK     1      18.957   0.176  32.652  1.00  0.00     0.087 A 
HETATM    8  C6  UNK     1      18.445  -1.259  36.555  1.00  0.00     0.021 A 
HETATM    9  C7  UNK     1      20.190  -2.510  34.763  1.00  0.00     0.075 A 
HETATM   10  C8  UNK     1      20.039  -3.009  36.057  1.00  0.00     0.081 A 
HETATM   11  C9  UNK     1      19.168  -2.384  36.951  1.00  0.00     0.038 A 
HETATM   12  C10 UNK     1      19.269   0.538  31.231  1.00  0.00     0.080 C 
ENDROOT
BRANCH   5  13
HETATM   13  O2  UNK     1      17.410   1.968  32.957  1.00  0.00    -0.304 OA
BRANCH  13  14
HETATM   14  C11 UNK     1      18.070   3.165  33.005  1.00  0.00     0.076 A 
HETATM   15  C12 UNK     1      18.278   3.887  31.834  1.00  0.00     0.039 A 
HETATM   16  C14 UNK     1      18.952   5.107  31.883  1.00  0.00     0.026 A 
HETATM   17  C16 UNK     1      19.415   5.600  33.103  1.00  0.00     0.034 A 
HETATM   18  C15 UNK     1      19.203   4.873  34.275  1.00  0.00     0.026 A 
HETATM   19 Cl1  UNK     1      20.249   7.105  33.164  1.00  0.00    -0.084 Cl
HETATM   20  C13 UNK     1      18.529   3.653  34.226  1.00  0.00     0.039 A 
ENDBRANCH  13  14
ENDBRANCH   5  13
BRANCH  10  21
HETATM   21  O3  UNK     1      20.742  -4.107  36.447  1.00  0.00    -0.279 OA
BRANCH  21  22
HETATM   22  C17 UNK     1      20.148  -5.328  36.086  1.00  0.00     0.260 C 
HETATM   23  O5  UNK     1      20.124  -5.805  34.959  1.00  0.00    -0.265 OA
HETATM   24  C18 UNK     1      19.536  -5.978  37.291  1.00  0.00     0.126 C 
ENDBRANCH  21  22
ENDBRANCH  10  21
TORSDOF 4
ENDMDL
MODEL 5
REMARK VINA RESULT:      -7.5     24.652     26.290
REMARK  4 active torsions:
REMARK  status: ('A' for Active; 'I' for Inactive)
REMARK    1  A    between atoms: C11_17  and  O2_3 
REMARK    2  A    between atoms: C3_9  and  O2_3 
REMARK    3  A    between atoms: C17_23  and  O3_4 
REMARK    4  A    between atoms: C8_14  and  O3_4 
ROOT
HETATM    1  O1  UNK     1      18.631   1.184  31.603  1.00  0.00    -0.311 OA
HETATM    2  O4  UNK     1      17.877   4.187  34.251  1.00  0.00    -0.284 OA
HETATM    3  C1  UNK     1      18.334   1.899  33.904  1.00  0.00     0.051 A 
HETATM    4  C2  UNK     1      18.587   0.919  32.947  1.00  0.00     0.092 A 
HETATM    5  C3  UNK     1      18.160   3.517  31.996  1.00  0.00     0.156 A 
HETATM    6  C4  UNK     1      18.103   3.281  33.459  1.00  0.00     0.221 A 
HETATM    7  C5  UNK     1      18.414   2.485  31.174  1.00  0.00     0.087 A 
HETATM    8  C6  UNK     1      18.301   1.570  35.261  1.00  0.00     0.021 A 
HETATM    9  C7  UNK     1      18.809  -0.401  33.344  1.00  0.00     0.075 A 
HETATM   10  C8  UNK     1      18.778  -0.734  34.698  1.00  0.00     0.081 A 
HETATM   11  C9  UNK     1      18.524   0.250  35.655  1.00  0.00     0.038 A 
HETATM   12  C10 UNK     1      18.492   2.618  29.683  1.00  0.00     0.080 C 
ENDROOT
BRANCH   5  13
HETATM   13  O2  UNK     1      17.949   4.798  31.536  1.00  0.00    -0.304 OA
BRANCH  13  14
HETATM   14  C11 UNK     1      18.549   5.812  32.231  1.00  0.00     0.076 A 
HETATM   15  C12 UNK     1      19.934   5.840  32.355  1.00  0.00     0.039 A 
HETATM   16  C14 UNK     1      20.546   6.874  33.065  1.00  0.00     0.026 A 
HETATM   17  C16 UNK     1      19.769   7.874  33.647  1.00  0.00     0.034 A 
HETATM   18  C15 UNK     1      18.380   7.843  33.520  1.00  0.00     0.026 A 
HETATM   19 Cl1  UNK     1      20.523   9.149  34.525  1.00  0.00    -0.084 Cl
HETATM   20  C13 UNK     1      17.768   6.809  32.810  1.00  0.00     0.039 A 
ENDBRANCH  13  14
ENDBRANCH   5  13
BRANCH  10  21
HETATM   21  O3  UNK     1      18.994  -2.020  35.086  1.00  0.00    -0.279 OA
BRANCH  21  22
HETATM   22  C17 UNK     1      20.241  -2.234  35.698  1.00  0.00     0.260 C 
HETATM   23  O5  UNK     1      21.331  -1.955  35.216  1.00  0.00    -0.265 OA
HETATM   24  C18 UNK     1      20.051  -2.862  37.046  1.00  0.00     0.126 C 
ENDBRANCH  21  22
ENDBRANCH  10  21
TORSDOF 4
ENDMDL
MODEL 6
REMARK VINA RESULT:      -7.4     23.300     24.828
REMARK  4 active torsions:
REMARK  status: ('A' for Active; 'I' for Inactive)
REMARK    1  A    between atoms: C11_17  and  O2_3 
REMARK    2  A    between atoms: C3_9  and  O2_3 
REMARK    3  A    between atoms: C17_23  and  O3_4 
REMARK    4  A    between atoms: C8_14  and  O3_4 
ROOT
HETATM    1  O1  UNK     1      18.973   3.718  30.746  1.00  0.00    -0.311 OA
HETATM    2  O4  UNK     1      18.319   5.352  34.420  1.00  0.00    -0.284 OA
HETATM    3  C1  UNK     1      18.433   3.406  33.092  1.00  0.00     0.051 A 
HETATM    4  C2  UNK     1      18.668   2.911  31.812  1.00  0.00     0.092 A 
HETATM    5  C3  UNK     1      18.845   5.687  32.135  1.00  0.00     0.156 A 
HETATM    6  C4  UNK     1      18.513   4.857  33.318  1.00  0.00     0.221 A 
HETATM    7  C5  UNK     1      19.051   5.088  30.950  1.00  0.00     0.087 A 
HETATM    8  C6  UNK     1      18.126   2.535  34.141  1.00  0.00     0.021 A 
HETATM    9  C7  UNK     1      18.597   1.538  31.571  1.00  0.00     0.075 A 
HETATM   10  C8  UNK     1      18.292   0.665  32.615  1.00  0.00     0.081 A 
HETATM   11  C9  UNK     1      18.056   1.163  33.898  1.00  0.00     0.038 A 
HETATM   12  C10 UNK     1      19.391   5.836  29.696  1.00  0.00     0.080 C 
ENDROOT
BRANCH   5  13
HETATM   13  O2  UNK     1      18.931   7.052  32.302  1.00  0.00    -0.304 OA
BRANCH  13  14
HETATM   14  C11 UNK     1      17.759   7.725  32.511  1.00  0.00     0.076 A 
HETATM   15  C12 UNK     1      16.687   7.533  31.644  1.00  0.00     0.039 A 
HETATM   16  C14 UNK     1      15.492   8.220  31.857  1.00  0.00     0.026 A 
HETATM   17  C16 UNK     1      15.375   9.097  32.935  1.00  0.00     0.034 A 
HETATM   18  C15 UNK     1      16.451   9.286  33.802  1.00  0.00     0.026 A 
HETATM   19 Cl1  UNK     1      13.901   9.947  33.197  1.00  0.00    -0.084 Cl
HETATM   20  C13 UNK     1      17.646   8.598  33.589  1.00  0.00     0.039 A 
ENDBRANCH  13  14
ENDBRANCH   5  13
BRANCH  10  21
HETATM   21  O3  UNK     1      18.222  -0.674  32.383  1.00  0.00    -0.279 OA
BRANCH  21  22
HETATM   22  C17 UNK     1      19.441  -1.351  32.554  1.00  0.00     0.260 C 
HETATM   23  O5  UNK     1      19.962  -1.625  33.627  1.00  0.00    -0.265 OA
HETATM   24  C18 UNK     1      20.029  -1.697  31.218  1.00  0.00     0.126 C 
ENDBRANCH  21  22
ENDBRANCH  10  21
TORSDOF 4
ENDMDL
MODEL 7
REMARK VINA RESULT:      -7.4     22.725     24.210
REMARK  4 active torsions:
REMARK  status: ('A' for Active; 'I' for Inactive)
REMARK    1  A    between atoms: C11_17  and  O2_3 
REMARK    2  A    between atoms: C3_9  and  O2_3 
REMARK    3  A    between atoms: C17_23  and  O3_4 
REMARK    4  A    between atoms: C8_14  and  O3_4 
ROOT
HETATM    1  O1  UNK     1      18.110   4.272  33.248  1.00  0.00    -0.311 OA
HETATM    2  O4  UNK     1      19.005   6.594  30.023  1.00  0.00    -0.284 OA
HETATM    3  C1  UNK     1      18.695   4.426  30.897  1.00  0.00     0.051 A 
HETATM    4  C2  UNK     1      18.381   3.689  32.037  1.00  0.00     0.092 A 
HETATM    5  C3  UNK     1      18.439   6.475  32.320  1.00  0.00     0.156 A 
HETATM    6  C4  UNK     1      18.738   5.892  30.989  1.00  0.00     0.221 A 
HETATM    7  C5  UNK     1      18.150   5.655  33.345  1.00  0.00     0.087 A 
HETATM    8  C6  UNK     1      18.962   3.777  29.688  1.00  0.00     0.021 A 
HETATM    9  C7  UNK     1      18.334   2.296  31.975  1.00  0.00     0.075 A 
HETATM   10  C8  UNK     1      18.600   1.645  30.771  1.00  0.00     0.081 A 
HETATM   11  C9  UNK     1      18.913   2.384  29.630  1.00  0.00     0.038 A 
HETATM   12  C10 UNK     1      17.833   6.143  34.727  1.00  0.00     0.080 C 
ENDROOT
BRANCH   5  13
HETATM   13  O2  UNK     1      18.469   7.845  32.451  1.00  0.00    -0.304 OA
BRANCH  13  14
HETATM   14  C11 UNK     1      17.271   8.474  32.655  1.00  0.00     0.076 A 
HETATM   15  C12 UNK     1      16.167   8.127  31.882  1.00  0.00     0.039 A 
HETATM   16  C14 UNK     1      14.947   8.769  32.090  1.00  0.00     0.026 A 
HETATM   17  C16 UNK     1      14.836   9.756  33.070  1.00  0.00     0.034 A 
HETATM   18  C15 UNK     1      15.945  10.100  33.843  1.00  0.00     0.026 A 
HETATM   19 Cl1  UNK     1      13.330  10.549  33.325  1.00  0.00    -0.084 Cl
HETATM   20  C13 UNK     1      17.165   9.458  33.635  1.00  0.00     0.039 A 
ENDBRANCH  13  14
ENDBRANCH   5  13
BRANCH  10  21
HETATM   21  O3  UNK     1      18.554   0.286  30.709  1.00  0.00    -0.279 OA
BRANCH  21  22
HETATM   22  C17 UNK     1      19.621  -0.355  31.360  1.00  0.00     0.260 C 
HETATM   23  O5  UNK     1      20.810  -0.139  31.166  1.00  0.00    -0.265 OA
HETATM   24  C18 UNK     1      19.095  -1.360  32.342  1.00  0.00     0.126 C 
ENDBRANCH  21  22
ENDBRANCH  10  21
TORSDOF 4
ENDMDL
MODEL 8
REMARK VINA RESULT:      -7.4      3.972      6.572
REMARK  4 active torsions:
REMARK  status: ('A' for Active; 'I' for Inactive)
REMARK    1  A    between atoms: C11_17  and  O2_3 
REMARK    2  A    between atoms: C3_9  and  O2_3 
REMARK    3  A    between atoms: C17_23  and  O3_4 
REMARK    4  A    between atoms: C8_14  and  O3_4 
ROOT
HETATM    1  O1  UNK     1      10.677   8.409   9.644  1.00  0.00    -0.311 OA
HETATM    2  O4  UNK     1       8.549   5.468   7.794  1.00  0.00    -0.284 OA
HETATM    3  C1  UNK     1      10.662   6.323   8.402  1.00  0.00     0.051 A 
HETATM    4  C2  UNK     1      11.329   7.359   9.050  1.00  0.00     0.092 A 
HETATM    5  C3  UNK     1       8.533   7.506   9.002  1.00  0.00     0.156 A 
HETATM    6  C4  UNK     1       9.192   6.350   8.347  1.00  0.00     0.221 A 
HETATM    7  C5  UNK     1       9.290   8.443   9.596  1.00  0.00     0.087 A 
HETATM    8  C6  UNK     1      11.380   5.278   7.815  1.00  0.00     0.021 A 
HETATM    9  C7  UNK     1      12.724   7.357   9.116  1.00  0.00     0.075 A 
HETATM   10  C8  UNK     1      13.444   6.316   8.531  1.00  0.00     0.081 A 
HETATM   11  C9  UNK     1      12.773   5.278   7.882  1.00  0.00     0.038 A 
HETATM   12  C10 UNK     1       8.723   9.648  10.285  1.00  0.00     0.080 C 
ENDROOT
BRANCH   5  13
HETATM   13  O2  UNK     1       7.158   7.570   8.974  1.00  0.00    -0.304 OA
BRANCH  13  14
HETATM   14  C11 UNK     1       6.500   7.253  10.130  1.00  0.00     0.076 A 
HETATM   15  C12 UNK     1       6.813   6.076  10.803  1.00  0.00     0.039 A 
HETATM   16  C14 UNK     1       6.141   5.751  11.982  1.00  0.00     0.026 A 
HETATM   17  C16 UNK     1       5.158   6.605  12.482  1.00  0.00     0.034 A 
HETATM   18  C15 UNK     1       4.848   7.785  11.804  1.00  0.00     0.026 A 
HETATM   19 Cl1  UNK     1       4.327   6.205  13.935  1.00  0.00    -0.084 Cl
HETATM   20  C13 UNK     1       5.520   8.109  10.626  1.00  0.00     0.039 A 
ENDBRANCH  13  14
ENDBRANCH   5  13
BRANCH  10  21
HETATM   21  O3  UNK     1      14.803   6.312   8.594  1.00  0.00    -0.279 OA
BRANCH  21  22
HETATM   22  C17 UNK     1      15.319   6.005   9.864  1.00  0.00     0.260 C 
HETATM   23  O5  UNK     1      14.871   5.165  10.633  1.00  0.00    -0.265 OA
HETATM   24  C18 UNK     1      16.515   6.862  10.154  1.00  0.00     0.126 C 
ENDBRANCH  21  22
ENDBRANCH  10  21
TORSDOF 4
ENDMDL
MODEL 9
REMARK VINA RESULT:      -7.4     23.805     24.964
REMARK  4 active torsions:
REMARK  status: ('A' for Active; 'I' for Inactive)
REMARK    1  A    between atoms: C11_17  and  O2_3 
REMARK    2  A    between atoms: C3_9  and  O2_3 
REMARK    3  A    between atoms: C17_23  and  O3_4 
REMARK    4  A    between atoms: C8_14  and  O3_4 
ROOT
HETATM    1  O1  UNK     1      18.271  10.389  34.207  1.00  0.00    -0.311 OA
HETATM    2  O4  UNK     1      16.097   6.962  34.560  1.00  0.00    -0.284 OA
HETATM    3  C1  UNK     1      16.101   9.313  34.374  1.00  0.00     0.051 A 
HETATM    4  C2  UNK     1      16.902  10.446  34.254  1.00  0.00     0.092 A 
HETATM    5  C3  UNK     1      18.228   7.984  34.402  1.00  0.00     0.156 A 
HETATM    6  C4  UNK     1      16.746   7.994  34.455  1.00  0.00     0.221 A 
HETATM    7  C5  UNK     1      18.888   9.148  34.283  1.00  0.00     0.087 A 
HETATM    8  C6  UNK     1      14.710   9.432  34.417  1.00  0.00     0.021 A 
HETATM    9  C7  UNK     1      16.315  11.710  34.176  1.00  0.00     0.075 A 
HETATM   10  C8  UNK     1      14.926  11.834  34.218  1.00  0.00     0.081 A 
HETATM   11  C9  UNK     1      14.125  10.697  34.338  1.00  0.00     0.038 A 
HETATM   12  C10 UNK     1      20.382   9.246  34.220  1.00  0.00     0.080 C 
ENDROOT
BRANCH   5  13
HETATM   13  O2  UNK     1      18.872   6.769  34.474  1.00  0.00    -0.304 OA
BRANCH  13  14
HETATM   14  C11 UNK     1      18.844   5.985  33.354  1.00  0.00     0.076 A 
HETATM   15  C12 UNK     1      19.412   6.448  32.171  1.00  0.00     0.039 A 
HETATM   16  C14 UNK     1      19.382   5.649  31.028  1.00  0.00     0.026 A 
HETATM   17  C16 UNK     1      18.783   4.391  31.073  1.00  0.00     0.034 A 
HETATM   18  C15 UNK     1      18.215   3.930  32.261  1.00  0.00     0.026 A 
HETATM   19 Cl1  UNK     1      18.744   3.405  29.663  1.00  0.00    -0.084 Cl
HETATM   20  C13 UNK     1      18.246   4.729  33.404  1.00  0.00     0.039 A 
ENDBRANCH  13  14
ENDBRANCH   5  13
BRANCH  10  21
HETATM   21  O3  UNK     1      14.351  13.065  34.141  1.00  0.00    -0.279 OA
BRANCH  21  22
HETATM   22  C17 UNK     1      14.077  13.490  32.831  1.00  0.00     0.260 C 
HETATM   23  O5  UNK     1      13.271  12.975  32.066  1.00  0.00    -0.265 OA
HETATM   24  C18 UNK     1      14.920  14.683  32.490  1.00  0.00     0.126 C 
ENDBRANCH  21  22
ENDBRANCH  10  21
TORSDOF 4
ENDMDL
MODEL 10
REMARK VINA RESULT:      -7.4     23.519     24.855
REMARK  4 active torsions:
REMARK  status: ('A' for Active; 'I' for Inactive)
REMARK    1  A    between atoms: C11_17  and  O2_3 
REMARK    2  A    between atoms: C3_9  and  O2_3 
REMARK    3  A    between atoms: C17_23  and  O3_4 
REMARK    4  A    between atoms: C8_14  and  O3_4 
ROOT
HETATM    1  O1  UNK     1      15.984   6.457  32.641  1.00  0.00    -0.311 OA
HETATM    2  O4  UNK     1      18.897   8.385  34.738  1.00  0.00    -0.284 OA
HETATM    3  C1  UNK     1      18.347   6.836  33.046  1.00  0.00     0.051 A 
HETATM    4  C2  UNK     1      17.304   6.211  32.366  1.00  0.00     0.092 A 
HETATM    5  C3  UNK     1      16.584   8.033  34.367  1.00  0.00     0.156 A 
HETATM    6  C4  UNK     1      18.025   7.802  34.106  1.00  0.00     0.221 A 
HETATM    7  C5  UNK     1      15.671   7.367  33.641  1.00  0.00     0.087 A 
HETATM    8  C6  UNK     1      19.675   6.546  32.722  1.00  0.00     0.021 A 
HETATM    9  C7  UNK     1      17.583   5.290  31.356  1.00  0.00     0.075 A 
HETATM   10  C8  UNK     1      18.907   4.998  31.030  1.00  0.00     0.081 A 
HETATM   11  C9  UNK     1      19.951   5.624  31.712  1.00  0.00     0.038 A 
HETATM   12  C10 UNK     1      14.192   7.529  33.826  1.00  0.00     0.080 C 
ENDROOT
BRANCH   5  13
HETATM   13  O2  UNK     1      16.237   8.931  35.353  1.00  0.00    -0.304 OA
BRANCH  13  14
HETATM   14  C11 UNK     1      15.781  10.154  34.943  1.00  0.00     0.076 A 
HETATM   15  C12 UNK     1      14.478  10.541  35.242  1.00  0.00     0.039 A 
HETATM   16  C14 UNK     1      14.012  11.787  34.823  1.00  0.00     0.026 A 
HETATM   17  C16 UNK     1      14.852  12.641  34.108  1.00  0.00     0.034 A 
HETATM   18  C15 UNK     1      16.157  12.249  33.811  1.00  0.00     0.026 A 
HETATM   19 Cl1  UNK     1      14.277  14.178  33.589  1.00  0.00    -0.084 Cl
HETATM   20  C13 UNK     1      16.623  11.002  34.230  1.00  0.00     0.039 A 
ENDBRANCH  13  14
ENDBRANCH   5  13
BRANCH  10  21
HETATM   21  O3  UNK     1      19.182   4.099  30.045  1.00  0.00    -0.279 OA
BRANCH  21  22
HETATM   22  C17 UNK     1      18.571   2.847  30.223  1.00  0.00     0.260 C 
HETATM   23  O5  UNK     1      18.447   2.258  31.289  1.00  0.00    -0.265 OA
HETATM   24  C18 UNK     1      18.084   2.320  28.906  1.00  0.00     0.126 C 
ENDBRANCH  21  22
ENDBRANCH  10  21
TORSDOF 4
ENDMDL
