MODEL 1
REMARK VINA RESULT:      -8.8      0.000      0.000
REMARK  2 active torsions:
REMARK  status: ('A' for Active; 'I' for Inactive)
REMARK    1  A    between atoms: C15_20  and  O3_3 
REMARK    2  A    between atoms: C12_17  and  C6_11 
ROOT
HETATM    1  O1  UNK     1      28.172  -7.231  35.087  1.00  0.00    -0.340 OA
HETATM    2  O2  UNK     1      31.592  -2.538  36.611  1.00  0.00    -0.247 OA
HETATM    3  N1  UNK     1      30.582  -4.585  36.604  1.00  0.00    -0.329 N 
HETATM    4  N2  UNK     1      32.920  -4.387  36.452  1.00  0.00    -0.335 N 
HETATM    5  C1  UNK     1      30.579  -6.034  36.358  1.00  0.00     0.069 C 
HETATM    6  C2  UNK     1      31.930  -6.627  36.840  1.00  0.00     0.066 C 
HETATM    7  C3  UNK     1      33.176  -5.831  36.389  1.00  0.00     0.030 C 
HETATM    8  C4  UNK     1      30.390  -6.276  34.840  1.00  0.00     0.073 C 
HETATM    9  C5  UNK     1      29.405  -6.662  37.121  1.00  0.00     0.004 A 
HETATM   10  C6  UNK     1      28.915  -6.191  34.442  1.00  0.00     0.164 C 
HETATM   11  C7  UNK     1      33.652  -6.210  34.980  1.00  0.00     0.038 C 
HETATM   12  C8  UNK     1      34.329  -6.154  37.363  1.00  0.00     0.038 C 
HETATM   13  C9  UNK     1      28.309  -7.228  36.450  1.00  0.00     0.081 A 
HETATM   14  C10 UNK     1      31.692  -3.767  36.551  1.00  0.00     0.317 C 
HETATM   15  C11 UNK     1      29.374  -6.658  38.529  1.00  0.00     0.015 A 
HETATM   16  C13 UNK     1      27.269  -7.844  37.156  1.00  0.00     0.074 A 
HETATM   17  C14 UNK     1      28.326  -7.255  39.234  1.00  0.00     0.037 A 
HETATM   18  C15 UNK     1      27.279  -7.859  38.547  1.00  0.00     0.068 A 
HETATM   19  H6  UNK     1      29.681  -4.122  36.690  1.00  0.00     0.165 HD
HETATM   20  H7  UNK     1      33.730  -3.776  36.387  1.00  0.00     0.165 HD
ENDROOT
BRANCH  10  21
HETATM   21  C12 UNK     1      28.742  -6.337  32.944  1.00  0.00    -0.029 A 
HETATM   22  C16 UNK     1      28.026  -7.416  32.428  1.00  0.00     0.010 A 
HETATM   23  C18 UNK     1      27.867  -7.550  31.048  1.00  0.00     0.001 A 
HETATM   24  C20 UNK     1      28.423  -6.605  30.187  1.00  0.00     0.000 A 
HETATM   25  C19 UNK     1      29.139  -5.526  30.704  1.00  0.00     0.001 A 
HETATM   26  C17 UNK     1      29.299  -5.391  32.083  1.00  0.00     0.010 A 
ENDBRANCH  10  21
BRANCH  18  27
HETATM   27  O3  UNK     1      26.261  -8.447  39.232  1.00  0.00    -0.361 OA
HETATM   28  H22 UNK     1      26.214  -8.056  40.122  1.00  0.00     0.217 HD
ENDBRANCH  18  27
TORSDOF 2
ENDMDL
MODEL 2
REMARK VINA RESULT:      -8.4     13.330     14.992
REMARK  2 active torsions:
REMARK  status: ('A' for Active; 'I' for Inactive)
REMARK    1  A    between atoms: C15_20  and  O3_3 
REMARK    2  A    between atoms: C12_17  and  C6_11 
ROOT
HETATM    1  O1  UNK     1      19.218   2.075  31.717  1.00  0.00    -0.340 OA
HETATM    2  O2  UNK     1      14.738   0.108  35.195  1.00  0.00    -0.247 OA
HETATM    3  N1  UNK     1      16.745   0.284  34.123  1.00  0.00    -0.329 N 
HETATM    4  N2  UNK     1      16.620   0.303  36.471  1.00  0.00    -0.335 N 
HETATM    5  C1  UNK     1      18.177   0.613  34.087  1.00  0.00     0.069 C 
HETATM    6  C2  UNK     1      18.842   0.096  35.391  1.00  0.00     0.066 C 
HETATM    7  C3  UNK     1      18.066   0.434  36.684  1.00  0.00     0.030 C 
HETATM    8  C4  UNK     1      18.328   2.150  33.974  1.00  0.00     0.073 C 
HETATM    9  C5  UNK     1      18.805  -0.051  32.855  1.00  0.00     0.004 A 
HETATM   10  C6  UNK     1      18.170   2.619  32.526  1.00  0.00     0.164 C 
HETATM   11  C7  UNK     1      18.383   1.836  37.224  1.00  0.00     0.038 C 
HETATM   12  C8  UNK     1      18.483  -0.579  37.772  1.00  0.00     0.038 C 
HETATM   13  C9  UNK     1      19.295   0.708  31.780  1.00  0.00     0.081 A 
HETATM   14  C10 UNK     1      15.965   0.233  35.259  1.00  0.00     0.317 C 
HETATM   15  C11 UNK     1      18.879  -1.452  32.748  1.00  0.00     0.015 A 
HETATM   16  C13 UNK     1      19.913   0.095  30.684  1.00  0.00     0.074 A 
HETATM   17  C14 UNK     1      19.478  -2.066  31.644  1.00  0.00     0.037 A 
HETATM   18  C15 UNK     1      20.006  -1.291  30.618  1.00  0.00     0.068 A 
HETATM   19  H6  UNK     1      16.257   0.220  33.233  1.00  0.00     0.165 HD
HETATM   20  H7  UNK     1      16.035   0.289  37.302  1.00  0.00     0.165 HD
ENDROOT
BRANCH  10  21
HETATM   21  C12 UNK     1      18.226   4.130  32.431  1.00  0.00    -0.029 A 
HETATM   22  C16 UNK     1      17.856   4.911  33.525  1.00  0.00     0.010 A 
HETATM   23  C18 UNK     1      17.909   6.303  33.437  1.00  0.00     0.001 A 
HETATM   24  C20 UNK     1      18.331   6.911  32.256  1.00  0.00     0.000 A 
HETATM   25  C19 UNK     1      18.700   6.130  31.162  1.00  0.00     0.001 A 
HETATM   26  C17 UNK     1      18.648   4.738  31.249  1.00  0.00     0.010 A 
ENDBRANCH  10  21
BRANCH  18  27
HETATM   27  O3  UNK     1      20.595  -1.888  29.546  1.00  0.00    -0.361 OA
HETATM   28  H22 UNK     1      21.562  -1.825  29.643  1.00  0.00     0.217 HD
ENDBRANCH  18  27
TORSDOF 2
ENDMDL
MODEL 3
REMARK VINA RESULT:      -8.3     14.563     16.452
REMARK  2 active torsions:
REMARK  status: ('A' for Active; 'I' for Inactive)
REMARK    1  A    between atoms: C15_20  and  O3_3 
REMARK    2  A    between atoms: C12_17  and  C6_11 
ROOT
HETATM    1  O1  UNK     1      18.148   1.640  32.758  1.00  0.00    -0.340 OA
HETATM    2  O2  UNK     1      20.931   6.902  33.538  1.00  0.00    -0.247 OA
HETATM    3  N1  UNK     1      19.592   5.248  32.711  1.00  0.00    -0.329 N 
HETATM    4  N2  UNK     1      18.678   7.266  33.502  1.00  0.00    -0.335 N 
HETATM    5  C1  UNK     1      18.285   4.601  32.530  1.00  0.00     0.069 C 
HETATM    6  C2  UNK     1      17.217   5.694  32.260  1.00  0.00     0.066 C 
HETATM    7  C3  UNK     1      17.284   6.906  33.218  1.00  0.00     0.030 C 
HETATM    8  C4  UNK     1      17.942   3.813  33.818  1.00  0.00     0.073 C 
HETATM    9  C5  UNK     1      18.377   3.626  31.348  1.00  0.00     0.004 A 
HETATM   10  C6  UNK     1      18.632   2.448  33.835  1.00  0.00     0.164 C 
HETATM   11  C7  UNK     1      16.533   6.671  34.536  1.00  0.00     0.038 C 
HETATM   12  C8  UNK     1      16.613   8.108  32.519  1.00  0.00     0.038 C 
HETATM   13  C9  UNK     1      18.283   2.237  31.531  1.00  0.00     0.081 A 
HETATM   14  C10 UNK     1      19.797   6.492  33.273  1.00  0.00     0.317 C 
HETATM   15  C11 UNK     1      18.594   4.096  30.039  1.00  0.00     0.015 A 
HETATM   16  C13 UNK     1      18.316   1.360  30.441  1.00  0.00     0.074 A 
HETATM   17  C14 UNK     1      18.647   3.219  28.952  1.00  0.00     0.037 A 
HETATM   18  C15 UNK     1      18.496   1.852  29.152  1.00  0.00     0.068 A 
HETATM   19  H6  UNK     1      20.421   4.688  32.533  1.00  0.00     0.165 HD
HETATM   20  H7  UNK     1      18.837   8.170  33.939  1.00  0.00     0.165 HD
ENDROOT
BRANCH  10  21
HETATM   21  C12 UNK     1      18.369   1.717  35.137  1.00  0.00    -0.029 A 
HETATM   22  C16 UNK     1      17.945   2.427  36.260  1.00  0.00     0.010 A 
HETATM   23  C18 UNK     1      17.703   1.754  37.458  1.00  0.00     0.001 A 
HETATM   24  C20 UNK     1      17.884   0.374  37.531  1.00  0.00     0.000 A 
HETATM   25  C19 UNK     1      18.307  -0.335  36.408  1.00  0.00     0.001 A 
HETATM   26  C17 UNK     1      18.550   0.337  35.210  1.00  0.00     0.010 A 
ENDBRANCH  10  21
BRANCH  18  27
HETATM   27  O3  UNK     1      18.541   0.998  28.094  1.00  0.00    -0.361 OA
HETATM   28  H22 UNK     1      18.569   1.518  27.271  1.00  0.00     0.217 HD
ENDBRANCH  18  27
TORSDOF 2
ENDMDL
MODEL 4
REMARK VINA RESULT:      -8.2      4.172      6.395
REMARK  2 active torsions:
REMARK  status: ('A' for Active; 'I' for Inactive)
REMARK    1  A    between atoms: C15_20  and  O3_3 
REMARK    2  A    between atoms: C12_17  and  C6_11 
ROOT
HETATM    1  O1  UNK     1      32.498  -9.491  35.013  1.00  0.00    -0.340 OA
HETATM    2  O2  UNK     1      30.316 -11.430  40.259  1.00  0.00    -0.247 OA
HETATM    3  N1  UNK     1      31.048 -10.079  38.571  1.00  0.00    -0.329 N 
HETATM    4  N2  UNK     1      28.836  -9.945  39.357  1.00  0.00    -0.335 N 
HETATM    5  C1  UNK     1      30.819  -9.163  37.444  1.00  0.00     0.069 C 
HETATM    6  C2  UNK     1      29.667  -8.191  37.815  1.00  0.00     0.066 C 
HETATM    7  C3  UNK     1      28.430  -8.873  38.442  1.00  0.00     0.030 C 
HETATM    8  C4  UNK     1      30.442 -10.001  36.198  1.00  0.00     0.073 C 
HETATM    9  C5  UNK     1      32.115  -8.391  37.164  1.00  0.00     0.004 A 
HETATM   10  C6  UNK     1      31.687 -10.562  35.507  1.00  0.00     0.164 C 
HETATM   11  C7  UNK     1      27.457  -9.431  37.393  1.00  0.00     0.038 C 
HETATM   12  C8  UNK     1      27.660  -7.813  39.259  1.00  0.00     0.038 C 
HETATM   13  C9  UNK     1      32.845  -8.585  35.980  1.00  0.00     0.081 A 
HETATM   14  C10 UNK     1      30.078 -10.540  39.437  1.00  0.00     0.317 C 
HETATM   15  C11 UNK     1      32.633  -7.484  38.107  1.00  0.00     0.015 A 
HETATM   16  C13 UNK     1      33.997  -7.838  35.711  1.00  0.00     0.074 A 
HETATM   17  C14 UNK     1      33.795  -6.751  37.848  1.00  0.00     0.037 A 
HETATM   18  C15 UNK     1      34.471  -6.920  36.644  1.00  0.00     0.068 A 
HETATM   19  H6  UNK     1      31.965 -10.512  38.643  1.00  0.00     0.165 HD
HETATM   20  H7  UNK     1      28.120 -10.309  39.981  1.00  0.00     0.165 HD
ENDROOT
BRANCH  10  21
HETATM   21  C12 UNK     1      31.312 -11.456  34.343  1.00  0.00    -0.029 A 
HETATM   22  C16 UNK     1      30.532 -10.953  33.302  1.00  0.00     0.010 A 
HETATM   23  C18 UNK     1      30.187 -11.776  32.229  1.00  0.00     0.001 A 
HETATM   24  C20 UNK     1      30.622 -13.100  32.199  1.00  0.00     0.000 A 
HETATM   25  C19 UNK     1      31.402 -13.603  33.240  1.00  0.00     0.001 A 
HETATM   26  C17 UNK     1      31.747 -12.780  34.312  1.00  0.00     0.010 A 
ENDBRANCH  10  21
BRANCH  18  27
HETATM   27  O3  UNK     1      35.598  -6.203  36.388  1.00  0.00    -0.361 OA
HETATM   28  H22 UNK     1      36.311  -6.519  36.970  1.00  0.00     0.217 HD
ENDBRANCH  18  27
TORSDOF 2
ENDMDL
MODEL 5
REMARK VINA RESULT:      -8.1      3.233      4.869
REMARK  2 active torsions:
REMARK  status: ('A' for Active; 'I' for Inactive)
REMARK    1  A    between atoms: C15_20  and  O3_3 
REMARK    2  A    between atoms: C12_17  and  C6_11 
ROOT
HETATM    1  O1  UNK     1      31.326  -6.112  34.741  1.00  0.00    -0.340 OA
HETATM    2  O2  UNK     1      36.372  -5.779  31.506  1.00  0.00    -0.247 OA
HETATM    3  N1  UNK     1      34.872  -6.266  33.156  1.00  0.00    -0.329 N 
HETATM    4  N2  UNK     1      35.918  -7.976  31.927  1.00  0.00    -0.335 N 
HETATM    5  C1  UNK     1      33.955  -7.179  33.853  1.00  0.00     0.069 C 
HETATM    6  C2  UNK     1      34.619  -8.579  33.950  1.00  0.00     0.066 C 
HETATM    7  C3  UNK     1      35.256  -9.078  32.634  1.00  0.00     0.030 C 
HETATM    8  C4  UNK     1      32.634  -7.260  33.049  1.00  0.00     0.073 C 
HETATM    9  C5  UNK     1      33.665  -6.615  35.250  1.00  0.00     0.004 A 
HETATM   10  C6  UNK     1      31.717  -6.076  33.365  1.00  0.00     0.164 C 
HETATM   11  C7  UNK     1      34.246  -9.758  31.698  1.00  0.00     0.038 C 
HETATM   12  C8  UNK     1      36.329 -10.131  32.989  1.00  0.00     0.038 C 
HETATM   13  C9  UNK     1      32.389  -6.147  35.605  1.00  0.00     0.081 A 
HETATM   14  C10 UNK     1      35.750  -6.626  32.154  1.00  0.00     0.317 C 
HETATM   15  C11 UNK     1      34.685  -6.518  36.216  1.00  0.00     0.015 A 
HETATM   16  C13 UNK     1      32.123  -5.683  36.898  1.00  0.00     0.074 A 
HETATM   17  C14 UNK     1      34.425  -6.036  37.502  1.00  0.00     0.037 A 
HETATM   18  C15 UNK     1      33.140  -5.630  37.846  1.00  0.00     0.068 A 
HETATM   19  H6  UNK     1      34.761  -5.270  33.327  1.00  0.00     0.165 HD
HETATM   20  H7  UNK     1      36.548  -8.231  31.170  1.00  0.00     0.165 HD
ENDROOT
BRANCH  10  21
HETATM   21  C12 UNK     1      30.466  -6.108  32.510  1.00  0.00    -0.029 A 
HETATM   22  C16 UNK     1      29.213  -5.979  33.106  1.00  0.00     0.010 A 
HETATM   23  C18 UNK     1      28.061  -6.008  32.320  1.00  0.00     0.001 A 
HETATM   24  C20 UNK     1      28.164  -6.166  30.939  1.00  0.00     0.000 A 
HETATM   25  C19 UNK     1      29.418  -6.296  30.343  1.00  0.00     0.001 A 
HETATM   26  C17 UNK     1      30.570  -6.267  31.129  1.00  0.00     0.010 A 
ENDBRANCH  10  21
BRANCH  18  27
HETATM   27  O3  UNK     1      32.884  -5.167  39.100  1.00  0.00    -0.361 OA
HETATM   28  H22 UNK     1      33.142  -5.848  39.745  1.00  0.00     0.217 HD
ENDBRANCH  18  27
TORSDOF 2
ENDMDL
MODEL 6
REMARK VINA RESULT:      -8.0      3.392      5.948
REMARK  2 active torsions:
REMARK  status: ('A' for Active; 'I' for Inactive)
REMARK    1  A    between atoms: C15_20  and  O3_3 
REMARK    2  A    between atoms: C12_17  and  C6_11 
ROOT
HETATM    1  O1  UNK     1      30.776  -8.183  35.302  1.00  0.00    -0.340 OA
HETATM    2  O2  UNK     1      28.515 -10.690  40.265  1.00  0.00    -0.247 OA
HETATM    3  N1  UNK     1      29.025  -9.190  38.622  1.00  0.00    -0.329 N 
HETATM    4  N2  UNK     1      26.798  -9.818  39.042  1.00  0.00    -0.335 N 
HETATM    5  C1  UNK     1      28.696  -8.424  37.412  1.00  0.00     0.069 C 
HETATM    6  C2  UNK     1      27.238  -7.904  37.529  1.00  0.00     0.066 C 
HETATM    7  C3  UNK     1      26.216  -8.963  38.001  1.00  0.00     0.030 C 
HETATM    8  C4  UNK     1      28.842  -9.355  36.184  1.00  0.00     0.073 C 
HETATM    9  C5  UNK     1      29.683  -7.256  37.284  1.00  0.00     0.004 A 
HETATM   10  C6  UNK     1      30.302  -9.461  35.737  1.00  0.00     0.164 C 
HETATM   11  C7  UNK     1      25.683  -9.834  36.855  1.00  0.00     0.038 C 
HETATM   12  C8  UNK     1      25.006  -8.223  38.612  1.00  0.00     0.038 C 
HETATM   13  C9  UNK     1      30.626  -7.200  36.245  1.00  0.00     0.081 A 
HETATM   14  C10 UNK     1      28.135  -9.947  39.356  1.00  0.00     0.317 C 
HETATM   15  C11 UNK     1      29.695  -6.214  38.230  1.00  0.00     0.015 A 
HETATM   16  C13 UNK     1      31.486  -6.105  36.108  1.00  0.00     0.074 A 
HETATM   17  C14 UNK     1      30.568  -5.129  38.105  1.00  0.00     0.037 A 
HETATM   18  C15 UNK     1      31.455  -5.070  37.036  1.00  0.00     0.068 A 
HETATM   19  H6  UNK     1      30.007  -9.280  38.867  1.00  0.00     0.165 HD
HETATM   20  H7  UNK     1      26.152 -10.399  39.570  1.00  0.00     0.165 HD
ENDROOT
BRANCH  10  21
HETATM   21  C12 UNK     1      30.456 -10.444  34.594  1.00  0.00    -0.029 A 
HETATM   22  C16 UNK     1      31.372 -11.490  34.693  1.00  0.00     0.010 A 
HETATM   23  C18 UNK     1      31.513 -12.395  33.641  1.00  0.00     0.001 A 
HETATM   24  C20 UNK     1      30.737 -12.253  32.491  1.00  0.00     0.000 A 
HETATM   25  C19 UNK     1      29.821 -11.207  32.392  1.00  0.00     0.001 A 
HETATM   26  C17 UNK     1      29.680 -10.301  33.444  1.00  0.00     0.010 A 
ENDBRANCH  10  21
BRANCH  18  27
HETATM   27  O3  UNK     1      32.300  -4.011  36.910  1.00  0.00    -0.361 OA
HETATM   28  H22 UNK     1      32.879  -3.974  37.692  1.00  0.00     0.217 HD
ENDBRANCH  18  27
TORSDOF 2
ENDMDL
MODEL 7
REMARK VINA RESULT:      -8.0      2.174      5.418
REMARK  2 active torsions:
REMARK  status: ('A' for Active; 'I' for Inactive)
REMARK    1  A    between atoms: C15_20  and  O3_3 
REMARK    2  A    between atoms: C12_17  and  C6_11 
ROOT
HETATM    1  O1  UNK     1      28.038  -6.558  34.331  1.00  0.00    -0.340 OA
HETATM    2  O2  UNK     1      33.685  -8.522  34.865  1.00  0.00    -0.247 OA
HETATM    3  N1  UNK     1      31.850  -7.313  34.250  1.00  0.00    -0.329 N 
HETATM    4  N2  UNK     1      33.628  -6.308  35.416  1.00  0.00    -0.335 N 
HETATM    5  C1  UNK     1      30.980  -6.132  34.339  1.00  0.00     0.069 C 
HETATM    6  C2  UNK     1      31.867  -4.862  34.438  1.00  0.00     0.066 C 
HETATM    7  C3  UNK     1      33.028  -4.970  35.452  1.00  0.00     0.030 C 
HETATM    8  C4  UNK     1      30.088  -6.270  35.597  1.00  0.00     0.073 C 
HETATM    9  C5  UNK     1      30.090  -6.079  33.090  1.00  0.00     0.004 A 
HETATM   10  C6  UNK     1      28.875  -7.161  35.324  1.00  0.00     0.164 C 
HETATM   11  C7  UNK     1      32.603  -4.634  36.889  1.00  0.00     0.038 C 
HETATM   12  C8  UNK     1      34.114  -3.949  35.049  1.00  0.00     0.038 C 
HETATM   13  C9  UNK     1      28.701  -6.270  33.167  1.00  0.00     0.081 A 
HETATM   14  C10 UNK     1      33.084  -7.444  34.851  1.00  0.00     0.317 C 
HETATM   15  C11 UNK     1      30.648  -5.869  31.814  1.00  0.00     0.015 A 
HETATM   16  C13 UNK     1      27.893  -6.168  32.030  1.00  0.00     0.074 A 
HETATM   17  C14 UNK     1      29.843  -5.788  30.674  1.00  0.00     0.037 A 
HETATM   18  C15 UNK     1      28.464  -5.925  30.785  1.00  0.00     0.068 A 
HETATM   19  H6  UNK     1      31.460  -8.151  33.825  1.00  0.00     0.165 HD
HETATM   20  H7  UNK     1      34.526  -6.420  35.879  1.00  0.00     0.165 HD
ENDROOT
BRANCH  10  21
HETATM   21  C12 UNK     1      28.053  -7.368  36.581  1.00  0.00    -0.029 A 
HETATM   22  C16 UNK     1      27.199  -8.465  36.680  1.00  0.00     0.010 A 
HETATM   23  C18 UNK     1      26.443  -8.657  37.837  1.00  0.00     0.001 A 
HETATM   24  C20 UNK     1      26.543  -7.752  38.893  1.00  0.00     0.000 A 
HETATM   25  C19 UNK     1      27.398  -6.655  38.793  1.00  0.00     0.001 A 
HETATM   26  C17 UNK     1      28.154  -6.463  37.636  1.00  0.00     0.010 A 
ENDBRANCH  10  21
BRANCH  18  27
HETATM   27  O3  UNK     1      27.679  -5.838  29.676  1.00  0.00    -0.361 OA
HETATM   28  H22 UNK     1      27.212  -4.985  29.687  1.00  0.00     0.217 HD
ENDBRANCH  18  27
TORSDOF 2
ENDMDL
MODEL 8
REMARK VINA RESULT:      -8.0      2.219      5.647
REMARK  2 active torsions:
REMARK  status: ('A' for Active; 'I' for Inactive)
REMARK    1  A    between atoms: C15_20  and  O3_3 
REMARK    2  A    between atoms: C12_17  and  C6_11 
ROOT
HETATM    1  O1  UNK     1      31.859  -6.631  32.769  1.00  0.00    -0.340 OA
HETATM    2  O2  UNK     1      29.840  -4.164  37.856  1.00  0.00    -0.247 OA
HETATM    3  N1  UNK     1      29.973  -5.380  35.929  1.00  0.00    -0.329 N 
HETATM    4  N2  UNK     1      29.609  -6.430  38.002  1.00  0.00    -0.335 N 
HETATM    5  C1  UNK     1      30.143  -6.643  35.196  1.00  0.00     0.069 C 
HETATM    6  C2  UNK     1      29.343  -7.757  35.924  1.00  0.00     0.066 C 
HETATM    7  C3  UNK     1      29.542  -7.790  37.457  1.00  0.00     0.030 C 
HETATM    8  C4  UNK     1      31.650  -6.993  35.160  1.00  0.00     0.073 C 
HETATM    9  C5  UNK     1      29.631  -6.454  33.762  1.00  0.00     0.004 A 
HETATM   10  C6  UNK     1      32.371  -6.233  34.045  1.00  0.00     0.164 C 
HETATM   11  C7  UNK     1      30.789  -8.578  37.882  1.00  0.00     0.038 C 
HETATM   12  C8  UNK     1      28.321  -8.497  38.084  1.00  0.00     0.038 C 
HETATM   13  C9  UNK     1      30.501  -6.481  32.661  1.00  0.00     0.081 A 
HETATM   14  C10 UNK     1      29.817  -5.263  37.295  1.00  0.00     0.317 C 
HETATM   15  C11 UNK     1      28.268  -6.211  33.508  1.00  0.00     0.015 A 
HETATM   16  C13 UNK     1      30.017  -6.359  31.353  1.00  0.00     0.074 A 
HETATM   17  C14 UNK     1      27.786  -6.070  32.203  1.00  0.00     0.037 A 
HETATM   18  C15 UNK     1      28.660  -6.156  31.125  1.00  0.00     0.068 A 
HETATM   19  H6  UNK     1      30.113  -4.516  35.412  1.00  0.00     0.165 HD
HETATM   20  H7  UNK     1      29.520  -6.336  39.011  1.00  0.00     0.165 HD
ENDROOT
BRANCH  10  21
HETATM   21  C12 UNK     1      33.862  -6.507  34.070  1.00  0.00    -0.029 A 
HETATM   22  C16 UNK     1      34.518  -6.889  32.901  1.00  0.00     0.010 A 
HETATM   23  C18 UNK     1      35.891  -7.141  32.923  1.00  0.00     0.001 A 
HETATM   24  C20 UNK     1      36.604  -7.009  34.114  1.00  0.00     0.000 A 
HETATM   25  C19 UNK     1      35.947  -6.626  35.283  1.00  0.00     0.001 A 
HETATM   26  C17 UNK     1      34.575  -6.375  35.260  1.00  0.00     0.010 A 
ENDBRANCH  10  21
BRANCH  18  27
HETATM   27  O3  UNK     1      28.191  -6.025  29.855  1.00  0.00    -0.361 OA
HETATM   28  H22 UNK     1      28.133  -5.079  29.636  1.00  0.00     0.217 HD
ENDBRANCH  18  27
TORSDOF 2
ENDMDL
MODEL 9
REMARK VINA RESULT:      -7.9      3.688      6.385
REMARK  2 active torsions:
REMARK  status: ('A' for Active; 'I' for Inactive)
REMARK    1  A    between atoms: C15_20  and  O3_3 
REMARK    2  A    between atoms: C12_17  and  C6_11 
ROOT
HETATM    1  O1  UNK     1      31.206  -8.328  35.511  1.00  0.00    -0.340 OA
HETATM    2  O2  UNK     1      31.572  -7.008  29.666  1.00  0.00    -0.247 OA
HETATM    3  N1  UNK     1      31.065  -8.041  31.637  1.00  0.00    -0.329 N 
HETATM    4  N2  UNK     1      29.371  -7.215  30.231  1.00  0.00    -0.335 N 
HETATM    5  C1  UNK     1      30.144  -8.371  32.734  1.00  0.00     0.069 C 
HETATM    6  C2  UNK     1      28.741  -8.666  32.140  1.00  0.00     0.066 C 
HETATM    7  C3  UNK     1      28.260  -7.638  31.091  1.00  0.00     0.030 C 
HETATM    8  C4  UNK     1      30.079  -7.165  33.703  1.00  0.00     0.073 C 
HETATM    9  C5  UNK     1      30.687  -9.595  33.484  1.00  0.00     0.004 A 
HETATM   10  C6  UNK     1      31.261  -7.167  34.675  1.00  0.00     0.164 C 
HETATM   11  C7  UNK     1      27.597  -6.404  31.721  1.00  0.00     0.038 C 
HETATM   12  C8  UNK     1      27.199  -8.321  30.201  1.00  0.00     0.038 C 
HETATM   13  C9  UNK     1      31.154  -9.501  34.805  1.00  0.00     0.081 A 
HETATM   14  C10 UNK     1      30.718  -7.392  30.470  1.00  0.00     0.317 C 
HETATM   15  C11 UNK     1      30.767 -10.851  32.853  1.00  0.00     0.015 A 
HETATM   16  C13 UNK     1      31.599 -10.634  35.496  1.00  0.00     0.074 A 
HETATM   17  C14 UNK     1      31.230 -11.979  33.536  1.00  0.00     0.037 A 
HETATM   18  C15 UNK     1      31.635 -11.872  34.862  1.00  0.00     0.068 A 
HETATM   19  H6  UNK     1      32.058  -8.179  31.802  1.00  0.00     0.165 HD
HETATM   20  H7  UNK     1      29.125  -6.714  29.380  1.00  0.00     0.165 HD
ENDROOT
BRANCH  10  21
HETATM   21  C12 UNK     1      31.246  -5.938  35.560  1.00  0.00    -0.029 A 
HETATM   22  C16 UNK     1      30.281  -5.812  36.559  1.00  0.00     0.010 A 
HETATM   23  C18 UNK     1      30.267  -4.680  37.375  1.00  0.00     0.001 A 
HETATM   24  C20 UNK     1      31.217  -3.677  37.191  1.00  0.00     0.000 A 
HETATM   25  C19 UNK     1      32.182  -3.803  36.193  1.00  0.00     0.001 A 
HETATM   26  C17 UNK     1      32.196  -4.935  35.377  1.00  0.00     0.010 A 
ENDBRANCH  10  21
BRANCH  18  27
HETATM   27  O3  UNK     1      32.080 -12.970  35.530  1.00  0.00    -0.361 OA
HETATM   28  H22 UNK     1      32.151 -12.756  36.477  1.00  0.00     0.217 HD
ENDBRANCH  18  27
TORSDOF 2
ENDMDL
MODEL 10
REMARK VINA RESULT:      -7.8      1.844      2.393
REMARK  2 active torsions:
REMARK  status: ('A' for Active; 'I' for Inactive)
REMARK    1  A    between atoms: C15_20  and  O3_3 
REMARK    2  A    between atoms: C12_17  and  C6_11 
ROOT
HETATM    1  O1  UNK     1      29.456  -6.180  34.941  1.00  0.00    -0.340 OA
HETATM    2  O2  UNK     1      34.481  -2.972  34.236  1.00  0.00    -0.247 OA
HETATM    3  N1  UNK     1      32.931  -4.441  35.041  1.00  0.00    -0.329 N 
HETATM    4  N2  UNK     1      35.030  -5.186  34.290  1.00  0.00    -0.335 N 
HETATM    5  C1  UNK     1      32.391  -5.796  35.219  1.00  0.00     0.069 C 
HETATM    6  C2  UNK     1      33.564  -6.769  35.512  1.00  0.00     0.066 C 
HETATM    7  C3  UNK     1      34.782  -6.604  34.574  1.00  0.00     0.030 C 
HETATM    8  C4  UNK     1      31.657  -6.208  33.919  1.00  0.00     0.073 C 
HETATM    9  C5  UNK     1      31.391  -5.781  36.383  1.00  0.00     0.004 A 
HETATM   10  C6  UNK     1      30.239  -5.634  33.875  1.00  0.00     0.164 C 
HETATM   11  C7  UNK     1      34.633  -7.377  33.256  1.00  0.00     0.038 C 
HETATM   12  C8  UNK     1      36.024  -7.170  35.297  1.00  0.00     0.038 C 
HETATM   13  C9  UNK     1      30.019  -5.991  36.177  1.00  0.00     0.081 A 
HETATM   14  C10 UNK     1      34.162  -4.135  34.500  1.00  0.00     0.317 C 
HETATM   15  C11 UNK     1      31.819  -5.521  37.699  1.00  0.00     0.015 A 
HETATM   16  C13 UNK     1      29.123  -6.027  37.252  1.00  0.00     0.074 A 
HETATM   17  C14 UNK     1      30.922  -5.537  38.771  1.00  0.00     0.037 A 
HETATM   18  C15 UNK     1      29.576  -5.802  38.548  1.00  0.00     0.068 A 
HETATM   19  H6  UNK     1      32.300  -3.661  35.206  1.00  0.00     0.165 HD
HETATM   20  H7  UNK     1      35.926  -4.955  33.867  1.00  0.00     0.165 HD
ENDROOT
BRANCH  10  21
HETATM   21  C12 UNK     1      29.556  -5.962  32.563  1.00  0.00    -0.029 A 
HETATM   22  C16 UNK     1      28.174  -6.144  32.524  1.00  0.00     0.010 A 
HETATM   23  C18 UNK     1      27.544  -6.446  31.316  1.00  0.00     0.001 A 
HETATM   24  C20 UNK     1      28.297  -6.563  30.149  1.00  0.00     0.000 A 
HETATM   25  C19 UNK     1      29.679  -6.380  30.187  1.00  0.00     0.001 A 
HETATM   26  C17 UNK     1      30.309  -6.079  31.395  1.00  0.00     0.010 A 
ENDBRANCH  10  21
BRANCH  18  27
HETATM   27  O3  UNK     1      28.704  -5.825  39.592  1.00  0.00    -0.361 OA
HETATM   28  H22 UNK     1      27.807  -5.984  39.249  1.00  0.00     0.217 HD
ENDBRANCH  18  27
TORSDOF 2
ENDMDL
