MODEL 1
REMARK VINA RESULT:      -8.5      0.000      0.000
REMARK  5 active torsions:
REMARK  status: ('A' for Active; 'I' for Inactive)
REMARK    1  A    between atoms: C14_20  and  N1_5 
REMARK    2  A    between atoms: C15_21  and  N2_6 
REMARK    3  A    between atoms: C16_22  and  N2_6 
REMARK    4  A    between atoms: C17_23  and  N2_6 
REMARK    5  A    between atoms: C11_17  and  C4_10 
ROOT
HETATM    1  O1  UNK     1      26.994  -6.368  38.662  1.00  0.00    -0.332 OA
HETATM    2  O2  UNK     1      30.868  -5.954  35.744  1.00  0.00    -0.274 OA
HETATM    3  O3  UNK     1      27.044  -9.323  36.587  1.00  0.00    -0.289 OA
HETATM    4  O4  UNK     1      32.748  -5.749  34.452  1.00  0.00    -0.260 OA
HETATM    5  C1  UNK     1      26.926  -7.779  38.450  1.00  0.00     0.125 C 
HETATM    6  C2  UNK     1      28.859  -6.177  37.102  1.00  0.00     0.048 A 
HETATM    7  C3  UNK     1      27.385  -8.242  37.064  1.00  0.00     0.196 C 
HETATM    8  C4  UNK     1      28.307  -7.312  36.345  1.00  0.00     0.044 C 
HETATM    9  C5  UNK     1      28.139  -5.751  38.228  1.00  0.00     0.084 A 
HETATM   10  C6  UNK     1      25.445  -8.144  38.621  1.00  0.00     0.055 C 
HETATM   11  C7  UNK     1      27.750  -8.502  39.524  1.00  0.00     0.055 C 
HETATM   12  C8  UNK     1      30.051  -5.493  36.806  1.00  0.00     0.103 A 
HETATM   13  C9  UNK     1      30.479  -4.388  37.549  1.00  0.00    -0.001 A 
HETATM   14  C10 UNK     1      28.541  -4.632  38.965  1.00  0.00     0.039 A 
HETATM   15  C12 UNK     1      29.708  -3.950  38.625  1.00  0.00     0.017 A 
HETATM   16  C13 UNK     1      31.719  -3.719  37.188  1.00  0.00     0.020 A 
HETATM   17  C22 UNK     1      32.460  -4.164  36.170  1.00  0.00     0.083 A 
HETATM   18  C23 UNK     1      32.061  -5.339  35.381  1.00  0.00     0.288 A 
ENDROOT
BRANCH   8  19
HETATM   19  C11 UNK     1      28.465  -7.516  35.028  1.00  0.00     0.104 C 
HETATM   20  N1  UNK     1      29.407  -8.269  34.417  1.00  0.00    -0.365 N 
HETATM   21  H10 UNK     1      30.079  -8.736  35.016  1.00  0.00     0.165 HD
BRANCH  20  22
HETATM   22  C14 UNK     1      29.595  -8.500  33.042  1.00  0.00     0.032 A 
HETATM   23  C18 UNK     1      29.971  -9.766  32.588  1.00  0.00     0.031 A 
HETATM   24  C20 UNK     1      30.158  -9.994  31.225  1.00  0.00     0.031 A 
HETATM   25  C15 UNK     1      29.971  -8.955  30.312  1.00  0.00     0.030 A 
HETATM   26  C21 UNK     1      29.596  -7.690  30.762  1.00  0.00     0.031 A 
HETATM   27  C19 UNK     1      29.409  -7.462  32.126  1.00  0.00     0.031 A 
BRANCH  25  28
HETATM   28  N2  UNK     1      30.159  -9.186  28.934  1.00  0.00    -0.382 N 
BRANCH  28  29
HETATM   29  C16 UNK     1      31.169  -8.451  28.198  1.00  0.00     0.118 C 
HETATM   30  C24 UNK     1      32.554  -8.697  28.758  1.00  0.00     0.026 C 
ENDBRANCH  28  29
BRANCH  28  31
HETATM   31  C17 UNK     1      29.356 -10.171  28.237  1.00  0.00     0.118 C 
HETATM   32  C25 UNK     1      27.875  -9.928  28.450  1.00  0.00     0.026 C 
ENDBRANCH  28  31
ENDBRANCH  25  28
ENDBRANCH  20  22
ENDBRANCH   8  19
TORSDOF 5
ENDMDL
MODEL 2
REMARK VINA RESULT:      -8.4      0.133      1.632
REMARK  5 active torsions:
REMARK  status: ('A' for Active; 'I' for Inactive)
REMARK    1  A    between atoms: C14_20  and  N1_5 
REMARK    2  A    between atoms: C15_21  and  N2_6 
REMARK    3  A    between atoms: C16_22  and  N2_6 
REMARK    4  A    between atoms: C17_23  and  N2_6 
REMARK    5  A    between atoms: C11_17  and  C4_10 
ROOT
HETATM    1  O1  UNK     1      26.947  -6.388  38.668  1.00  0.00    -0.332 OA
HETATM    2  O2  UNK     1      30.869  -6.027  35.809  1.00  0.00    -0.274 OA
HETATM    3  O3  UNK     1      27.015  -9.367  36.629  1.00  0.00    -0.289 OA
HETATM    4  O4  UNK     1      32.771  -5.847  34.546  1.00  0.00    -0.260 OA
HETATM    5  C1  UNK     1      26.875  -7.801  38.472  1.00  0.00     0.125 C 
HETATM    6  C2  UNK     1      28.838  -6.224  37.137  1.00  0.00     0.048 A 
HETATM    7  C3  UNK     1      27.354  -8.283  37.099  1.00  0.00     0.196 C 
HETATM    8  C4  UNK     1      28.292  -7.365  36.385  1.00  0.00     0.044 C 
HETATM    9  C5  UNK     1      28.102  -5.781  38.245  1.00  0.00     0.084 A 
HETATM   10  C6  UNK     1      25.389  -8.157  38.622  1.00  0.00     0.055 C 
HETATM   11  C7  UNK     1      27.678  -8.515  39.567  1.00  0.00     0.055 C 
HETATM   12  C8  UNK     1      30.038  -5.550  36.852  1.00  0.00     0.103 A 
HETATM   13  C9  UNK     1      30.459  -4.438  37.589  1.00  0.00    -0.001 A 
HETATM   14  C10 UNK     1      28.497  -4.656  38.976  1.00  0.00     0.039 A 
HETATM   15  C12 UNK     1      29.673  -3.984  38.647  1.00  0.00     0.017 A 
HETATM   16  C13 UNK     1      31.708  -3.780  37.240  1.00  0.00     0.020 A 
HETATM   17  C22 UNK     1      32.463  -4.240  36.240  1.00  0.00     0.083 A 
HETATM   18  C23 UNK     1      32.071  -5.423  35.459  1.00  0.00     0.288 A 
ENDROOT
BRANCH   8  19
HETATM   19  C11 UNK     1      28.471  -7.586  35.073  1.00  0.00     0.104 C 
HETATM   20  N1  UNK     1      29.449  -8.310  34.483  1.00  0.00    -0.365 N 
HETATM   21  H10 UNK     1      30.134  -8.738  35.096  1.00  0.00     0.165 HD
BRANCH  20  22
HETATM   22  C14 UNK     1      29.659  -8.557  33.114  1.00  0.00     0.032 A 
HETATM   23  C18 UNK     1      29.450  -7.543  32.178  1.00  0.00     0.031 A 
HETATM   24  C20 UNK     1      29.658  -7.790  30.821  1.00  0.00     0.031 A 
HETATM   25  C15 UNK     1      30.074  -9.052  30.397  1.00  0.00     0.030 A 
HETATM   26  C21 UNK     1      30.284 -10.067  31.330  1.00  0.00     0.031 A 
HETATM   27  C19 UNK     1      30.076  -9.820  32.687  1.00  0.00     0.031 A 
BRANCH  25  28
HETATM   28  N2  UNK     1      30.285  -9.300  29.025  1.00  0.00    -0.382 N 
BRANCH  28  29
HETATM   29  C16 UNK     1      29.594 -10.387  28.361  1.00  0.00     0.118 C 
HETATM   30  C24 UNK     1      28.104 -10.127  28.273  1.00  0.00     0.026 C 
ENDBRANCH  28  29
BRANCH  28  31
HETATM   31  C17 UNK     1      31.186  -8.464  28.257  1.00  0.00     0.118 C 
HETATM   32  C25 UNK     1      32.616  -8.603  28.738  1.00  0.00     0.026 C 
ENDBRANCH  28  31
ENDBRANCH  25  28
ENDBRANCH  20  22
ENDBRANCH   8  19
TORSDOF 5
ENDMDL
MODEL 3
REMARK VINA RESULT:      -8.3      9.774     12.378
REMARK  5 active torsions:
REMARK  status: ('A' for Active; 'I' for Inactive)
REMARK    1  A    between atoms: C14_20  and  N1_5 
REMARK    2  A    between atoms: C15_21  and  N2_6 
REMARK    3  A    between atoms: C16_22  and  N2_6 
REMARK    4  A    between atoms: C17_23  and  N2_6 
REMARK    5  A    between atoms: C11_17  and  C4_10 
ROOT
HETATM    1  O1  UNK     1      17.293   1.140  35.194  1.00  0.00    -0.332 OA
HETATM    2  O2  UNK     1      20.178  -2.311  33.336  1.00  0.00    -0.274 OA
HETATM    3  O3  UNK     1      18.431  -0.861  37.976  1.00  0.00    -0.289 OA
HETATM    4  O4  UNK     1      21.592  -3.863  32.421  1.00  0.00    -0.260 OA
HETATM    5  C1  UNK     1      17.848   0.969  36.499  1.00  0.00     0.125 C 
HETATM    6  C2  UNK     1      18.667  -0.674  34.320  1.00  0.00     0.048 A 
HETATM    7  C3  UNK     1      18.299  -0.460  36.821  1.00  0.00     0.196 C 
HETATM    8  C4  UNK     1      18.604  -1.321  35.640  1.00  0.00     0.044 C 
HETATM    9  C5  UNK     1      17.972   0.534  34.168  1.00  0.00     0.084 A 
HETATM   10  C6  UNK     1      16.726   1.357  37.472  1.00  0.00     0.055 C 
HETATM   11  C7  UNK     1      19.031   1.927  36.685  1.00  0.00     0.055 C 
HETATM   12  C8  UNK     1      19.375  -1.152  33.203  1.00  0.00     0.103 A 
HETATM   13  C9  UNK     1      19.340  -0.500  31.966  1.00  0.00    -0.001 A 
HETATM   14  C10 UNK     1      17.907   1.184  32.931  1.00  0.00     0.039 A 
HETATM   15  C12 UNK     1      18.587   0.666  31.831  1.00  0.00     0.017 A 
HETATM   16  C13 UNK     1      20.088  -1.050  30.846  1.00  0.00     0.020 A 
HETATM   17  C22 UNK     1      20.823  -2.154  30.995  1.00  0.00     0.083 A 
HETATM   18  C23 UNK     1      20.910  -2.854  32.286  1.00  0.00     0.288 A 
ENDROOT
BRANCH   8  19
HETATM   19  C11 UNK     1      18.681  -2.643  35.860  1.00  0.00     0.104 C 
HETATM   20  N1  UNK     1      19.786  -3.373  36.134  1.00  0.00    -0.365 N 
HETATM   21  H10 UNK     1      20.666  -2.871  36.177  1.00  0.00     0.165 HD
BRANCH  20  22
HETATM   22  C14 UNK     1      19.893  -4.756  36.369  1.00  0.00     0.032 A 
HETATM   23  C18 UNK     1      20.138  -5.231  37.659  1.00  0.00     0.031 A 
HETATM   24  C20 UNK     1      20.245  -6.602  37.890  1.00  0.00     0.031 A 
HETATM   25  C15 UNK     1      20.109  -7.501  36.832  1.00  0.00     0.030 A 
HETATM   26  C21 UNK     1      19.864  -7.029  35.542  1.00  0.00     0.031 A 
HETATM   27  C19 UNK     1      19.757  -5.658  35.311  1.00  0.00     0.031 A 
BRANCH  25  28
HETATM   28  N2  UNK     1      20.217  -8.888  37.067  1.00  0.00    -0.382 N 
BRANCH  28  29
HETATM   29  C16 UNK     1      21.498  -9.554  36.950  1.00  0.00     0.118 C 
HETATM   30  C24 UNK     1      21.612 -10.316  35.645  1.00  0.00     0.026 C 
ENDBRANCH  28  29
BRANCH  28  31
HETATM   31  C17 UNK     1      19.051  -9.662  37.441  1.00  0.00     0.118 C 
HETATM   32  C25 UNK     1      19.342 -10.569  38.620  1.00  0.00     0.026 C 
ENDBRANCH  28  31
ENDBRANCH  25  28
ENDBRANCH  20  22
ENDBRANCH   8  19
TORSDOF 5
ENDMDL
MODEL 4
REMARK VINA RESULT:      -8.3     14.748     17.020
REMARK  5 active torsions:
REMARK  status: ('A' for Active; 'I' for Inactive)
REMARK    1  A    between atoms: C14_20  and  N1_5 
REMARK    2  A    between atoms: C15_21  and  N2_6 
REMARK    3  A    between atoms: C16_22  and  N2_6 
REMARK    4  A    between atoms: C17_23  and  N2_6 
REMARK    5  A    between atoms: C11_17  and  C4_10 
ROOT
HETATM    1  O1  UNK     1      18.727  -1.079  35.015  1.00  0.00    -0.332 OA
HETATM    2  O2  UNK     1      18.453   2.335  31.557  1.00  0.00    -0.274 OA
HETATM    3  O3  UNK     1      16.948   1.711  36.460  1.00  0.00    -0.289 OA
HETATM    4  O4  UNK     1      18.279   3.875  29.871  1.00  0.00    -0.260 OA
HETATM    5  C1  UNK     1      17.646  -0.495  35.744  1.00  0.00     0.125 C 
HETATM    6  C2  UNK     1      18.641   0.712  33.363  1.00  0.00     0.048 A 
HETATM    7  C3  UNK     1      17.544   1.029  35.629  1.00  0.00     0.196 C 
HETATM    8  C4  UNK     1      18.185   1.628  34.420  1.00  0.00     0.044 C 
HETATM    9  C5  UNK     1      18.912  -0.611  33.739  1.00  0.00     0.084 A 
HETATM   10  C6  UNK     1      17.905  -0.857  37.213  1.00  0.00     0.055 C 
HETATM   11  C7  UNK     1      16.321  -1.126  35.295  1.00  0.00     0.055 C 
HETATM   12  C8  UNK     1      18.815   1.042  32.007  1.00  0.00     0.103 A 
HETATM   13  C9  UNK     1      19.303   0.121  31.074  1.00  0.00    -0.001 A 
HETATM   14  C10 UNK     1      19.425  -1.536  32.823  1.00  0.00     0.039 A 
HETATM   15  C12 UNK     1      19.623  -1.170  31.494  1.00  0.00     0.017 A 
HETATM   16  C13 UNK     1      19.467   0.526  29.687  1.00  0.00     0.020 A 
HETATM   17  C22 UNK     1      19.134   1.758  29.295  1.00  0.00     0.083 A 
HETATM   18  C23 UNK     1      18.590   2.748  30.237  1.00  0.00     0.288 A 
ENDROOT
BRANCH   8  19
HETATM   19  C11 UNK     1      18.403   2.953  34.446  1.00  0.00     0.104 C 
HETATM   20  N1  UNK     1      17.740   3.912  33.762  1.00  0.00    -0.365 N 
HETATM   21  H10 UNK     1      16.990   3.605  33.153  1.00  0.00     0.165 HD
BRANCH  20  22
HETATM   22  C14 UNK     1      17.947   5.304  33.771  1.00  0.00     0.032 A 
HETATM   23  C18 UNK     1      18.999   5.861  33.042  1.00  0.00     0.031 A 
HETATM   24  C20 UNK     1      19.204   7.241  33.052  1.00  0.00     0.031 A 
HETATM   25  C15 UNK     1      18.357   8.066  33.793  1.00  0.00     0.030 A 
HETATM   26  C21 UNK     1      17.305   7.512  34.522  1.00  0.00     0.031 A 
HETATM   27  C19 UNK     1      17.100   6.133  34.511  1.00  0.00     0.031 A 
BRANCH  25  28
HETATM   28  N2  UNK     1      18.564   9.461  33.802  1.00  0.00    -0.382 N 
BRANCH  28  29
HETATM   29  C16 UNK     1      17.440  10.369  33.915  1.00  0.00     0.118 C 
HETATM   30  C24 UNK     1      17.897  11.789  34.178  1.00  0.00     0.026 C 
ENDBRANCH  28  29
BRANCH  28  31
HETATM   31  C17 UNK     1      19.904  10.005  33.712  1.00  0.00     0.118 C 
HETATM   32  C25 UNK     1      20.763   9.562  34.879  1.00  0.00     0.026 C 
ENDBRANCH  28  31
ENDBRANCH  25  28
ENDBRANCH  20  22
ENDBRANCH   8  19
TORSDOF 5
ENDMDL
MODEL 5
REMARK VINA RESULT:      -7.7     11.952     14.353
REMARK  5 active torsions:
REMARK  status: ('A' for Active; 'I' for Inactive)
REMARK    1  A    between atoms: C14_20  and  N1_5 
REMARK    2  A    between atoms: C15_21  and  N2_6 
REMARK    3  A    between atoms: C16_22  and  N2_6 
REMARK    4  A    between atoms: C17_23  and  N2_6 
REMARK    5  A    between atoms: C11_17  and  C4_10 
ROOT
HETATM    1  O1  UNK     1      17.566   4.048  32.133  1.00  0.00    -0.332 OA
HETATM    2  O2  UNK     1      19.772  -0.242  31.489  1.00  0.00    -0.274 OA
HETATM    3  O3  UNK     1      18.669   2.955  35.393  1.00  0.00    -0.289 OA
HETATM    4  O4  UNK     1      20.872  -2.217  31.120  1.00  0.00    -0.260 OA
HETATM    5  C1  UNK     1      18.209   4.243  33.394  1.00  0.00     0.125 C 
HETATM    6  C2  UNK     1      18.595   1.850  31.896  1.00  0.00     0.048 A 
HETATM    7  C3  UNK     1      18.488   2.957  34.177  1.00  0.00     0.196 C 
HETATM    8  C4  UNK     1      18.565   1.708  33.360  1.00  0.00     0.044 C 
HETATM    9  C5  UNK     1      18.060   3.030  31.359  1.00  0.00     0.084 A 
HETATM   10  C6  UNK     1      17.244   5.113  34.212  1.00  0.00     0.055 C 
HETATM   11  C7  UNK     1      19.524   5.006  33.189  1.00  0.00     0.055 C 
HETATM   12  C8  UNK     1      19.126   0.915  30.990  1.00  0.00     0.103 A 
HETATM   13  C9  UNK     1      19.067   1.106  29.606  1.00  0.00    -0.001 A 
HETATM   14  C10 UNK     1      17.972   3.223  29.976  1.00  0.00     0.039 A 
HETATM   15  C12 UNK     1      18.472   2.261  29.101  1.00  0.00     0.017 A 
HETATM   16  C13 UNK     1      19.629   0.097  28.720  1.00  0.00     0.020 A 
HETATM   17  C22 UNK     1      20.217  -0.993  29.218  1.00  0.00     0.083 A 
HETATM   18  C23 UNK     1      20.324  -1.218  30.667  1.00  0.00     0.288 A 
ENDROOT
BRANCH   8  19
HETATM   19  C11 UNK     1      18.480   0.545  34.025  1.00  0.00     0.104 C 
HETATM   20  N1  UNK     1      19.484  -0.308  34.330  1.00  0.00    -0.365 N 
HETATM   21  H10 UNK     1      20.414  -0.048  34.020  1.00  0.00     0.165 HD
BRANCH  20  22
HETATM   22  C14 UNK     1      19.423  -1.530  35.024  1.00  0.00     0.032 A 
HETATM   23  C18 UNK     1      18.560  -1.676  36.112  1.00  0.00     0.031 A 
HETATM   24  C20 UNK     1      18.501  -2.887  36.800  1.00  0.00     0.031 A 
HETATM   25  C15 UNK     1      19.305  -3.956  36.402  1.00  0.00     0.030 A 
HETATM   26  C21 UNK     1      20.168  -3.813  35.316  1.00  0.00     0.031 A 
HETATM   27  C19 UNK     1      20.227  -2.601  34.628  1.00  0.00     0.031 A 
BRANCH  25  28
HETATM   28  N2  UNK     1      19.244  -5.181  37.098  1.00  0.00    -0.382 N 
BRANCH  28  29
HETATM   29  C16 UNK     1      18.095  -6.051  36.952  1.00  0.00     0.118 C 
HETATM   30  C24 UNK     1      18.264  -7.005  35.788  1.00  0.00     0.026 C 
ENDBRANCH  28  29
BRANCH  28  31
HETATM   31  C17 UNK     1      20.335  -5.592  37.958  1.00  0.00     0.118 C 
HETATM   32  C25 UNK     1      19.856  -6.519  39.057  1.00  0.00     0.026 C 
ENDBRANCH  28  31
ENDBRANCH  25  28
ENDBRANCH  20  22
ENDBRANCH   8  19
TORSDOF 5
ENDMDL
MODEL 6
REMARK VINA RESULT:      -7.6     33.375     36.723
REMARK  5 active torsions:
REMARK  status: ('A' for Active; 'I' for Inactive)
REMARK    1  A    between atoms: C14_20  and  N1_5 
REMARK    2  A    between atoms: C15_21  and  N2_6 
REMARK    3  A    between atoms: C16_22  and  N2_6 
REMARK    4  A    between atoms: C17_23  and  N2_6 
REMARK    5  A    between atoms: C11_17  and  C4_10 
ROOT
HETATM    1  O1  UNK     1      14.302   7.522   8.302  1.00  0.00    -0.332 OA
HETATM    2  O2  UNK     1       9.457   7.582   8.754  1.00  0.00    -0.274 OA
HETATM    3  O3  UNK     1      13.591   8.751  11.622  1.00  0.00    -0.289 OA
HETATM    4  O4  UNK     1       7.175   7.513   8.944  1.00  0.00    -0.260 OA
HETATM    5  C1  UNK     1      14.483   7.546   9.719  1.00  0.00     0.125 C 
HETATM    6  C2  UNK     1      11.882   7.673   8.560  1.00  0.00     0.048 A 
HETATM    7  C3  UNK     1      13.402   8.311  10.490  1.00  0.00     0.196 C 
HETATM    8  C4  UNK     1      12.090   8.453   9.790  1.00  0.00     0.044 C 
HETATM    9  C5  UNK     1      13.029   7.265   7.863  1.00  0.00     0.084 A 
HETATM   10  C6  UNK     1      15.830   8.246   9.945  1.00  0.00     0.055 C 
HETATM   11  C7  UNK     1      14.564   6.110  10.253  1.00  0.00     0.055 C 
HETATM   12  C8  UNK     1      10.639   7.286   8.031  1.00  0.00     0.103 A 
HETATM   13  C9  UNK     1      10.528   6.587   6.825  1.00  0.00    -0.001 A 
HETATM   14  C10 UNK     1      12.934   6.587   6.644  1.00  0.00     0.039 A 
HETATM   15  C12 UNK     1      11.686   6.251   6.123  1.00  0.00     0.017 A 
HETATM   16  C13 UNK     1       9.211   6.223   6.327  1.00  0.00     0.020 A 
HETATM   17  C22 UNK     1       8.113   6.530   7.020  1.00  0.00     0.083 A 
HETATM   18  C23 UNK     1       8.186   7.239   8.307  1.00  0.00     0.288 A 
ENDROOT
BRANCH   8  19
HETATM   19  C11 UNK     1      11.244   9.376  10.275  1.00  0.00     0.104 C 
HETATM   20  N1  UNK     1      10.551  10.307   9.581  1.00  0.00    -0.365 N 
HETATM   21  H10 UNK     1      10.682  10.320   8.576  1.00  0.00     0.165 HD
BRANCH  20  22
HETATM   22  C14 UNK     1       9.660  11.283  10.063  1.00  0.00     0.032 A 
HETATM   23  C18 UNK     1       8.594  10.915  10.886  1.00  0.00     0.031 A 
HETATM   24  C20 UNK     1       7.711  11.883  11.362  1.00  0.00     0.031 A 
HETATM   25  C15 UNK     1       7.890  13.223  11.016  1.00  0.00     0.030 A 
HETATM   26  C21 UNK     1       8.954  13.594  10.193  1.00  0.00     0.031 A 
HETATM   27  C19 UNK     1       9.837  12.625   9.717  1.00  0.00     0.031 A 
BRANCH  25  28
HETATM   28  N2  UNK     1       6.997  14.201  11.498  1.00  0.00    -0.382 N 
BRANCH  28  29
HETATM   29  C16 UNK     1       5.575  14.088  11.240  1.00  0.00     0.118 C 
HETATM   30  C24 UNK     1       5.251  14.364   9.786  1.00  0.00     0.026 C 
ENDBRANCH  28  29
BRANCH  28  31
HETATM   31  C17 UNK     1       7.486  15.326  12.269  1.00  0.00     0.118 C 
HETATM   32  C25 UNK     1       8.028  14.883  13.613  1.00  0.00     0.026 C 
ENDBRANCH  28  31
ENDBRANCH  25  28
ENDBRANCH  20  22
ENDBRANCH   8  19
TORSDOF 5
ENDMDL
MODEL 7
REMARK VINA RESULT:      -7.4      1.273      1.662
REMARK  5 active torsions:
REMARK  status: ('A' for Active; 'I' for Inactive)
REMARK    1  A    between atoms: C14_20  and  N1_5 
REMARK    2  A    between atoms: C15_21  and  N2_6 
REMARK    3  A    between atoms: C16_22  and  N2_6 
REMARK    4  A    between atoms: C17_23  and  N2_6 
REMARK    5  A    between atoms: C11_17  and  C4_10 
ROOT
HETATM    1  O1  UNK     1      26.995  -6.420  38.615  1.00  0.00    -0.332 OA
HETATM    2  O2  UNK     1      31.177  -6.498  36.126  1.00  0.00    -0.274 OA
HETATM    3  O3  UNK     1      27.257  -9.706  37.141  1.00  0.00    -0.289 OA
HETATM    4  O4  UNK     1      33.192  -6.509  35.038  1.00  0.00    -0.260 OA
HETATM    5  C1  UNK     1      26.941  -7.847  38.661  1.00  0.00     0.125 C 
HETATM    6  C2  UNK     1      29.026  -6.494  37.267  1.00  0.00     0.048 A 
HETATM    7  C3  UNK     1      27.550  -8.551  37.445  1.00  0.00     0.196 C 
HETATM    8  C4  UNK     1      28.554  -7.757  36.675  1.00  0.00     0.044 C 
HETATM    9  C5  UNK     1      28.186  -5.878  38.206  1.00  0.00     0.084 A 
HETATM   10  C6  UNK     1      25.447  -8.194  38.728  1.00  0.00     0.055 C 
HETATM   11  C7  UNK     1      27.633  -8.348  39.936  1.00  0.00     0.055 C 
HETATM   12  C8  UNK     1      30.249  -5.861  36.986  1.00  0.00     0.103 A 
HETATM   13  C9  UNK     1      30.598  -4.632  37.555  1.00  0.00    -0.001 A 
HETATM   14  C10 UNK     1      28.511  -4.637  38.765  1.00  0.00     0.039 A 
HETATM   15  C12 UNK     1      29.713  -4.013  38.438  1.00  0.00     0.017 A 
HETATM   16  C13 UNK     1      31.876  -4.024  37.218  1.00  0.00     0.020 A 
HETATM   17  C22 UNK     1      32.723  -4.639  36.390  1.00  0.00     0.083 A 
HETATM   18  C23 UNK     1      32.407  -5.945  35.792  1.00  0.00     0.288 A 
ENDROOT
BRANCH   8  19
HETATM   19  C11 UNK     1      28.859  -8.198  35.445  1.00  0.00     0.104 C 
HETATM   20  N1  UNK     1      29.878  -9.013  35.089  1.00  0.00    -0.365 N 
HETATM   21  H10 UNK     1      30.490  -9.331  35.832  1.00  0.00     0.165 HD
BRANCH  20  22
HETATM   22  C14 UNK     1      30.219  -9.490  33.810  1.00  0.00     0.032 A 
HETATM   23  C18 UNK     1      29.273  -9.485  32.784  1.00  0.00     0.031 A 
HETATM   24  C20 UNK     1      29.612  -9.959  31.517  1.00  0.00     0.031 A 
HETATM   25  C15 UNK     1      30.899 -10.441  31.274  1.00  0.00     0.030 A 
HETATM   26  C21 UNK     1      31.846 -10.448  32.297  1.00  0.00     0.031 A 
HETATM   27  C19 UNK     1      31.507  -9.974  33.564  1.00  0.00     0.031 A 
BRANCH  25  28
HETATM   28  N2  UNK     1      31.242 -10.920  29.992  1.00  0.00    -0.382 N 
BRANCH  28  29
HETATM   29  C16 UNK     1      32.610 -11.288  29.689  1.00  0.00     0.118 C 
HETATM   30  C24 UNK     1      32.860 -12.759  29.949  1.00  0.00     0.026 C 
ENDBRANCH  28  29
BRANCH  28  31
HETATM   31  C17 UNK     1      30.228 -11.062  28.966  1.00  0.00     0.118 C 
HETATM   32  C25 UNK     1      30.346  -9.975  27.917  1.00  0.00     0.026 C 
ENDBRANCH  28  31
ENDBRANCH  25  28
ENDBRANCH  20  22
ENDBRANCH   8  19
TORSDOF 5
ENDMDL
MODEL 8
REMARK VINA RESULT:      -7.3     13.885     15.991
REMARK  5 active torsions:
REMARK  status: ('A' for Active; 'I' for Inactive)
REMARK    1  A    between atoms: C14_20  and  N1_5 
REMARK    2  A    between atoms: C15_21  and  N2_6 
REMARK    3  A    between atoms: C16_22  and  N2_6 
REMARK    4  A    between atoms: C17_23  and  N2_6 
REMARK    5  A    between atoms: C11_17  and  C4_10 
ROOT
HETATM    1  O1  UNK     1      19.438  -1.858  35.852  1.00  0.00    -0.332 OA
HETATM    2  O2  UNK     1      18.483   0.342  31.617  1.00  0.00    -0.274 OA
HETATM    3  O3  UNK     1      16.553   0.239  36.407  1.00  0.00    -0.289 OA
HETATM    4  O4  UNK     1      18.026   1.287  29.581  1.00  0.00    -0.260 OA
HETATM    5  C1  UNK     1      18.117  -1.608  36.334  1.00  0.00     0.125 C 
HETATM    6  C2  UNK     1      18.965  -0.646  33.789  1.00  0.00     0.048 A 
HETATM    7  C3  UNK     1      17.482  -0.312  35.822  1.00  0.00     0.196 C 
HETATM    8  C4  UNK     1      18.041   0.218  34.542  1.00  0.00     0.044 C 
HETATM    9  C5  UNK     1      19.640  -1.640  34.513  1.00  0.00     0.084 A 
HETATM   10  C6  UNK     1      18.254  -1.514  37.861  1.00  0.00     0.055 C 
HETATM   11  C7  UNK     1      17.207  -2.792  35.982  1.00  0.00     0.055 C 
HETATM   12  C8  UNK     1      19.218  -0.574  32.409  1.00  0.00     0.103 A 
HETATM   13  C9  UNK     1      20.153  -1.403  31.779  1.00  0.00    -0.001 A 
HETATM   14  C10 UNK     1      20.595  -2.460  33.902  1.00  0.00     0.039 A 
HETATM   15  C12 UNK     1      20.854  -2.339  32.539  1.00  0.00     0.017 A 
HETATM   16  C13 UNK     1      20.375  -1.274  30.348  1.00  0.00     0.020 A 
HETATM   17  C22 UNK     1      19.680  -0.389  29.629  1.00  0.00     0.083 A 
HETATM   18  C23 UNK     1      18.668   0.481  30.246  1.00  0.00     0.288 A 
ENDROOT
BRANCH   8  19
HETATM   19  C11 UNK     1      17.750   1.492  34.237  1.00  0.00     0.104 C 
HETATM   20  N1  UNK     1      18.604   2.464  33.844  1.00  0.00    -0.365 N 
HETATM   21  H10 UNK     1      19.583   2.210  33.772  1.00  0.00     0.165 HD
BRANCH  20  22
HETATM   22  C14 UNK     1      18.326   3.804  33.519  1.00  0.00     0.032 A 
HETATM   23  C18 UNK     1      17.855   4.133  32.246  1.00  0.00     0.031 A 
HETATM   24  C20 UNK     1      17.580   5.462  31.925  1.00  0.00     0.031 A 
HETATM   25  C15 UNK     1      17.777   6.465  32.874  1.00  0.00     0.030 A 
HETATM   26  C21 UNK     1      18.248   6.139  34.146  1.00  0.00     0.031 A 
HETATM   27  C19 UNK     1      18.522   4.810  34.468  1.00  0.00     0.031 A 
BRANCH  25  28
HETATM   28  N2  UNK     1      17.498   7.809  32.549  1.00  0.00    -0.382 N 
BRANCH  28  29
HETATM   29  C16 UNK     1      16.569   8.128  31.484  1.00  0.00     0.118 C 
HETATM   30  C24 UNK     1      15.149   7.751  31.853  1.00  0.00     0.026 C 
ENDBRANCH  28  29
BRANCH  28  31
HETATM   31  C17 UNK     1      18.127   8.888  33.283  1.00  0.00     0.118 C 
HETATM   32  C25 UNK     1      17.118   9.658  34.111  1.00  0.00     0.026 C 
ENDBRANCH  28  31
ENDBRANCH  25  28
ENDBRANCH  20  22
ENDBRANCH   8  19
TORSDOF 5
ENDMDL
MODEL 9
REMARK VINA RESULT:      -7.3      2.632      7.718
REMARK  5 active torsions:
REMARK  status: ('A' for Active; 'I' for Inactive)
REMARK    1  A    between atoms: C14_20  and  N1_5 
REMARK    2  A    between atoms: C15_21  and  N2_6 
REMARK    3  A    between atoms: C16_22  and  N2_6 
REMARK    4  A    between atoms: C17_23  and  N2_6 
REMARK    5  A    between atoms: C11_17  and  C4_10 
ROOT
HETATM    1  O1  UNK     1      32.853  -8.278  29.821  1.00  0.00    -0.332 OA
HETATM    2  O2  UNK     1      32.565  -6.508  34.345  1.00  0.00    -0.274 OA
HETATM    3  O3  UNK     1      29.341  -8.108  30.639  1.00  0.00    -0.289 OA
HETATM    4  O4  UNK     1      32.481  -5.596  36.444  1.00  0.00    -0.260 OA
HETATM    5  C1  UNK     1      31.495  -7.929  29.547  1.00  0.00     0.125 C 
HETATM    6  C2  UNK     1      32.640  -7.491  32.119  1.00  0.00     0.048 A 
HETATM    7  C3  UNK     1      30.559  -7.997  30.758  1.00  0.00     0.196 C 
HETATM    8  C4  UNK     1      31.221  -7.880  32.092  1.00  0.00     0.044 C 
HETATM    9  C5  UNK     1      33.392  -7.741  30.962  1.00  0.00     0.084 A 
HETATM   10  C6  UNK     1      31.017  -8.949  28.503  1.00  0.00     0.055 C 
HETATM   11  C7  UNK     1      31.437  -6.522  28.939  1.00  0.00     0.055 C 
HETATM   12  C8  UNK     1      33.305  -6.878  33.195  1.00  0.00     0.103 A 
HETATM   13  C9  UNK     1      34.672  -6.587  33.157  1.00  0.00    -0.001 A 
HETATM   14  C10 UNK     1      34.765  -7.479  30.918  1.00  0.00     0.039 A 
HETATM   15  C12 UNK     1      35.405  -6.906  32.015  1.00  0.00     0.017 A 
HETATM   16  C13 UNK     1      35.302  -5.958  34.308  1.00  0.00     0.020 A 
HETATM   17  C22 UNK     1      34.584  -5.637  35.385  1.00  0.00     0.083 A 
HETATM   18  C23 UNK     1      33.138  -5.899  35.455  1.00  0.00     0.288 A 
ENDROOT
BRANCH   8  19
HETATM   19  C11 UNK     1      30.500  -8.256  33.159  1.00  0.00     0.104 C 
HETATM   20  N1  UNK     1      29.595  -7.522  33.845  1.00  0.00    -0.365 N 
HETATM   21  H10 UNK     1      29.438  -6.573  33.523  1.00  0.00     0.165 HD
BRANCH  20  22
HETATM   22  C14 UNK     1      28.826  -7.891  34.964  1.00  0.00     0.032 A 
HETATM   23  C18 UNK     1      28.552  -6.958  35.965  1.00  0.00     0.031 A 
HETATM   24  C20 UNK     1      27.791  -7.326  37.075  1.00  0.00     0.031 A 
HETATM   25  C15 UNK     1      27.302  -8.628  37.186  1.00  0.00     0.030 A 
HETATM   26  C21 UNK     1      27.575  -9.562  36.187  1.00  0.00     0.031 A 
HETATM   27  C19 UNK     1      28.336  -9.195  35.077  1.00  0.00     0.031 A 
BRANCH  25  28
HETATM   28  N2  UNK     1      26.532  -8.998  38.307  1.00  0.00    -0.382 N 
BRANCH  28  29
HETATM   29  C16 UNK     1      26.845 -10.205  39.046  1.00  0.00     0.118 C 
HETATM   30  C24 UNK     1      27.890  -9.949  40.112  1.00  0.00     0.026 C 
ENDBRANCH  28  29
BRANCH  28  31
HETATM   31  C17 UNK     1      25.425  -8.171  38.744  1.00  0.00     0.118 C 
HETATM   32  C25 UNK     1      24.180  -8.431  37.920  1.00  0.00     0.026 C 
ENDBRANCH  28  31
ENDBRANCH  25  28
ENDBRANCH  20  22
ENDBRANCH   8  19
TORSDOF 5
ENDMDL
MODEL 10
REMARK VINA RESULT:      -7.2     33.327     34.857
REMARK  5 active torsions:
REMARK  status: ('A' for Active; 'I' for Inactive)
REMARK    1  A    between atoms: C14_20  and  N1_5 
REMARK    2  A    between atoms: C15_21  and  N2_6 
REMARK    3  A    between atoms: C16_22  and  N2_6 
REMARK    4  A    between atoms: C17_23  and  N2_6 
REMARK    5  A    between atoms: C11_17  and  C4_10 
ROOT
HETATM    1  O1  UNK     1      10.418   7.444   8.048  1.00  0.00    -0.332 OA
HETATM    2  O2  UNK     1      13.067  10.067  11.177  1.00  0.00    -0.274 OA
HETATM    3  O3  UNK     1      13.813   6.244   7.784  1.00  0.00    -0.289 OA
HETATM    4  O4  UNK     1      14.252  11.272  12.722  1.00  0.00    -0.260 OA
HETATM    5  C1  UNK     1      11.407   6.414   8.000  1.00  0.00     0.125 C 
HETATM    6  C2  UNK     1      11.822   8.788   9.521  1.00  0.00     0.048 A 
HETATM    7  C3  UNK     1      12.849   6.901   8.170  1.00  0.00     0.196 C 
HETATM    8  C4  UNK     1      13.009   8.211   8.871  1.00  0.00     0.044 C 
HETATM    9  C5  UNK     1      10.569   8.376   9.042  1.00  0.00     0.084 A 
HETATM   10  C6  UNK     1      11.267   5.780   6.609  1.00  0.00     0.055 C 
HETATM   11  C7  UNK     1      11.101   5.356   9.069  1.00  0.00     0.055 C 
HETATM   12  C8  UNK     1      11.831   9.702  10.589  1.00  0.00     0.103 A 
HETATM   13  C9  UNK     1      10.653  10.243  11.116  1.00  0.00    -0.001 A 
HETATM   14  C10 UNK     1       9.385   8.926   9.542  1.00  0.00     0.039 A 
HETATM   15  C12 UNK     1       9.426   9.860  10.575  1.00  0.00     0.017 A 
HETATM   16  C13 UNK     1      10.731  11.190  12.216  1.00  0.00     0.020 A 
HETATM   17  C22 UNK     1      11.911  11.530  12.740  1.00  0.00     0.083 A 
HETATM   18  C23 UNK     1      13.171  10.963  12.234  1.00  0.00     0.288 A 
ENDROOT
BRANCH   8  19
HETATM   19  C11 UNK     1      14.200   8.819   8.751  1.00  0.00     0.104 C 
HETATM   20  N1  UNK     1      14.441  10.099   8.389  1.00  0.00    -0.365 N 
HETATM   21  H10 UNK     1      13.633  10.675   8.178  1.00  0.00     0.165 HD
BRANCH  20  22
HETATM   22  C14 UNK     1      15.675  10.760   8.256  1.00  0.00     0.032 A 
HETATM   23  C18 UNK     1      15.813  11.815   7.352  1.00  0.00     0.031 A 
HETATM   24  C20 UNK     1      17.038  12.469   7.221  1.00  0.00     0.031 A 
HETATM   25  C15 UNK     1      18.129  12.069   7.993  1.00  0.00     0.030 A 
HETATM   26  C21 UNK     1      17.994  11.016   8.898  1.00  0.00     0.031 A 
HETATM   27  C19 UNK     1      16.769  10.362   9.029  1.00  0.00     0.031 A 
BRANCH  25  28
HETATM   28  N2  UNK     1      19.366  12.731   7.861  1.00  0.00    -0.382 N 
BRANCH  28  29
HETATM   29  C16 UNK     1      20.394  12.575   8.871  1.00  0.00     0.118 C 
HETATM   30  C24 UNK     1      21.615  11.870   8.317  1.00  0.00     0.026 C 
ENDBRANCH  28  29
BRANCH  28  31
HETATM   31  C17 UNK     1      19.632  13.567   6.707  1.00  0.00     0.118 C 
HETATM   32  C25 UNK     1      19.869  15.008   7.109  1.00  0.00     0.026 C 
ENDBRANCH  28  31
ENDBRANCH  25  28
ENDBRANCH  20  22
ENDBRANCH   8  19
TORSDOF 5
ENDMDL
