MODEL 1
REMARK VINA RESULT:     -10.5      0.000      0.000
REMARK  2 active torsions:
REMARK  status: ('A' for Active; 'I' for Inactive)
REMARK    1  A    between atoms: C2_7  and  C6_11 
REMARK    2  A    between atoms: C3_8  and  C4_9 
ROOT
HETATM    1  N1  UNK     1      19.209  -2.886  36.497  1.00  0.00    -0.338 N 
HETATM    2  N2  UNK     1      20.406  -3.554  34.750  1.00  0.00    -0.227 NA
HETATM    3  C1  UNK     1      18.978  -1.968  35.512  1.00  0.00     0.074 A 
HETATM    4  C2  UNK     1      19.729  -2.401  34.444  1.00  0.00     0.097 A 
HETATM    5  C3  UNK     1      20.073  -3.823  35.996  1.00  0.00     0.145 A 
HETATM    6  C5  UNK     1      18.108  -0.832  35.694  1.00  0.00    -0.007 A 
HETATM    7  C11 UNK     1      16.751  -0.937  35.389  1.00  0.00     0.014 A 
HETATM    8  C12 UNK     1      18.624   0.373  36.174  1.00  0.00     0.014 A 
HETATM    9  C17 UNK     1      15.910   0.162  35.564  1.00  0.00     0.001 A 
HETATM   10  C18 UNK     1      17.781   1.471  36.349  1.00  0.00     0.001 A 
HETATM   11  C23 UNK     1      16.424   1.365  36.044  1.00  0.00     0.000 A 
HETATM   12  H1  UNK     1      18.797  -2.875  37.421  1.00  0.00     0.167 HD
ENDROOT
BRANCH   5  13
HETATM   13  C4  UNK     1      20.482  -4.957  36.911  1.00  0.00     0.083 A 
HETATM   14  C10 UNK     1      21.481  -4.844  37.798  1.00  0.00     0.162 A 
HETATM   15  O1  UNK     1      21.921  -5.805  38.673  1.00  0.00    -0.321 OA
HETATM   16  C9  UNK     1      21.267  -7.010  38.673  1.00  0.00     0.089 A 
HETATM   17  C16 UNK     1      21.701  -7.972  39.586  1.00  0.00     0.040 A 
HETATM   18  C8  UNK     1      20.210  -7.293  37.808  1.00  0.00     0.050 A 
HETATM   19  C20 UNK     1      21.074  -9.218  39.631  1.00  0.00     0.026 A 
HETATM   20  C19 UNK     1      20.017  -9.501  38.765  1.00  0.00     0.035 A 
HETATM   21  C15 UNK     1      19.583  -8.541  37.850  1.00  0.00     0.042 A 
HETATM   22 Cl1  UNK     1      19.250 -11.041  38.825  1.00  0.00    -0.084 Cl
HETATM   23  C7  UNK     1      19.774  -6.264  36.848  1.00  0.00     0.200 A 
HETATM   24  O2  UNK     1      18.888  -6.489  36.034  1.00  0.00    -0.286 OA
ENDBRANCH   5  13
BRANCH   4  25
HETATM   25  C6  UNK     1      19.813  -1.756  33.169  1.00  0.00    -0.005 A 
HETATM   26  C13 UNK     1      20.726  -2.208  32.213  1.00  0.00     0.014 A 
HETATM   27  C21 UNK     1      20.809  -1.580  30.970  1.00  0.00     0.001 A 
HETATM   28  C24 UNK     1      19.978  -0.498  30.679  1.00  0.00     0.000 A 
HETATM   29  C22 UNK     1      19.065  -0.043  31.631  1.00  0.00     0.001 A 
HETATM   30  C14 UNK     1      18.983  -0.672  32.874  1.00  0.00     0.014 A 
ENDBRANCH   4  25
TORSDOF 2
ENDMDL
MODEL 2
REMARK VINA RESULT:      -9.6      7.716     11.846
REMARK  2 active torsions:
REMARK  status: ('A' for Active; 'I' for Inactive)
REMARK    1  A    between atoms: C2_7  and  C6_11 
REMARK    2  A    between atoms: C3_8  and  C4_9 
ROOT
HETATM    1  N1  UNK     1      17.786   3.773  33.907  1.00  0.00    -0.338 N 
HETATM    2  N2  UNK     1      18.417   4.126  31.807  1.00  0.00    -0.227 NA
HETATM    3  C1  UNK     1      18.045   2.538  33.382  1.00  0.00     0.074 A 
HETATM    4  C2  UNK     1      18.432   2.782  32.084  1.00  0.00     0.097 A 
HETATM    5  C3  UNK     1      18.022   4.699  32.926  1.00  0.00     0.145 A 
HETATM    6  C5  UNK     1      17.900   1.323  34.142  1.00  0.00    -0.007 A 
HETATM    7  C11 UNK     1      18.979   0.821  34.870  1.00  0.00     0.014 A 
HETATM    8  C12 UNK     1      16.680   0.645  34.150  1.00  0.00     0.014 A 
HETATM    9  C17 UNK     1      18.840  -0.356  35.605  1.00  0.00     0.001 A 
HETATM   10  C18 UNK     1      16.540  -0.532  34.887  1.00  0.00     0.001 A 
HETATM   11  C23 UNK     1      17.620  -1.032  35.614  1.00  0.00     0.000 A 
HETATM   12  H1  UNK     1      17.488   3.959  34.856  1.00  0.00     0.167 HD
ENDROOT
BRANCH   5  13
HETATM   13  C4  UNK     1      17.803   6.156  33.272  1.00  0.00     0.083 A 
HETATM   14  C10 UNK     1      18.726   6.892  33.907  1.00  0.00     0.162 A 
HETATM   15  O1  UNK     1      18.629   8.216  34.256  1.00  0.00    -0.321 OA
HETATM   16  C9  UNK     1      17.482   8.882  33.907  1.00  0.00     0.089 A 
HETATM   17  C16 UNK     1      17.402  10.234  34.239  1.00  0.00     0.040 A 
HETATM   18  C8  UNK     1      16.422   8.260  33.248  1.00  0.00     0.050 A 
HETATM   19  C20 UNK     1      16.258  10.963  33.910  1.00  0.00     0.026 A 
HETATM   20  C19 UNK     1      15.197  10.340  33.252  1.00  0.00     0.035 A 
HETATM   21  C15 UNK     1      15.275   8.987  32.919  1.00  0.00     0.042 A 
HETATM   22 Cl1  UNK     1      13.789  11.245  32.850  1.00  0.00    -0.084 Cl
HETATM   23  C7  UNK     1      16.526   6.828  32.913  1.00  0.00     0.200 A 
HETATM   24  O2  UNK     1      15.598   6.231  32.384  1.00  0.00    -0.286 OA
ENDBRANCH   5  13
BRANCH   4  25
HETATM   25  C6  UNK     1      18.807   1.786  31.126  1.00  0.00    -0.005 A 
HETATM   26  C13 UNK     1      18.456   1.939  29.782  1.00  0.00     0.014 A 
HETATM   27  C21 UNK     1      18.821   0.970  28.848  1.00  0.00     0.001 A 
HETATM   28  C24 UNK     1      19.538  -0.155  29.255  1.00  0.00     0.000 A 
HETATM   29  C22 UNK     1      19.889  -0.312  30.597  1.00  0.00     0.001 A 
HETATM   30  C14 UNK     1      19.524   0.658  31.530  1.00  0.00     0.014 A 
ENDBRANCH   4  25
TORSDOF 2
ENDMDL
MODEL 3
REMARK VINA RESULT:      -9.5      7.091     11.140
REMARK  2 active torsions:
REMARK  status: ('A' for Active; 'I' for Inactive)
REMARK    1  A    between atoms: C2_7  and  C6_11 
REMARK    2  A    between atoms: C3_8  and  C4_9 
ROOT
HETATM    1  N1  UNK     1      17.875   2.895  33.837  1.00  0.00    -0.338 N 
HETATM    2  N2  UNK     1      18.734   2.950  31.790  1.00  0.00    -0.227 NA
HETATM    3  C1  UNK     1      18.187   1.601  33.528  1.00  0.00     0.074 A 
HETATM    4  C2  UNK     1      18.714   1.661  32.259  1.00  0.00     0.097 A 
HETATM    5  C3  UNK     1      18.221   3.673  32.765  1.00  0.00     0.145 A 
HETATM    6  C5  UNK     1      17.955   0.506  34.436  1.00  0.00    -0.007 A 
HETATM    7  C11 UNK     1      18.946   0.129  35.342  1.00  0.00     0.014 A 
HETATM    8  C12 UNK     1      16.739  -0.179  34.408  1.00  0.00     0.014 A 
HETATM    9  C17 UNK     1      18.723  -0.932  36.219  1.00  0.00     0.001 A 
HETATM   10  C18 UNK     1      16.516  -1.240  35.287  1.00  0.00     0.001 A 
HETATM   11  C23 UNK     1      17.508  -1.616  36.193  1.00  0.00     0.000 A 
HETATM   12  H1  UNK     1      17.475   3.212  34.711  1.00  0.00     0.167 HD
ENDROOT
BRANCH   5  13
HETATM   13  C4  UNK     1      17.970   5.162  32.870  1.00  0.00     0.083 A 
HETATM   14  C10 UNK     1      16.840   5.735  32.432  1.00  0.00     0.162 A 
HETATM   15  O1  UNK     1      16.514   7.067  32.489  1.00  0.00    -0.321 OA
HETATM   16  C9  UNK     1      17.417   7.917  33.075  1.00  0.00     0.089 A 
HETATM   17  C16 UNK     1      17.066   9.265  33.155  1.00  0.00     0.040 A 
HETATM   18  C8  UNK     1      18.644   7.482  33.576  1.00  0.00     0.050 A 
HETATM   19  C20 UNK     1      17.946  10.177  33.740  1.00  0.00     0.026 A 
HETATM   20  C19 UNK     1      19.174   9.741  34.240  1.00  0.00     0.035 A 
HETATM   21  C15 UNK     1      19.527   8.394  34.160  1.00  0.00     0.042 A 
HETATM   22 Cl1  UNK     1      20.255  10.872  34.958  1.00  0.00    -0.084 Cl
HETATM   23  C7  UNK     1      18.995   6.055  33.473  1.00  0.00     0.200 A 
HETATM   24  O2  UNK     1      20.083   5.640  33.850  1.00  0.00    -0.286 OA
ENDBRANCH   5  13
BRANCH   4  25
HETATM   25  C6  UNK     1      19.190   0.542  31.502  1.00  0.00    -0.005 A 
HETATM   26  C13 UNK     1      19.570   0.710  30.168  1.00  0.00     0.014 A 
HETATM   27  C21 UNK     1      20.034  -0.379  29.429  1.00  0.00     0.001 A 
HETATM   28  C24 UNK     1      20.118  -1.638  30.022  1.00  0.00     0.000 A 
HETATM   29  C22 UNK     1      19.739  -1.809  31.354  1.00  0.00     0.001 A 
HETATM   30  C14 UNK     1      19.276  -0.720  32.092  1.00  0.00     0.014 A 
ENDBRANCH   4  25
TORSDOF 2
ENDMDL
MODEL 4
REMARK VINA RESULT:      -9.1      7.245     10.302
REMARK  2 active torsions:
REMARK  status: ('A' for Active; 'I' for Inactive)
REMARK    1  A    between atoms: C2_7  and  C6_11 
REMARK    2  A    between atoms: C3_8  and  C4_9 
ROOT
HETATM    1  N1  UNK     1      26.736  -8.334  38.011  1.00  0.00    -0.338 N 
HETATM    2  N2  UNK     1      26.652  -6.130  38.275  1.00  0.00    -0.227 NA
HETATM    3  C1  UNK     1      28.005  -7.881  37.783  1.00  0.00     0.074 A 
HETATM    4  C2  UNK     1      27.927  -6.518  37.950  1.00  0.00     0.097 A 
HETATM    5  C3  UNK     1      25.955  -7.248  38.304  1.00  0.00     0.145 A 
HETATM    6  C5  UNK     1      29.096  -8.760  37.444  1.00  0.00    -0.007 A 
HETATM    7  C11 UNK     1      29.883  -9.315  38.453  1.00  0.00     0.014 A 
HETATM    8  C12 UNK     1      29.367  -9.055  36.107  1.00  0.00     0.014 A 
HETATM    9  C17 UNK     1      30.940 -10.165  38.126  1.00  0.00     0.001 A 
HETATM   10  C18 UNK     1      30.424  -9.906  35.780  1.00  0.00     0.001 A 
HETATM   11  C23 UNK     1      31.210 -10.461  36.790  1.00  0.00     0.000 A 
HETATM   12  H1  UNK     1      26.441  -9.302  37.981  1.00  0.00     0.167 HD
ENDROOT
BRANCH   5  13
HETATM   13  C4  UNK     1      24.492  -7.498  38.599  1.00  0.00     0.083 A 
HETATM   14  C10 UNK     1      23.815  -6.807  39.528  1.00  0.00     0.162 A 
HETATM   15  O1  UNK     1      22.492  -6.951  39.863  1.00  0.00    -0.321 OA
HETATM   16  C9  UNK     1      21.759  -7.880  39.170  1.00  0.00     0.089 A 
HETATM   17  C16 UNK     1      20.408  -8.000  39.496  1.00  0.00     0.040 A 
HETATM   18  C8  UNK     1      22.313  -8.686  38.176  1.00  0.00     0.050 A 
HETATM   19  C20 UNK     1      19.612  -8.929  38.825  1.00  0.00     0.026 A 
HETATM   20  C19 UNK     1      20.167  -9.737  37.831  1.00  0.00     0.035 A 
HETATM   21  C15 UNK     1      21.519  -9.619  37.504  1.00  0.00     0.042 A 
HETATM   22 Cl1  UNK     1      19.180 -10.882  37.008  1.00  0.00    -0.084 Cl
HETATM   23  C7  UNK     1      23.744  -8.546  37.854  1.00  0.00     0.200 A 
HETATM   24  O2  UNK     1      24.283  -9.271  37.028  1.00  0.00    -0.286 OA
ENDBRANCH   5  13
BRANCH   4  25
HETATM   25  C6  UNK     1      29.016  -5.599  37.811  1.00  0.00    -0.005 A 
HETATM   26  C13 UNK     1      29.826  -5.638  36.673  1.00  0.00     0.014 A 
HETATM   27  C21 UNK     1      30.888  -4.743  36.537  1.00  0.00     0.001 A 
HETATM   28  C24 UNK     1      31.142  -3.807  37.539  1.00  0.00     0.000 A 
HETATM   29  C22 UNK     1      30.336  -3.766  38.677  1.00  0.00     0.001 A 
HETATM   30  C14 UNK     1      29.275  -4.660  38.812  1.00  0.00     0.014 A 
ENDBRANCH   4  25
TORSDOF 2
ENDMDL
MODEL 5
REMARK VINA RESULT:      -8.9      1.192      2.024
REMARK  2 active torsions:
REMARK  status: ('A' for Active; 'I' for Inactive)
REMARK    1  A    between atoms: C2_7  and  C6_11 
REMARK    2  A    between atoms: C3_8  and  C4_9 
ROOT
HETATM    1  N1  UNK     1      18.919  -2.894  36.392  1.00  0.00    -0.338 N 
HETATM    2  N2  UNK     1      19.977  -3.738  34.632  1.00  0.00    -0.227 NA
HETATM    3  C1  UNK     1      18.934  -1.901  35.454  1.00  0.00     0.074 A 
HETATM    4  C2  UNK     1      19.595  -2.446  34.376  1.00  0.00     0.097 A 
HETATM    5  C3  UNK     1      19.556  -3.981  35.857  1.00  0.00     0.145 A 
HETATM    6  C5  UNK     1      18.347  -0.605  35.682  1.00  0.00    -0.007 A 
HETATM    7  C11 UNK     1      17.012  -0.376  35.350  1.00  0.00     0.014 A 
HETATM    8  C12 UNK     1      19.114   0.424  36.232  1.00  0.00     0.014 A 
HETATM    9  C17 UNK     1      16.443   0.879  35.569  1.00  0.00     0.001 A 
HETATM   10  C18 UNK     1      18.545   1.678  36.452  1.00  0.00     0.001 A 
HETATM   11  C23 UNK     1      17.209   1.906  36.121  1.00  0.00     0.000 A 
HETATM   12  H1  UNK     1      18.496  -2.831  37.310  1.00  0.00     0.167 HD
ENDROOT
BRANCH   5  13
HETATM   13  C4  UNK     1      19.666  -5.221  36.716  1.00  0.00     0.083 A 
HETATM   14  C10 UNK     1      18.658  -6.095  36.854  1.00  0.00     0.162 A 
HETATM   15  O1  UNK     1      18.660  -7.248  37.599  1.00  0.00    -0.321 OA
HETATM   16  C9  UNK     1      19.815  -7.572  38.263  1.00  0.00     0.089 A 
HETATM   17  C16 UNK     1      19.819  -8.759  38.995  1.00  0.00     0.040 A 
HETATM   18  C8  UNK     1      20.953  -6.767  38.230  1.00  0.00     0.050 A 
HETATM   19  C20 UNK     1      20.966  -9.140  39.692  1.00  0.00     0.026 A 
HETATM   20  C19 UNK     1      22.105  -8.335  39.659  1.00  0.00     0.035 A 
HETATM   21  C15 UNK     1      22.102  -7.145  38.929  1.00  0.00     0.042 A 
HETATM   22 Cl1  UNK     1      23.516  -8.810  40.524  1.00  0.00    -0.084 Cl
HETATM   23  C7  UNK     1      20.923  -5.513  37.456  1.00  0.00     0.200 A 
HETATM   24  O2  UNK     1      21.881  -4.751  37.444  1.00  0.00    -0.286 OA
ENDBRANCH   5  13
BRANCH   4  25
HETATM   25  C6  UNK     1      19.860  -1.778  33.138  1.00  0.00    -0.005 A 
HETATM   26  C13 UNK     1      19.039  -0.729  32.717  1.00  0.00     0.014 A 
HETATM   27  C21 UNK     1      19.296  -0.077  31.511  1.00  0.00     0.001 A 
HETATM   28  C24 UNK     1      20.377  -0.473  30.723  1.00  0.00     0.000 A 
HETATM   29  C22 UNK     1      21.199  -1.520  31.140  1.00  0.00     0.001 A 
HETATM   30  C14 UNK     1      20.941  -2.171  32.346  1.00  0.00     0.014 A 
ENDBRANCH   4  25
TORSDOF 2
ENDMDL
MODEL 6
REMARK VINA RESULT:      -8.9     28.680     30.573
REMARK  2 active torsions:
REMARK  status: ('A' for Active; 'I' for Inactive)
REMARK    1  A    between atoms: C2_7  and  C6_11 
REMARK    2  A    between atoms: C3_8  and  C4_9 
ROOT
HETATM    1  N1  UNK     1      17.880  10.289   8.989  1.00  0.00    -0.338 N 
HETATM    2  N2  UNK     1      16.843  10.878  10.863  1.00  0.00    -0.227 NA
HETATM    3  C1  UNK     1      18.448  11.470   9.376  1.00  0.00     0.074 A 
HETATM    4  C2  UNK     1      17.790  11.815  10.534  1.00  0.00     0.097 A 
HETATM    5  C3  UNK     1      16.920   9.970   9.912  1.00  0.00     0.145 A 
HETATM    6  C5  UNK     1      19.504  12.107   8.630  1.00  0.00    -0.007 A 
HETATM    7  C11 UNK     1      20.837  11.810   8.915  1.00  0.00     0.014 A 
HETATM    8  C12 UNK     1      19.195  13.023   7.623  1.00  0.00     0.014 A 
HETATM    9  C17 UNK     1      21.860  12.428   8.195  1.00  0.00     0.001 A 
HETATM   10  C18 UNK     1      20.218  13.639   6.901  1.00  0.00     0.001 A 
HETATM   11  C23 UNK     1      21.550  13.341   7.187  1.00  0.00     0.000 A 
HETATM   12  H1  UNK     1      18.141   9.749   8.174  1.00  0.00     0.167 HD
ENDROOT
BRANCH   5  13
HETATM   13  C4  UNK     1      16.143   8.688   9.698  1.00  0.00     0.083 A 
HETATM   14  C10 UNK     1      16.475   7.536  10.299  1.00  0.00     0.162 A 
HETATM   15  O1  UNK     1      15.834   6.328  10.178  1.00  0.00    -0.321 OA
HETATM   16  C9  UNK     1      14.719   6.278   9.381  1.00  0.00     0.089 A 
HETATM   17  C16 UNK     1      14.056   5.054   9.287  1.00  0.00     0.040 A 
HETATM   18  C8  UNK     1      14.244   7.386   8.680  1.00  0.00     0.050 A 
HETATM   19  C20 UNK     1      12.916   4.942   8.490  1.00  0.00     0.026 A 
HETATM   20  C19 UNK     1      12.442   6.051   7.788  1.00  0.00     0.035 A 
HETATM   21  C15 UNK     1      13.104   7.276   7.880  1.00  0.00     0.042 A 
HETATM   22 Cl1  UNK     1      11.036   5.906   6.805  1.00  0.00    -0.084 Cl
HETATM   23  C7  UNK     1      14.965   8.667   8.790  1.00  0.00     0.200 A 
HETATM   24  O2  UNK     1      14.615   9.650   8.150  1.00  0.00    -0.286 OA
ENDBRANCH   5  13
BRANCH   4  25
HETATM   25  C6  UNK     1      18.040  12.988  11.316  1.00  0.00    -0.005 A 
HETATM   26  C13 UNK     1      19.110  13.017  12.214  1.00  0.00     0.014 A 
HETATM   27  C21 UNK     1      19.355  14.159  12.977  1.00  0.00     0.001 A 
HETATM   28  C24 UNK     1      18.529  15.275  12.843  1.00  0.00     0.000 A 
HETATM   29  C22 UNK     1      17.459  15.250  11.948  1.00  0.00     0.001 A 
HETATM   30  C14 UNK     1      17.216  14.107  11.186  1.00  0.00     0.014 A 
ENDBRANCH   4  25
TORSDOF 2
ENDMDL
MODEL 7
REMARK VINA RESULT:      -8.9     11.152     13.246
REMARK  2 active torsions:
REMARK  status: ('A' for Active; 'I' for Inactive)
REMARK    1  A    between atoms: C2_7  and  C6_11 
REMARK    2  A    between atoms: C3_8  and  C4_9 
ROOT
HETATM    1  N1  UNK     1      29.988  -8.520  32.956  1.00  0.00    -0.338 N 
HETATM    2  N2  UNK     1      31.932  -7.527  33.368  1.00  0.00    -0.227 NA
HETATM    3  C1  UNK     1      30.733  -8.671  31.821  1.00  0.00     0.074 A 
HETATM    4  C2  UNK     1      31.928  -8.048  32.098  1.00  0.00     0.097 A 
HETATM    5  C3  UNK     1      30.747  -7.827  33.861  1.00  0.00     0.145 A 
HETATM    6  C5  UNK     1      30.241  -9.358  30.653  1.00  0.00    -0.007 A 
HETATM    7  C11 UNK     1      30.445 -10.731  30.513  1.00  0.00     0.014 A 
HETATM    8  C12 UNK     1      29.562  -8.650  29.659  1.00  0.00     0.014 A 
HETATM    9  C17 UNK     1      29.972 -11.396  29.382  1.00  0.00     0.001 A 
HETATM   10  C18 UNK     1      29.087  -9.316  28.529  1.00  0.00     0.001 A 
HETATM   11  C23 UNK     1      29.292 -10.689  28.391  1.00  0.00     0.000 A 
HETATM   12  H1  UNK     1      29.051  -8.875  33.098  1.00  0.00     0.167 HD
ENDROOT
BRANCH   5  13
HETATM   13  C4  UNK     1      30.132  -7.535  35.212  1.00  0.00     0.083 A 
HETATM   14  C10 UNK     1      30.064  -6.297  35.721  1.00  0.00     0.162 A 
HETATM   15  O1  UNK     1      29.521  -5.928  36.927  1.00  0.00    -0.321 OA
HETATM   16  C9  UNK     1      28.962  -6.914  37.699  1.00  0.00     0.089 A 
HETATM   17  C16 UNK     1      28.386  -6.527  38.910  1.00  0.00     0.040 A 
HETATM   18  C8  UNK     1      28.956  -8.255  37.318  1.00  0.00     0.050 A 
HETATM   19  C20 UNK     1      27.803  -7.486  39.738  1.00  0.00     0.026 A 
HETATM   20  C19 UNK     1      27.798  -8.829  39.357  1.00  0.00     0.035 A 
HETATM   21  C15 UNK     1      28.374  -9.218  38.147  1.00  0.00     0.042 A 
HETATM   22 Cl1  UNK     1      27.079 -10.008  40.386  1.00  0.00    -0.084 Cl
HETATM   23  C7  UNK     1      29.576  -8.640  36.039  1.00  0.00     0.200 A 
HETATM   24  O2  UNK     1      29.641  -9.813  35.692  1.00  0.00    -0.286 OA
ENDBRANCH   5  13
BRANCH   4  25
HETATM   25  C6  UNK     1      33.040  -7.943  31.203  1.00  0.00    -0.005 A 
HETATM   26  C13 UNK     1      34.218  -8.649  31.462  1.00  0.00     0.014 A 
HETATM   27  C21 UNK     1      35.302  -8.548  30.590  1.00  0.00     0.001 A 
HETATM   28  C24 UNK     1      35.211  -7.740  29.456  1.00  0.00     0.000 A 
HETATM   29  C22 UNK     1      34.037  -7.033  29.195  1.00  0.00     0.001 A 
HETATM   30  C14 UNK     1      32.953  -7.135  30.067  1.00  0.00     0.014 A 
ENDBRANCH   4  25
TORSDOF 2
ENDMDL
MODEL 8
REMARK VINA RESULT:      -8.9     28.583     31.160
REMARK  2 active torsions:
REMARK  status: ('A' for Active; 'I' for Inactive)
REMARK    1  A    between atoms: C2_7  and  C6_11 
REMARK    2  A    between atoms: C3_8  and  C4_9 
ROOT
HETATM    1  N1  UNK     1      17.318  11.124   8.207  1.00  0.00    -0.338 N 
HETATM    2  N2  UNK     1      18.660  10.644   9.911  1.00  0.00    -0.227 NA
HETATM    3  C1  UNK     1      18.264  12.110   8.227  1.00  0.00     0.074 A 
HETATM    4  C2  UNK     1      19.080  11.793   9.288  1.00  0.00     0.097 A 
HETATM    5  C3  UNK     1      17.594  10.264   9.236  1.00  0.00     0.145 A 
HETATM    6  C5  UNK     1      18.280  13.193   7.276  1.00  0.00    -0.007 A 
HETATM    7  C11 UNK     1      18.988  13.063   6.081  1.00  0.00     0.014 A 
HETATM    8  C12 UNK     1      17.588  14.374   7.551  1.00  0.00     0.014 A 
HETATM    9  C17 UNK     1      19.005  14.112   5.162  1.00  0.00     0.001 A 
HETATM   10  C18 UNK     1      17.604  15.423   6.631  1.00  0.00     0.001 A 
HETATM   11  C23 UNK     1      18.312  15.291   5.436  1.00  0.00     0.000 A 
HETATM   12  H1  UNK     1      16.563  11.045   7.537  1.00  0.00     0.167 HD
ENDROOT
BRANCH   5  13
HETATM   13  C4  UNK     1      16.676   9.075   9.420  1.00  0.00     0.083 A 
HETATM   14  C10 UNK     1      17.095   7.914   9.944  1.00  0.00     0.162 A 
HETATM   15  O1  UNK     1      16.343   6.786  10.159  1.00  0.00    -0.321 OA
HETATM   16  C9  UNK     1      15.012   6.839   9.831  1.00  0.00     0.089 A 
HETATM   17  C16 UNK     1      14.248   5.698  10.080  1.00  0.00     0.040 A 
HETATM   18  C8  UNK     1      14.419   7.969   9.270  1.00  0.00     0.050 A 
HETATM   19  C20 UNK     1      12.888   5.693   9.766  1.00  0.00     0.026 A 
HETATM   20  C19 UNK     1      12.295   6.824   9.204  1.00  0.00     0.035 A 
HETATM   21  C15 UNK     1      13.058   7.965   8.953  1.00  0.00     0.042 A 
HETATM   22 Cl1  UNK     1      10.618   6.809   8.817  1.00  0.00    -0.084 Cl
HETATM   23  C7  UNK     1      15.248   9.160   9.010  1.00  0.00     0.200 A 
HETATM   24  O2  UNK     1      14.781  10.153   8.469  1.00  0.00    -0.286 OA
ENDBRANCH   5  13
BRANCH   4  25
HETATM   25  C6  UNK     1      20.225  12.542   9.711  1.00  0.00    -0.005 A 
HETATM   26  C13 UNK     1      21.503  12.165   9.291  1.00  0.00     0.014 A 
HETATM   27  C21 UNK     1      22.620  12.893   9.702  1.00  0.00     0.001 A 
HETATM   28  C24 UNK     1      22.460  14.002  10.534  1.00  0.00     0.000 A 
HETATM   29  C22 UNK     1      21.185  14.381  10.956  1.00  0.00     0.001 A 
HETATM   30  C14 UNK     1      20.070  13.651  10.544  1.00  0.00     0.014 A 
ENDBRANCH   4  25
TORSDOF 2
ENDMDL
MODEL 9
REMARK VINA RESULT:      -8.8      7.217     10.556
REMARK  2 active torsions:
REMARK  status: ('A' for Active; 'I' for Inactive)
REMARK    1  A    between atoms: C2_7  and  C6_11 
REMARK    2  A    between atoms: C3_8  and  C4_9 
ROOT
HETATM    1  N1  UNK     1      26.327  -8.459  36.419  1.00  0.00    -0.338 N 
HETATM    2  N2  UNK     1      27.213  -7.986  38.400  1.00  0.00    -0.227 NA
HETATM    3  C1  UNK     1      27.681  -8.465  36.234  1.00  0.00     0.074 A 
HETATM    4  C2  UNK     1      28.206  -8.169  37.470  1.00  0.00     0.097 A 
HETATM    5  C3  UNK     1      26.090  -8.167  37.736  1.00  0.00     0.145 A 
HETATM    6  C5  UNK     1      28.291  -8.738  34.957  1.00  0.00    -0.007 A 
HETATM    7  C11 UNK     1      28.620 -10.048  34.606  1.00  0.00     0.014 A 
HETATM    8  C12 UNK     1      28.555  -7.693  34.071  1.00  0.00     0.014 A 
HETATM    9  C17 UNK     1      29.212 -10.312  33.371  1.00  0.00     0.001 A 
HETATM   10  C18 UNK     1      29.147  -7.958  32.835  1.00  0.00     0.001 A 
HETATM   11  C23 UNK     1      29.474  -9.268  32.485  1.00  0.00     0.000 A 
HETATM   12  H1  UNK     1      25.634  -8.653  35.707  1.00  0.00     0.167 HD
ENDROOT
BRANCH   5  13
HETATM   13  C4  UNK     1      24.648  -8.105  38.189  1.00  0.00     0.083 A 
HETATM   14  C10 UNK     1      24.247  -7.338  39.214  1.00  0.00     0.162 A 
HETATM   15  O1  UNK     1      22.968  -7.205  39.695  1.00  0.00    -0.321 OA
HETATM   16  C9  UNK     1      21.975  -7.906  39.059  1.00  0.00     0.089 A 
HETATM   17  C16 UNK     1      20.674  -7.743  39.535  1.00  0.00     0.040 A 
HETATM   18  C8  UNK     1      22.224  -8.753  37.980  1.00  0.00     0.050 A 
HETATM   19  C20 UNK     1      19.622  -8.431  38.928  1.00  0.00     0.026 A 
HETATM   20  C19 UNK     1      19.872  -9.280  37.849  1.00  0.00     0.035 A 
HETATM   21  C15 UNK     1      21.173  -9.445  37.372  1.00  0.00     0.042 A 
HETATM   22 Cl1  UNK     1      18.570 -10.127  37.107  1.00  0.00    -0.084 Cl
HETATM   23  C7  UNK     1      23.608  -8.914  37.500  1.00  0.00     0.200 A 
HETATM   24  O2  UNK     1      23.879  -9.689  36.592  1.00  0.00    -0.286 OA
ENDBRANCH   5  13
BRANCH   4  25
HETATM   25  C6  UNK     1      29.600  -8.060  37.778  1.00  0.00    -0.005 A 
HETATM   26  C13 UNK     1      30.154  -6.816  38.094  1.00  0.00     0.014 A 
HETATM   27  C21 UNK     1      31.512  -6.709  38.394  1.00  0.00     0.001 A 
HETATM   28  C24 UNK     1      32.320  -7.845  38.380  1.00  0.00     0.000 A 
HETATM   29  C22 UNK     1      31.771  -9.089  38.064  1.00  0.00     0.001 A 
HETATM   30  C14 UNK     1      30.414  -9.195  37.764  1.00  0.00     0.014 A 
ENDBRANCH   4  25
TORSDOF 2
ENDMDL
MODEL 10
REMARK VINA RESULT:      -8.8     28.502     30.204
REMARK  2 active torsions:
REMARK  status: ('A' for Active; 'I' for Inactive)
REMARK    1  A    between atoms: C2_7  and  C6_11 
REMARK    2  A    between atoms: C3_8  and  C4_9 
ROOT
HETATM    1  N1  UNK     1      16.221  10.994  10.491  1.00  0.00    -0.338 N 
HETATM    2  N2  UNK     1      17.945   9.875   9.650  1.00  0.00    -0.227 NA
HETATM    3  C1  UNK     1      17.269  11.872  10.484  1.00  0.00     0.074 A 
HETATM    4  C2  UNK     1      18.322  11.158   9.962  1.00  0.00     0.097 A 
HETATM    5  C3  UNK     1      16.672   9.806   9.982  1.00  0.00     0.145 A 
HETATM    6  C5  UNK     1      17.151  13.229  10.956  1.00  0.00    -0.007 A 
HETATM    7  C11 UNK     1      16.787  14.246  10.073  1.00  0.00     0.014 A 
HETATM    8  C12 UNK     1      17.403  13.527  12.296  1.00  0.00     0.014 A 
HETATM    9  C17 UNK     1      16.675  15.559  10.529  1.00  0.00     0.001 A 
HETATM   10  C18 UNK     1      17.290  14.841  12.752  1.00  0.00     0.001 A 
HETATM   11  C23 UNK     1      16.925  15.857  11.869  1.00  0.00     0.000 A 
HETATM   12  H1  UNK     1      15.281  11.202  10.805  1.00  0.00     0.167 HD
ENDROOT
BRANCH   5  13
HETATM   13  C4  UNK     1      15.682   8.666   9.886  1.00  0.00     0.083 A 
HETATM   14  C10 UNK     1      15.698   7.624  10.730  1.00  0.00     0.162 A 
HETATM   15  O1  UNK     1      14.844   6.550  10.733  1.00  0.00    -0.321 OA
HETATM   16  C9  UNK     1      13.844   6.532   9.794  1.00  0.00     0.089 A 
HETATM   17  C16 UNK     1      12.962   5.452   9.821  1.00  0.00     0.040 A 
HETATM   18  C8  UNK     1      13.692   7.536   8.838  1.00  0.00     0.050 A 
HETATM   19  C20 UNK     1      11.926   5.379   8.889  1.00  0.00     0.026 A 
HETATM   20  C19 UNK     1      11.774   6.383   7.932  1.00  0.00     0.035 A 
HETATM   21  C15 UNK     1      12.656   7.464   7.903  1.00  0.00     0.042 A 
HETATM   22 Cl1  UNK     1      10.494   6.285   6.785  1.00  0.00    -0.084 Cl
HETATM   23  C7  UNK     1      14.640   8.663   8.824  1.00  0.00     0.200 A 
HETATM   24  O2  UNK     1      14.576   9.537   7.969  1.00  0.00    -0.286 OA
ENDBRANCH   5  13
BRANCH   4  25
HETATM   25  C6  UNK     1      19.648  11.659   9.757  1.00  0.00    -0.005 A 
HETATM   26  C13 UNK     1      20.528  11.773  10.836  1.00  0.00     0.014 A 
HETATM   27  C21 UNK     1      21.820  12.261  10.639  1.00  0.00     0.001 A 
HETATM   28  C24 UNK     1      22.235  12.636   9.361  1.00  0.00     0.000 A 
HETATM   29  C22 UNK     1      21.358  12.524   8.281  1.00  0.00     0.001 A 
HETATM   30  C14 UNK     1      20.067  12.036   8.480  1.00  0.00     0.014 A 
ENDBRANCH   4  25
TORSDOF 2
ENDMDL
