MODEL 1
REMARK VINA RESULT:      -9.3      0.000      0.000
REMARK  5 active torsions:
REMARK  status: ('A' for Active; 'I' for Inactive)
REMARK    1  A    between atoms: C10_17  and  O1_2 
REMARK    2  A    between atoms: C13_20  and  O1_2 
REMARK       I    between atoms: C11_18  and  N1_7 
REMARK    3  A    between atoms: C9_16  and  N1_7 
REMARK    4  A    between atoms: C10_17  and  C8_15 
REMARK    5  A    between atoms: C11_18  and  C12_19 
ROOT
HETATM    1  S1  UNK     1      19.975  -1.514  31.551  1.00  0.00    -0.075 SA
HETATM    2  C1  UNK     1      19.091   1.725  29.165  1.00  0.00    -0.014 C 
HETATM    3  C2  UNK     1      18.990   2.735  30.331  1.00  0.00     0.009 C 
HETATM    4  C3  UNK     1      19.902   0.477  29.581  1.00  0.00     0.051 C 
HETATM    5  C4  UNK     1      18.333   2.146  31.590  1.00  0.00     0.041 C 
HETATM    6  C5  UNK     1      18.842   0.772  31.891  1.00  0.00    -0.026 A 
HETATM    7  C6  UNK     1      19.532   0.020  30.959  1.00  0.00    -0.008 A 
HETATM    8  C7  UNK     1      17.708   1.341  28.628  1.00  0.00     0.010 C 
HETATM    9  C8  UNK     1      18.674   0.056  33.115  1.00  0.00     0.080 A 
HETATM   10  C9  UNK     1      19.241  -1.198  33.066  1.00  0.00     0.094 A 
ENDROOT
BRANCH  10  11
HETATM   11  N1  UNK     1      19.314  -2.196  34.000  1.00  0.00    -0.316 N 
HETATM   12  C11 UNK     1      20.428  -2.535  34.780  1.00  0.00     0.262 C 
HETATM   13  O3  UNK     1      21.538  -2.019  34.785  1.00  0.00    -0.267 OA
HETATM   14  H11 UNK     1      18.451  -2.719  34.131  1.00  0.00     0.169 HD
BRANCH  12  15
HETATM   15  C12 UNK     1      20.157  -3.668  35.689  1.00  0.00     0.108 A 
HETATM   16  C14 UNK     1      20.116  -4.881  35.125  1.00  0.00     0.037 A 
HETATM   17  C15 UNK     1      19.855  -6.059  35.938  1.00  0.00    -0.001 A 
HETATM   18  C17 UNK     1      19.651  -5.901  37.305  1.00  0.00     0.089 A 
HETATM   19  C19 UNK     1      19.802  -7.344  35.392  1.00  0.00     0.014 A 
HETATM   20  O4  UNK     1      19.697  -4.623  37.893  1.00  0.00    -0.274 OA
HETATM   21  C20 UNK     1      19.398  -6.989  38.140  1.00  0.00     0.038 A 
HETATM   22  C16 UNK     1      19.944  -3.477  37.141  1.00  0.00     0.304 A 
HETATM   23  O5  UNK     1      19.980  -2.368  37.662  1.00  0.00    -0.259 OA
HETATM   24  C22 UNK     1      19.346  -8.267  37.587  1.00  0.00     0.003 A 
HETATM   25  C21 UNK     1      19.549  -8.444  36.216  1.00  0.00     0.001 A 
ENDBRANCH  12  15
ENDBRANCH  10  11
BRANCH   9  26
HETATM   26  C10 UNK     1      18.000   0.553  34.289  1.00  0.00     0.296 C 
HETATM   27  O2  UNK     1      16.815   0.920  34.302  1.00  0.00    -0.259 OA
BRANCH  26  28
HETATM   28  O1  UNK     1      18.792   0.588  35.415  1.00  0.00    -0.318 OA
BRANCH  28  29
HETATM   29  C13 UNK     1      18.328   1.391  36.507  1.00  0.00     0.174 C 
HETATM   30  C18 UNK     1      17.775   0.484  37.586  1.00  0.00     0.034 C 
ENDBRANCH  28  29
ENDBRANCH  26  28
ENDBRANCH   9  26
TORSDOF 5
ENDMDL
MODEL 2
REMARK VINA RESULT:      -9.2      3.185      8.837
REMARK  5 active torsions:
REMARK  status: ('A' for Active; 'I' for Inactive)
REMARK    1  A    between atoms: C10_17  and  O1_2 
REMARK    2  A    between atoms: C13_20  and  O1_2 
REMARK       I    between atoms: C11_18  and  N1_7 
REMARK    3  A    between atoms: C9_16  and  N1_7 
REMARK    4  A    between atoms: C10_17  and  C8_15 
REMARK    5  A    between atoms: C11_18  and  C12_19 
ROOT
HETATM    1  S1  UNK     1      20.918  -7.324  34.408  1.00  0.00    -0.075 SA
HETATM    2  C1  UNK     1      21.906 -11.167  35.514  1.00  0.00    -0.014 C 
HETATM    3  C2  UNK     1      20.733 -11.334  36.505  1.00  0.00     0.009 C 
HETATM    4  C3  UNK     1      21.621 -10.035  34.501  1.00  0.00     0.051 C 
HETATM    5  C4  UNK     1      20.424 -10.057  37.303  1.00  0.00     0.041 C 
HETATM    6  C5  UNK     1      20.443  -8.840  36.433  1.00  0.00    -0.026 A 
HETATM    7  C6  UNK     1      21.011  -8.843  35.173  1.00  0.00    -0.008 A 
HETATM    8  C7  UNK     1      23.236 -10.942  36.242  1.00  0.00     0.010 C 
HETATM    9  C8  UNK     1      19.928  -7.551  36.769  1.00  0.00     0.080 A 
HETATM   10  C9  UNK     1      20.120  -6.635  35.758  1.00  0.00     0.094 A 
ENDROOT
BRANCH  10  11
HETATM   11  N1  UNK     1      19.786  -5.311  35.660  1.00  0.00    -0.316 N 
HETATM   12  C11 UNK     1      20.383  -4.243  36.342  1.00  0.00     0.262 C 
HETATM   13  O3  UNK     1      21.306  -4.274  37.147  1.00  0.00    -0.267 OA
HETATM   14  H11 UNK     1      19.031  -5.111  35.007  1.00  0.00     0.169 HD
BRANCH  12  15
HETATM   15  C12 UNK     1      19.770  -2.942  36.001  1.00  0.00     0.108 A 
HETATM   16  C14 UNK     1      19.075  -2.342  36.975  1.00  0.00     0.037 A 
HETATM   17  C15 UNK     1      18.434  -1.058  36.735  1.00  0.00    -0.001 A 
HETATM   18  C17 UNK     1      18.558  -0.469  35.481  1.00  0.00     0.089 A 
HETATM   19  C19 UNK     1      17.699  -0.397  37.721  1.00  0.00     0.014 A 
HETATM   20  O4  UNK     1      19.292  -1.104  34.461  1.00  0.00    -0.274 OA
HETATM   21  C20 UNK     1      17.970   0.760  35.186  1.00  0.00     0.038 A 
HETATM   22  C16 UNK     1      19.915  -2.333  34.660  1.00  0.00     0.304 A 
HETATM   23  O5  UNK     1      20.551  -2.879  33.765  1.00  0.00    -0.259 OA
HETATM   24  C22 UNK     1      17.237   1.412  36.176  1.00  0.00     0.003 A 
HETATM   25  C21 UNK     1      17.103   0.835  37.441  1.00  0.00     0.001 A 
ENDBRANCH  12  15
ENDBRANCH  10  11
BRANCH   9  26
HETATM   26  C10 UNK     1      19.274  -7.208  38.007  1.00  0.00     0.296 C 
HETATM   27  O2  UNK     1      18.146  -6.697  38.074  1.00  0.00    -0.259 OA
BRANCH  26  28
HETATM   28  O1  UNK     1      20.016  -7.500  39.131  1.00  0.00    -0.318 OA
BRANCH  28  29
HETATM   29  C13 UNK     1      21.277  -6.832  39.264  1.00  0.00     0.174 C 
HETATM   30  C18 UNK     1      22.294  -7.806  39.820  1.00  0.00     0.034 C 
ENDBRANCH  28  29
ENDBRANCH  26  28
ENDBRANCH   9  26
TORSDOF 5
ENDMDL
MODEL 3
REMARK VINA RESULT:      -9.2      5.482      8.496
REMARK  5 active torsions:
REMARK  status: ('A' for Active; 'I' for Inactive)
REMARK    1  A    between atoms: C10_17  and  O1_2 
REMARK    2  A    between atoms: C13_20  and  O1_2 
REMARK       I    between atoms: C11_18  and  N1_7 
REMARK    3  A    between atoms: C9_16  and  N1_7 
REMARK    4  A    between atoms: C10_17  and  C8_15 
REMARK    5  A    between atoms: C11_18  and  C12_19 
ROOT
HETATM    1  S1  UNK     1      15.800   6.573  32.251  1.00  0.00    -0.075 SA
HETATM    2  C1  UNK     1      15.088  10.368  33.684  1.00  0.00    -0.014 C 
HETATM    3  C2  UNK     1      16.580  10.745  33.831  1.00  0.00     0.009 C 
HETATM    4  C3  UNK     1      14.907   9.191  32.700  1.00  0.00     0.051 C 
HETATM    5  C4  UNK     1      17.455   9.582  34.325  1.00  0.00     0.041 C 
HETATM    6  C5  UNK     1      17.117   8.300  33.632  1.00  0.00    -0.026 A 
HETATM    7  C6  UNK     1      15.946   8.133  32.918  1.00  0.00    -0.008 A 
HETATM    8  C7  UNK     1      14.444  10.066  35.042  1.00  0.00     0.010 C 
HETATM    9  C8  UNK     1      17.903   7.108  33.628  1.00  0.00     0.080 A 
HETATM   10  C9  UNK     1      17.304   6.092  32.914  1.00  0.00     0.094 A 
ENDROOT
BRANCH  10  11
HETATM   11  N1  UNK     1      17.704   4.809  32.657  1.00  0.00    -0.316 N 
HETATM   12  C11 UNK     1      18.223   4.318  31.452  1.00  0.00     0.262 C 
HETATM   13  O3  UNK     1      18.421   4.924  30.406  1.00  0.00    -0.267 OA
HETATM   14  H11 UNK     1      17.617   4.171  33.445  1.00  0.00     0.169 HD
BRANCH  12  15
HETATM   15  C12 UNK     1      18.551   2.879  31.522  1.00  0.00     0.108 A 
HETATM   16  C14 UNK     1      19.059   2.333  30.411  1.00  0.00     0.037 A 
HETATM   17  C15 UNK     1      19.413   0.922  30.382  1.00  0.00    -0.001 A 
HETATM   18  C17 UNK     1      19.213   0.155  31.525  1.00  0.00     0.089 A 
HETATM   19  C19 UNK     1      19.946   0.311  29.245  1.00  0.00     0.014 A 
HETATM   20  O4  UNK     1      18.678   0.735  32.692  1.00  0.00    -0.274 OA
HETATM   21  C20 UNK     1      19.531  -1.201  31.564  1.00  0.00     0.038 A 
HETATM   22  C16 UNK     1      18.330   2.082  32.750  1.00  0.00     0.304 A 
HETATM   23  O5  UNK     1      17.864   2.577  33.770  1.00  0.00    -0.259 OA
HETATM   24  C22 UNK     1      20.062  -1.803  30.425  1.00  0.00     0.003 A 
HETATM   25  C21 UNK     1      20.270  -1.048  29.268  1.00  0.00     0.001 A 
ENDBRANCH  12  15
ENDBRANCH  10  11
BRANCH   9  26
HETATM   26  C10 UNK     1      19.180   6.945  34.278  1.00  0.00     0.296 C 
HETATM   27  O2  UNK     1      19.481   7.484  35.354  1.00  0.00    -0.259 OA
BRANCH  26  28
HETATM   28  O1  UNK     1      20.054   6.127  33.596  1.00  0.00    -0.318 OA
BRANCH  28  29
HETATM   29  C13 UNK     1      21.088   6.771  32.843  1.00  0.00     0.174 C 
HETATM   30  C18 UNK     1      21.551   5.839  31.744  1.00  0.00     0.034 C 
ENDBRANCH  28  29
ENDBRANCH  26  28
ENDBRANCH   9  26
TORSDOF 5
ENDMDL
MODEL 4
REMARK VINA RESULT:      -9.1      2.303      4.565
REMARK  5 active torsions:
REMARK  status: ('A' for Active; 'I' for Inactive)
REMARK    1  A    between atoms: C10_17  and  O1_2 
REMARK    2  A    between atoms: C13_20  and  O1_2 
REMARK       I    between atoms: C11_18  and  N1_7 
REMARK    3  A    between atoms: C9_16  and  N1_7 
REMARK    4  A    between atoms: C10_17  and  C8_15 
REMARK    5  A    between atoms: C11_18  and  C12_19 
ROOT
HETATM    1  S1  UNK     1      18.178  -1.700  37.151  1.00  0.00    -0.075 SA
HETATM    2  C1  UNK     1      18.101   2.259  36.016  1.00  0.00    -0.014 C 
HETATM    3  C2  UNK     1      18.040   1.969  34.500  1.00  0.00     0.009 C 
HETATM    4  C3  UNK     1      17.640   1.032  36.835  1.00  0.00     0.051 C 
HETATM    5  C4  UNK     1      18.904   0.771  34.074  1.00  0.00     0.041 C 
HETATM    6  C5  UNK     1      18.757  -0.381  35.018  1.00  0.00    -0.026 A 
HETATM    7  C6  UNK     1      18.203  -0.239  36.275  1.00  0.00    -0.008 A 
HETATM    8  C7  UNK     1      19.495   2.728  36.448  1.00  0.00     0.010 C 
HETATM    9  C8  UNK     1      19.174  -1.726  34.783  1.00  0.00     0.080 A 
HETATM   10  C9  UNK     1      18.918  -2.546  35.860  1.00  0.00     0.094 A 
ENDROOT
BRANCH  10  11
HETATM   11  N1  UNK     1      19.149  -3.881  36.056  1.00  0.00    -0.316 N 
HETATM   12  C11 UNK     1      20.266  -4.457  36.676  1.00  0.00     0.262 C 
HETATM   13  O3  UNK     1      21.242  -3.896  37.158  1.00  0.00    -0.267 OA
HETATM   14  H11 UNK     1      18.410  -4.494  35.719  1.00  0.00     0.169 HD
BRANCH  12  15
HETATM   15  C12 UNK     1      20.191  -5.933  36.717  1.00  0.00     0.108 A 
HETATM   16  C14 UNK     1      20.043  -6.483  37.928  1.00  0.00     0.037 A 
HETATM   17  C15 UNK     1      19.961  -7.929  38.070  1.00  0.00    -0.001 A 
HETATM   18  C17 UNK     1      20.037  -8.723  36.931  1.00  0.00     0.089 A 
HETATM   19  C19 UNK     1      19.806  -8.547  39.314  1.00  0.00     0.014 A 
HETATM   20  O4  UNK     1      20.192  -8.137  35.660  1.00  0.00    -0.274 OA
HETATM   21  C20 UNK     1      19.964 -10.113  36.999  1.00  0.00     0.038 A 
HETATM   22  C16 UNK     1      20.275  -6.758  35.491  1.00  0.00     0.304 A 
HETATM   23  O5  UNK     1      20.411  -6.257  34.380  1.00  0.00    -0.259 OA
HETATM   24  C22 UNK     1      19.811 -10.721  38.243  1.00  0.00     0.003 A 
HETATM   25  C21 UNK     1      19.731  -9.940  39.398  1.00  0.00     0.001 A 
ENDBRANCH  12  15
ENDBRANCH  10  11
BRANCH   9  26
HETATM   26  C10 UNK     1      19.791  -2.211  33.572  1.00  0.00     0.296 C 
HETATM   27  O2  UNK     1      20.756  -2.991  33.553  1.00  0.00    -0.259 OA
BRANCH  26  28
HETATM   28  O1  UNK     1      19.211  -1.731  32.418  1.00  0.00    -0.318 OA
BRANCH  28  29
HETATM   29  C13 UNK     1      19.996  -1.803  31.223  1.00  0.00     0.174 C 
HETATM   30  C18 UNK     1      20.422  -0.404  30.829  1.00  0.00     0.034 C 
ENDBRANCH  28  29
ENDBRANCH  26  28
ENDBRANCH   9  26
TORSDOF 5
ENDMDL
MODEL 5
REMARK VINA RESULT:      -8.5      7.531     11.215
REMARK  5 active torsions:
REMARK  status: ('A' for Active; 'I' for Inactive)
REMARK    1  A    between atoms: C10_17  and  O1_2 
REMARK    2  A    between atoms: C13_20  and  O1_2 
REMARK       I    between atoms: C11_18  and  N1_7 
REMARK    3  A    between atoms: C9_16  and  N1_7 
REMARK    4  A    between atoms: C10_17  and  C8_15 
REMARK    5  A    between atoms: C11_18  and  C12_19 
ROOT
HETATM    1  S1  UNK     1      22.632  -7.603  38.928  1.00  0.00    -0.075 SA
HETATM    2  C1  UNK     1      18.689  -7.246  37.789  1.00  0.00    -0.014 C 
HETATM    3  C2  UNK     1      18.602  -8.648  37.146  1.00  0.00     0.009 C 
HETATM    4  C3  UNK     1      19.868  -7.165  38.786  1.00  0.00     0.051 C 
HETATM    5  C4  UNK     1      19.880  -9.054  36.395  1.00  0.00     0.041 C 
HETATM    6  C5  UNK     1      21.112  -8.711  37.171  1.00  0.00    -0.026 A 
HETATM    7  C6  UNK     1      21.092  -7.835  38.239  1.00  0.00    -0.008 A 
HETATM    8  C7  UNK     1      18.776  -6.141  36.731  1.00  0.00     0.010 C 
HETATM    9  C8  UNK     1      22.432  -9.193  36.919  1.00  0.00     0.080 A 
HETATM   10  C9  UNK     1      23.354  -8.670  37.800  1.00  0.00     0.094 A 
ENDROOT
BRANCH  10  11
HETATM   11  N1  UNK     1      24.704  -8.862  37.918  1.00  0.00    -0.316 N 
HETATM   12  C11 UNK     1      25.656  -7.909  38.301  1.00  0.00     0.262 C 
HETATM   13  O3  UNK     1      25.479  -6.736  38.603  1.00  0.00    -0.267 OA
HETATM   14  H11 UNK     1      25.017  -9.808  37.713  1.00  0.00     0.169 HD
BRANCH  12  15
HETATM   15  C12 UNK     1      27.029  -8.458  38.321  1.00  0.00     0.108 A 
HETATM   16  C14 UNK     1      27.907  -7.883  37.490  1.00  0.00     0.037 A 
HETATM   17  C15 UNK     1      29.282  -8.355  37.437  1.00  0.00    -0.001 A 
HETATM   18  C17 UNK     1      29.665  -9.407  38.262  1.00  0.00     0.089 A 
HETATM   19  C19 UNK     1      30.232  -7.785  36.586  1.00  0.00     0.014 A 
HETATM   20  O4  UNK     1      28.737 -10.006  39.135  1.00  0.00    -0.274 OA
HETATM   21  C20 UNK     1      30.967  -9.904  38.260  1.00  0.00     0.038 A 
HETATM   22  C16 UNK     1      27.414  -9.579  39.207  1.00  0.00     0.304 A 
HETATM   23  O5  UNK     1      26.613 -10.108  39.970  1.00  0.00    -0.259 OA
HETATM   24  C22 UNK     1      31.908  -9.331  37.407  1.00  0.00     0.003 A 
HETATM   25  C21 UNK     1      31.541  -8.273  36.572  1.00  0.00     0.001 A 
ENDBRANCH  12  15
ENDBRANCH  10  11
BRANCH   9  26
HETATM   26  C10 UNK     1      22.800 -10.120  35.878  1.00  0.00     0.296 C 
HETATM   27  O2  UNK     1      22.209 -10.209  34.791  1.00  0.00    -0.259 OA
BRANCH  26  28
HETATM   28  O1  UNK     1      23.881 -10.915  36.193  1.00  0.00    -0.318 OA
BRANCH  28  29
HETATM   29  C13 UNK     1      23.908 -12.226  35.618  1.00  0.00     0.174 C 
HETATM   30  C18 UNK     1      24.872 -13.089  36.404  1.00  0.00     0.034 C 
ENDBRANCH  28  29
ENDBRANCH  26  28
ENDBRANCH   9  26
TORSDOF 5
ENDMDL
MODEL 6
REMARK VINA RESULT:      -8.5      8.684     11.751
REMARK  5 active torsions:
REMARK  status: ('A' for Active; 'I' for Inactive)
REMARK    1  A    between atoms: C10_17  and  O1_2 
REMARK    2  A    between atoms: C13_20  and  O1_2 
REMARK       I    between atoms: C11_18  and  N1_7 
REMARK    3  A    between atoms: C9_16  and  N1_7 
REMARK    4  A    between atoms: C10_17  and  C8_15 
REMARK    5  A    between atoms: C11_18  and  C12_19 
ROOT
HETATM    1  S1  UNK     1      28.387  -9.033  36.481  1.00  0.00    -0.075 SA
HETATM    2  C1  UNK     1      32.450  -9.020  35.801  1.00  0.00    -0.014 C 
HETATM    3  C2  UNK     1      32.819  -8.411  37.172  1.00  0.00     0.009 C 
HETATM    4  C3  UNK     1      31.042  -9.658  35.838  1.00  0.00     0.051 C 
HETATM    5  C4  UNK     1      31.830  -7.335  37.646  1.00  0.00     0.041 C 
HETATM    6  C5  UNK     1      30.410  -7.748  37.419  1.00  0.00    -0.026 A 
HETATM    7  C6  UNK     1      30.070  -8.789  36.578  1.00  0.00    -0.008 A 
HETATM    8  C7  UNK     1      32.567  -7.990  34.673  1.00  0.00     0.010 C 
HETATM    9  C8  UNK     1      29.250  -7.139  37.988  1.00  0.00     0.080 A 
HETATM   10  C9  UNK     1      28.086  -7.740  37.562  1.00  0.00     0.094 A 
ENDROOT
BRANCH  10  11
HETATM   11  N1  UNK     1      26.774  -7.481  37.856  1.00  0.00    -0.316 N 
HETATM   12  C11 UNK     1      25.996  -8.107  38.839  1.00  0.00     0.262 C 
HETATM   13  O3  UNK     1      26.323  -8.993  39.619  1.00  0.00    -0.267 OA
HETATM   14  H11 UNK     1      26.351  -6.744  37.297  1.00  0.00     0.169 HD
BRANCH  12  15
HETATM   15  C12 UNK     1      24.614  -7.583  38.884  1.00  0.00     0.108 A 
HETATM   16  C14 UNK     1      23.641  -8.493  39.002  1.00  0.00     0.037 A 
HETATM   17  C15 UNK     1      22.248  -8.075  39.054  1.00  0.00    -0.001 A 
HETATM   18  C17 UNK     1      21.950  -6.718  38.980  1.00  0.00     0.089 A 
HETATM   19  C19 UNK     1      21.200  -8.990  39.177  1.00  0.00     0.014 A 
HETATM   20  O4  UNK     1      22.979  -5.765  38.857  1.00  0.00    -0.274 OA
HETATM   21  C20 UNK     1      20.637  -6.252  39.026  1.00  0.00     0.038 A 
HETATM   22  C16 UNK     1      24.321  -6.135  38.803  1.00  0.00     0.304 A 
HETATM   23  O5  UNK     1      25.209  -5.297  38.695  1.00  0.00    -0.259 OA
HETATM   24  C22 UNK     1      19.598  -7.172  39.147  1.00  0.00     0.003 A 
HETATM   25  C21 UNK     1      19.879  -8.538  39.224  1.00  0.00     0.001 A 
ENDBRANCH  12  15
ENDBRANCH  10  11
BRANCH   9  26
HETATM   26  C10 UNK     1      29.254  -6.027  38.907  1.00  0.00     0.296 C 
HETATM   27  O2  UNK     1      28.405  -5.863  39.796  1.00  0.00    -0.259 OA
BRANCH  26  28
HETATM   28  O1  UNK     1      30.296  -5.146  38.714  1.00  0.00    -0.318 OA
BRANCH  28  29
HETATM   29  C13 UNK     1      30.051  -4.039  37.838  1.00  0.00     0.174 C 
HETATM   30  C18 UNK     1      31.289  -3.788  37.004  1.00  0.00     0.034 C 
ENDBRANCH  28  29
ENDBRANCH  26  28
ENDBRANCH   9  26
TORSDOF 5
ENDMDL
MODEL 7
REMARK VINA RESULT:      -8.4      4.716      9.563
REMARK  5 active torsions:
REMARK  status: ('A' for Active; 'I' for Inactive)
REMARK    1  A    between atoms: C10_17  and  O1_2 
REMARK    2  A    between atoms: C13_20  and  O1_2 
REMARK       I    between atoms: C11_18  and  N1_7 
REMARK    3  A    between atoms: C9_16  and  N1_7 
REMARK    4  A    between atoms: C10_17  and  C8_15 
REMARK    5  A    between atoms: C11_18  and  C12_19 
ROOT
HETATM    1  S1  UNK     1      18.676   2.666  30.181  1.00  0.00    -0.075 SA
HETATM    2  C1  UNK     1      20.138  -1.103  29.394  1.00  0.00    -0.014 C 
HETATM    3  C2  UNK     1      19.351  -1.799  30.527  1.00  0.00     0.009 C 
HETATM    4  C3  UNK     1      19.493   0.251  29.019  1.00  0.00     0.051 C 
HETATM    5  C4  UNK     1      19.256  -0.955  31.808  1.00  0.00     0.041 C 
HETATM    6  C5  UNK     1      18.941   0.477  31.508  1.00  0.00    -0.026 A 
HETATM    7  C6  UNK     1      19.076   1.012  30.241  1.00  0.00    -0.008 A 
HETATM    8  C7  UNK     1      21.619  -0.937  29.751  1.00  0.00     0.010 C 
HETATM    9  C8  UNK     1      18.502   1.461  32.444  1.00  0.00     0.080 A 
HETATM   10  C9  UNK     1      18.320   2.694  31.856  1.00  0.00     0.094 A 
ENDROOT
BRANCH  10  11
HETATM   11  N1  UNK     1      17.912   3.893  32.375  1.00  0.00    -0.316 N 
HETATM   12  C11 UNK     1      18.536   5.136  32.205  1.00  0.00     0.262 C 
HETATM   13  O3  UNK     1      19.551   5.398  31.571  1.00  0.00    -0.267 OA
HETATM   14  H11 UNK     1      17.057   3.849  32.925  1.00  0.00     0.169 HD
BRANCH  12  15
HETATM   15  C12 UNK     1      17.826   6.225  32.908  1.00  0.00     0.108 A 
HETATM   16  C14 UNK     1      16.610   6.535  32.444  1.00  0.00     0.037 A 
HETATM   17  C15 UNK     1      15.834   7.594  33.070  1.00  0.00    -0.001 A 
HETATM   18  C17 UNK     1      16.377   8.275  34.155  1.00  0.00     0.089 A 
HETATM   19  C19 UNK     1      14.561   7.950  32.619  1.00  0.00     0.014 A 
HETATM   20  O4  UNK     1      17.657   7.943  34.639  1.00  0.00    -0.274 OA
HETATM   21  C20 UNK     1      15.685   9.298  34.800  1.00  0.00     0.038 A 
HETATM   22  C16 UNK     1      18.424   6.936  34.061  1.00  0.00     0.304 A 
HETATM   23  O5  UNK     1      19.538   6.656  34.489  1.00  0.00    -0.259 OA
HETATM   24  C22 UNK     1      14.416   9.648  34.342  1.00  0.00     0.003 A 
HETATM   25  C21 UNK     1      13.855   8.975  33.255  1.00  0.00     0.001 A 
ENDBRANCH  12  15
ENDBRANCH  10  11
BRANCH   9  26
HETATM   26  C10 UNK     1      18.263   1.233  33.848  1.00  0.00     0.296 C 
HETATM   27  O2  UNK     1      19.162   1.027  34.677  1.00  0.00    -0.259 OA
BRANCH  26  28
HETATM   28  O1  UNK     1      16.931   1.263  34.200  1.00  0.00    -0.318 OA
BRANCH  28  29
HETATM   29  C13 UNK     1      16.540   0.458  35.318  1.00  0.00     0.174 C 
HETATM   30  C18 UNK     1      16.252  -0.948  34.837  1.00  0.00     0.034 C 
ENDBRANCH  28  29
ENDBRANCH  26  28
ENDBRANCH   9  26
TORSDOF 5
ENDMDL
MODEL 8
REMARK VINA RESULT:      -8.2      3.396      9.066
REMARK  5 active torsions:
REMARK  status: ('A' for Active; 'I' for Inactive)
REMARK    1  A    between atoms: C10_17  and  O1_2 
REMARK    2  A    between atoms: C13_20  and  O1_2 
REMARK       I    between atoms: C11_18  and  N1_7 
REMARK    3  A    between atoms: C9_16  and  N1_7 
REMARK    4  A    between atoms: C10_17  and  C8_15 
REMARK    5  A    between atoms: C11_18  and  C12_19 
ROOT
HETATM    1  S1  UNK     1      20.077  -6.356  38.696  1.00  0.00    -0.075 SA
HETATM    2  C1  UNK     1      20.483 -10.443  38.998  1.00  0.00    -0.014 C 
HETATM    3  C2  UNK     1      20.936 -10.648  37.535  1.00  0.00     0.009 C 
HETATM    4  C3  UNK     1      20.703  -8.981  39.448  1.00  0.00     0.051 C 
HETATM    5  C4  UNK     1      20.204  -9.736  36.538  1.00  0.00     0.041 C 
HETATM    6  C5  UNK     1      20.088  -8.334  37.050  1.00  0.00    -0.026 A 
HETATM    7  C6  UNK     1      20.295  -8.015  38.378  1.00  0.00    -0.008 A 
HETATM    8  C7  UNK     1      19.029 -10.880  39.207  1.00  0.00     0.010 C 
HETATM    9  C8  UNK     1      19.736  -7.181  36.286  1.00  0.00     0.080 A 
HETATM   10  C9  UNK     1      19.693  -6.040  37.057  1.00  0.00     0.094 A 
ENDROOT
BRANCH  10  11
HETATM   11  N1  UNK     1      19.407  -4.740  36.735  1.00  0.00    -0.316 N 
HETATM   12  C11 UNK     1      20.318  -3.680  36.641  1.00  0.00     0.262 C 
HETATM   13  O3  UNK     1      21.529  -3.699  36.823  1.00  0.00    -0.267 OA
HETATM   14  H11 UNK     1      18.426  -4.559  36.535  1.00  0.00     0.169 HD
BRANCH  12  15
HETATM   15  C12 UNK     1      19.666  -2.406  36.273  1.00  0.00     0.108 A 
HETATM   16  C14 UNK     1      18.958  -1.804  37.236  1.00  0.00     0.037 A 
HETATM   17  C15 UNK     1      18.279  -0.545  36.969  1.00  0.00    -0.001 A 
HETATM   18  C17 UNK     1      18.379   0.018  35.701  1.00  0.00     0.089 A 
HETATM   19  C19 UNK     1      17.530   0.117  37.944  1.00  0.00     0.014 A 
HETATM   20  O4  UNK     1      19.126  -0.620  34.692  1.00  0.00    -0.274 OA
HETATM   21  C20 UNK     1      17.753   1.221  35.382  1.00  0.00     0.038 A 
HETATM   22  C16 UNK     1      19.786  -1.825  34.917  1.00  0.00     0.304 A 
HETATM   23  O5  UNK     1      20.433  -2.373  34.031  1.00  0.00    -0.259 OA
HETATM   24  C22 UNK     1      17.007   1.875  36.360  1.00  0.00     0.003 A 
HETATM   25  C21 UNK     1      16.896   1.325  37.639  1.00  0.00     0.001 A 
ENDBRANCH  12  15
ENDBRANCH  10  11
BRANCH   9  26
HETATM   26  C10 UNK     1      19.453  -7.168  34.872  1.00  0.00     0.296 C 
HETATM   27  O2  UNK     1      20.314  -7.331  33.994  1.00  0.00    -0.259 OA
BRANCH  26  28
HETATM   28  O1  UNK     1      18.126  -6.957  34.569  1.00  0.00    -0.318 OA
BRANCH  28  29
HETATM   29  C13 UNK     1      17.164  -7.704  35.323  1.00  0.00     0.174 C 
HETATM   30  C18 UNK     1      15.849  -6.955  35.323  1.00  0.00     0.034 C 
ENDBRANCH  28  29
ENDBRANCH  26  28
ENDBRANCH   9  26
TORSDOF 5
ENDMDL
MODEL 9
REMARK VINA RESULT:      -8.1      5.127     10.209
REMARK  5 active torsions:
REMARK  status: ('A' for Active; 'I' for Inactive)
REMARK    1  A    between atoms: C10_17  and  O1_2 
REMARK    2  A    between atoms: C13_20  and  O1_2 
REMARK       I    between atoms: C11_18  and  N1_7 
REMARK    3  A    between atoms: C9_16  and  N1_7 
REMARK    4  A    between atoms: C10_17  and  C8_15 
REMARK    5  A    between atoms: C11_18  and  C12_19 
ROOT
HETATM    1  S1  UNK     1      18.647   2.940  30.205  1.00  0.00    -0.075 SA
HETATM    2  C1  UNK     1      20.015  -0.939  29.996  1.00  0.00    -0.014 C 
HETATM    3  C2  UNK     1      19.149  -1.457  31.165  1.00  0.00     0.009 C 
HETATM    4  C3  UNK     1      19.437   0.371  29.414  1.00  0.00     0.051 C 
HETATM    5  C4  UNK     1      19.018  -0.450  32.319  1.00  0.00     0.041 C 
HETATM    6  C5  UNK     1      18.769   0.938  31.818  1.00  0.00    -0.026 A 
HETATM    7  C6  UNK     1      18.986   1.298  30.502  1.00  0.00    -0.008 A 
HETATM    8  C7  UNK     1      21.481  -0.769  30.409  1.00  0.00     0.010 C 
HETATM    9  C8  UNK     1      18.318   2.049  32.593  1.00  0.00     0.080 A 
HETATM   10  C9  UNK     1      18.208   3.198  31.840  1.00  0.00     0.094 A 
ENDROOT
BRANCH  10  11
HETATM   11  N1  UNK     1      17.816   4.466  32.176  1.00  0.00    -0.316 N 
HETATM   12  C11 UNK     1      18.610   5.621  32.160  1.00  0.00     0.262 C 
HETATM   13  O3  UNK     1      19.789   5.729  31.849  1.00  0.00    -0.267 OA
HETATM   14  H11 UNK     1      16.840   4.551  32.447  1.00  0.00     0.169 HD
BRANCH  12  15
HETATM   15  C12 UNK     1      17.865   6.824  32.585  1.00  0.00     0.108 A 
HETATM   16  C14 UNK     1      18.600   7.842  33.047  1.00  0.00     0.037 A 
HETATM   17  C15 UNK     1      17.957   9.070  33.490  1.00  0.00    -0.001 A 
HETATM   18  C17 UNK     1      16.570   9.164  33.424  1.00  0.00     0.089 A 
HETATM   19  C19 UNK     1      18.684  10.157  33.980  1.00  0.00     0.014 A 
HETATM   20  O4  UNK     1      15.802   8.090  32.935  1.00  0.00    -0.274 OA
HETATM   21  C20 UNK     1      15.893  10.313  33.831  1.00  0.00     0.038 A 
HETATM   22  C16 UNK     1      16.389   6.903  32.505  1.00  0.00     0.304 A 
HETATM   23  O5  UNK     1      15.711   5.973  32.083  1.00  0.00    -0.259 OA
HETATM   24  C22 UNK     1      16.627  11.392  34.320  1.00  0.00     0.003 A 
HETATM   25  C21 UNK     1      18.019  11.314  34.392  1.00  0.00     0.001 A 
ENDBRANCH  12  15
ENDBRANCH  10  11
BRANCH   9  26
HETATM   26  C10 UNK     1      18.000   2.015  33.999  1.00  0.00     0.296 C 
HETATM   27  O2  UNK     1      18.673   2.580  34.874  1.00  0.00    -0.259 OA
BRANCH  26  28
HETATM   28  O1  UNK     1      16.867   1.289  34.298  1.00  0.00    -0.318 OA
BRANCH  28  29
HETATM   29  C13 UNK     1      16.967   0.351  35.375  1.00  0.00     0.174 C 
HETATM   30  C18 UNK     1      16.271  -0.933  34.976  1.00  0.00     0.034 C 
ENDBRANCH  28  29
ENDBRANCH  26  28
ENDBRANCH   9  26
TORSDOF 5
ENDMDL
MODEL 10
REMARK VINA RESULT:      -8.1      2.416      8.762
REMARK  5 active torsions:
REMARK  status: ('A' for Active; 'I' for Inactive)
REMARK    1  A    between atoms: C10_17  and  O1_2 
REMARK    2  A    between atoms: C13_20  and  O1_2 
REMARK       I    between atoms: C11_18  and  N1_7 
REMARK    3  A    between atoms: C9_16  and  N1_7 
REMARK    4  A    between atoms: C10_17  and  C8_15 
REMARK    5  A    between atoms: C11_18  and  C12_19 
ROOT
HETATM    1  S1  UNK     1      20.732  -4.506  37.344  1.00  0.00    -0.075 SA
HETATM    2  C1  UNK     1      21.081  -7.958  39.564  1.00  0.00    -0.014 C 
HETATM    3  C2  UNK     1      21.507  -8.848  38.374  1.00  0.00     0.009 C 
HETATM    4  C3  UNK     1      21.331  -6.464  39.257  1.00  0.00     0.051 C 
HETATM    5  C4  UNK     1      20.771  -8.508  37.068  1.00  0.00     0.041 C 
HETATM    6  C5  UNK     1      20.685  -7.031  36.847  1.00  0.00    -0.026 A 
HETATM    7  C6  UNK     1      20.920  -6.119  37.858  1.00  0.00    -0.008 A 
HETATM    8  C7  UNK     1      19.625  -8.210  39.967  1.00  0.00     0.010 C 
HETATM    9  C8  UNK     1      20.337  -6.376  35.627  1.00  0.00     0.080 A 
HETATM   10  C9  UNK     1      20.326  -5.004  35.757  1.00  0.00     0.094 A 
ENDROOT
BRANCH  10  11
HETATM   11  N1  UNK     1      20.054  -4.011  34.855  1.00  0.00    -0.316 N 
HETATM   12  C11 UNK     1      20.604  -2.723  34.835  1.00  0.00     0.262 C 
HETATM   13  O3  UNK     1      21.422  -2.233  35.604  1.00  0.00    -0.267 OA
HETATM   14  H11 UNK     1      19.392  -4.269  34.127  1.00  0.00     0.169 HD
BRANCH  12  15
HETATM   15  C12 UNK     1      20.086  -1.905  33.719  1.00  0.00     0.108 A 
HETATM   16  C14 UNK     1      20.745  -2.002  32.559  1.00  0.00     0.037 A 
HETATM   17  C15 UNK     1      20.311  -1.234  31.402  1.00  0.00    -0.001 A 
HETATM   18  C17 UNK     1      19.203  -0.402  31.524  1.00  0.00     0.089 A 
HETATM   19  C19 UNK     1      20.969  -1.305  30.172  1.00  0.00     0.014 A 
HETATM   20  O4  UNK     1      18.513  -0.304  32.748  1.00  0.00    -0.274 OA
HETATM   21  C20 UNK     1      18.736   0.359  30.454  1.00  0.00     0.038 A 
HETATM   22  C16 UNK     1      18.905  -1.025  33.872  1.00  0.00     0.304 A 
HETATM   23  O5  UNK     1      18.298  -0.932  34.933  1.00  0.00    -0.259 OA
HETATM   24  C22 UNK     1      19.399   0.284  29.231  1.00  0.00     0.003 A 
HETATM   25  C21 UNK     1      20.512  -0.548  29.090  1.00  0.00     0.001 A 
ENDBRANCH  12  15
ENDBRANCH  10  11
BRANCH   9  26
HETATM   26  C10 UNK     1      20.031  -7.035  34.381  1.00  0.00     0.296 C 
HETATM   27  O2  UNK     1      20.869  -7.263  33.496  1.00  0.00    -0.259 OA
BRANCH  26  28
HETATM   28  O1  UNK     1      18.708  -7.398  34.252  1.00  0.00    -0.318 OA
BRANCH  28  29
HETATM   29  C13 UNK     1      17.877  -7.233  35.406  1.00  0.00     0.174 C 
HETATM   30  C18 UNK     1      16.434  -7.462  35.011  1.00  0.00     0.034 C 
ENDBRANCH  28  29
ENDBRANCH  26  28
ENDBRANCH   9  26
TORSDOF 5
ENDMDL
