MODEL 1
REMARK VINA RESULT:      -7.5      0.000      0.000
REMARK  6 active torsions:
REMARK  status: ('A' for Active; 'I' for Inactive)
REMARK    1  A    between atoms: C2_6  and  O1_1 
REMARK    2  A    between atoms: C3_7  and  O2_2 
REMARK    3  A    between atoms: C4_8  and  O3_3 
REMARK    4  A    between atoms: C1_5  and  C7_11 
REMARK    5  A    between atoms: C7_11  and  C8_12 
REMARK    6  A    between atoms: C10_14  and  C9_13 
ROOT
HETATM    1  C1  UNK     1      18.539   2.446  31.720  1.00  0.00     0.081 A 
HETATM    2  C2  UNK     1      18.453   1.924  33.011  1.00  0.00     0.087 A 
HETATM    3  C3  UNK     1      18.883   1.615  30.654  1.00  0.00     0.087 A 
HETATM    4  C4  UNK     1      19.055  -0.259  32.169  1.00  0.00     0.073 A 
HETATM    5  C5  UNK     1      18.711   0.572  33.236  1.00  0.00     0.074 A 
HETATM    6  C6  UNK     1      19.141   0.263  30.879  1.00  0.00     0.074 A 
ENDROOT
BRANCH   1   7
HETATM    7  C7  UNK     1      18.264   3.883  31.480  1.00  0.00     0.187 C 
HETATM    8  O4  UNK     1      17.241   4.389  31.927  1.00  0.00    -0.287 OA
BRANCH   7   9
HETATM    9  C8  UNK     1      19.250   4.648  30.667  1.00  0.00     0.056 C 
HETATM   10  C10 UNK     1      19.620   5.895  31.038  1.00  0.00     0.015 C 
BRANCH  10  11
HETATM   11  C9  UNK     1      19.128   6.601  32.210  1.00  0.00    -0.036 A 
HETATM   12  C11 UNK     1      18.013   7.433  32.107  1.00  0.00     0.011 A 
HETATM   13  C15 UNK     1      17.542   8.112  33.231  1.00  0.00     0.001 A 
HETATM   14  C17 UNK     1      18.186   7.957  34.458  1.00  0.00     0.000 A 
HETATM   15  C16 UNK     1      19.301   7.125  34.562  1.00  0.00     0.001 A 
HETATM   16  C12 UNK     1      19.772   6.447  33.438  1.00  0.00     0.011 A 
ENDBRANCH  10  11
ENDBRANCH   7   9
ENDBRANCH   1   7
BRANCH   2  17
HETATM   17  O1  UNK     1      18.117   2.719  34.067  1.00  0.00    -0.355 OA
HETATM   18  C13 UNK     1      18.434   2.232  35.368  1.00  0.00     0.210 C 
ENDBRANCH   2  17
BRANCH   3  19
HETATM   19  O2  UNK     1      18.974   2.102  29.384  1.00  0.00    -0.355 OA
HETATM   20  C14 UNK     1      17.871   1.852  28.515  1.00  0.00     0.210 C 
ENDBRANCH   3  19
BRANCH   4  21
HETATM   21  O3  UNK     1      19.305  -1.578  32.389  1.00  0.00    -0.356 OA
HETATM   22  C18 UNK     1      20.537  -2.098  31.890  1.00  0.00     0.210 C 
ENDBRANCH   4  21
TORSDOF 6
ENDMDL
MODEL 2
REMARK VINA RESULT:      -7.5      0.028      2.921
REMARK  6 active torsions:
REMARK  status: ('A' for Active; 'I' for Inactive)
REMARK    1  A    between atoms: C2_6  and  O1_1 
REMARK    2  A    between atoms: C3_7  and  O2_2 
REMARK    3  A    between atoms: C4_8  and  O3_3 
REMARK    4  A    between atoms: C1_5  and  C7_11 
REMARK    5  A    between atoms: C7_11  and  C8_12 
REMARK    6  A    between atoms: C10_14  and  C9_13 
ROOT
HETATM    1  C1  UNK     1      18.547   2.454  31.717  1.00  0.00     0.081 A 
HETATM    2  C2  UNK     1      18.896   1.621  30.654  1.00  0.00     0.087 A 
HETATM    3  C3  UNK     1      18.457   1.936  33.009  1.00  0.00     0.087 A 
HETATM    4  C4  UNK     1      19.065  -0.249  32.175  1.00  0.00     0.073 A 
HETATM    5  C5  UNK     1      19.155   0.269  30.883  1.00  0.00     0.074 A 
HETATM    6  C6  UNK     1      18.716   0.584  33.237  1.00  0.00     0.074 A 
ENDROOT
BRANCH   1   7
HETATM    7  C7  UNK     1      18.272   3.891  31.474  1.00  0.00     0.187 C 
HETATM    8  O4  UNK     1      17.243   4.394  31.908  1.00  0.00    -0.287 OA
BRANCH   7   9
HETATM    9  C8  UNK     1      19.267   4.658  30.674  1.00  0.00     0.056 C 
HETATM   10  C10 UNK     1      19.636   5.902  31.055  1.00  0.00     0.015 C 
BRANCH  10  11
HETATM   11  C9  UNK     1      19.135   6.603  32.226  1.00  0.00    -0.036 A 
HETATM   12  C11 UNK     1      19.763   6.436  33.460  1.00  0.00     0.011 A 
HETATM   13  C15 UNK     1      19.282   7.107  34.585  1.00  0.00     0.001 A 
HETATM   14  C17 UNK     1      18.174   7.947  34.474  1.00  0.00     0.000 A 
HETATM   15  C16 UNK     1      17.547   8.114  33.239  1.00  0.00     0.001 A 
HETATM   16  C12 UNK     1      18.027   7.443  32.116  1.00  0.00     0.011 A 
ENDBRANCH  10  11
ENDBRANCH   7   9
ENDBRANCH   1   7
BRANCH   2  17
HETATM   17  O1  UNK     1      18.990   2.107  29.384  1.00  0.00    -0.355 OA
HETATM   18  C13 UNK     1      17.890   1.855  28.512  1.00  0.00     0.210 C 
ENDBRANCH   2  17
BRANCH   3  19
HETATM   19  O2  UNK     1      18.119   2.731  34.062  1.00  0.00    -0.355 OA
HETATM   20  C14 UNK     1      18.475   2.269  35.364  1.00  0.00     0.210 C 
ENDBRANCH   3  19
BRANCH   4  21
HETATM   21  O3  UNK     1      19.319  -1.567  32.398  1.00  0.00    -0.356 OA
HETATM   22  C18 UNK     1      20.502  -2.109  31.812  1.00  0.00     0.210 C 
ENDBRANCH   4  21
TORSDOF 6
ENDMDL
MODEL 3
REMARK VINA RESULT:      -7.5     22.530     25.225
REMARK  6 active torsions:
REMARK  status: ('A' for Active; 'I' for Inactive)
REMARK    1  A    between atoms: C2_6  and  O1_1 
REMARK    2  A    between atoms: C3_7  and  O2_2 
REMARK    3  A    between atoms: C4_8  and  O3_3 
REMARK    4  A    between atoms: C1_5  and  C7_11 
REMARK    5  A    between atoms: C7_11  and  C8_12 
REMARK    6  A    between atoms: C10_14  and  C9_13 
ROOT
HETATM    1  C1  UNK     1      14.085   7.765   9.466  1.00  0.00     0.081 A 
HETATM    2  C2  UNK     1      15.425   7.942   9.811  1.00  0.00     0.087 A 
HETATM    3  C3  UNK     1      13.381   8.800   8.850  1.00  0.00     0.087 A 
HETATM    4  C4  UNK     1      15.357  10.189   8.924  1.00  0.00     0.073 A 
HETATM    5  C5  UNK     1      16.061   9.153   9.541  1.00  0.00     0.074 A 
HETATM    6  C6  UNK     1      14.017  10.011   8.579  1.00  0.00     0.074 A 
ENDROOT
BRANCH   1   7
HETATM    7  C7  UNK     1      13.408   6.477   9.752  1.00  0.00     0.187 C 
HETATM    8  O4  UNK     1      12.580   6.413  10.653  1.00  0.00    -0.287 OA
BRANCH   7   9
HETATM    9  C8  UNK     1      13.800   5.294   8.935  1.00  0.00     0.056 C 
HETATM   10  C10 UNK     1      13.005   4.868   7.928  1.00  0.00     0.015 C 
BRANCH  10  11
HETATM   11  C9  UNK     1      11.742   5.476   7.541  1.00  0.00    -0.036 A 
HETATM   12  C11 UNK     1      10.642   5.404   8.395  1.00  0.00     0.011 A 
HETATM   13  C15 UNK     1       9.430   5.986   8.024  1.00  0.00     0.001 A 
HETATM   14  C17 UNK     1       9.320   6.643   6.799  1.00  0.00     0.000 A 
HETATM   15  C16 UNK     1      10.420   6.716   5.945  1.00  0.00     0.001 A 
HETATM   16  C12 UNK     1      11.631   6.133   6.315  1.00  0.00     0.011 A 
ENDBRANCH  10  11
ENDBRANCH   7   9
ENDBRANCH   1   7
BRANCH   2  17
HETATM   17  O1  UNK     1      16.131   6.943  10.413  1.00  0.00    -0.355 OA
HETATM   18  C13 UNK     1      17.548   6.971  10.260  1.00  0.00     0.210 C 
ENDBRANCH   2  17
BRANCH   3  19
HETATM   19  O2  UNK     1      12.072   8.649   8.503  1.00  0.00    -0.355 OA
HETATM   20  C14 UNK     1      11.102   9.255   9.356  1.00  0.00     0.210 C 
ENDBRANCH   3  19
BRANCH   4  21
HETATM   21  O3  UNK     1      15.978  11.370   8.659  1.00  0.00    -0.356 OA
HETATM   22  C18 UNK     1      15.721  11.968   7.390  1.00  0.00     0.210 C 
ENDBRANCH   4  21
TORSDOF 6
ENDMDL
MODEL 4
REMARK VINA RESULT:      -7.4     22.851     25.257
REMARK  6 active torsions:
REMARK  status: ('A' for Active; 'I' for Inactive)
REMARK    1  A    between atoms: C2_6  and  O1_1 
REMARK    2  A    between atoms: C3_7  and  O2_2 
REMARK    3  A    between atoms: C4_8  and  O3_3 
REMARK    4  A    between atoms: C1_5  and  C7_11 
REMARK    5  A    between atoms: C7_11  and  C8_12 
REMARK    6  A    between atoms: C10_14  and  C9_13 
ROOT
HETATM    1  C1  UNK     1      14.213   7.759   9.419  1.00  0.00     0.081 A 
HETATM    2  C2  UNK     1      13.543   8.800   8.776  1.00  0.00     0.087 A 
HETATM    3  C3  UNK     1      15.557   7.902   9.763  1.00  0.00     0.087 A 
HETATM    4  C4  UNK     1      15.563  10.127   8.821  1.00  0.00     0.073 A 
HETATM    5  C5  UNK     1      14.218   9.984   8.477  1.00  0.00     0.074 A 
HETATM    6  C6  UNK     1      16.232   9.086   9.464  1.00  0.00     0.074 A 
ENDROOT
BRANCH   1   7
HETATM    7  C7  UNK     1      13.497   6.501   9.738  1.00  0.00     0.187 C 
HETATM    8  O4  UNK     1      12.662   6.488  10.636  1.00  0.00    -0.287 OA
BRANCH   7   9
HETATM    9  C8  UNK     1      13.856   5.284   8.957  1.00  0.00     0.056 C 
HETATM   10  C10 UNK     1      13.046   4.845   7.968  1.00  0.00     0.015 C 
BRANCH  10  11
HETATM   11  C9  UNK     1      11.796   5.470   7.568  1.00  0.00    -0.036 A 
HETATM   12  C11 UNK     1      11.709   6.136   6.345  1.00  0.00     0.011 A 
HETATM   13  C15 UNK     1      10.510   6.737   5.961  1.00  0.00     0.001 A 
HETATM   14  C17 UNK     1       9.398   6.671   6.800  1.00  0.00     0.000 A 
HETATM   15  C16 UNK     1       9.485   6.006   8.023  1.00  0.00     0.001 A 
HETATM   16  C12 UNK     1      10.683   5.405   8.407  1.00  0.00     0.011 A 
ENDBRANCH  10  11
ENDBRANCH   7   9
ENDBRANCH   1   7
BRANCH   2  17
HETATM   17  O1  UNK     1      12.230   8.682   8.432  1.00  0.00    -0.355 OA
HETATM   18  C13 UNK     1      11.276   9.275   9.309  1.00  0.00     0.210 C 
ENDBRANCH   2  17
BRANCH   3  19
HETATM   19  O2  UNK     1      16.232   6.899  10.392  1.00  0.00    -0.355 OA
HETATM   20  C14 UNK     1      17.454   6.467   9.797  1.00  0.00     0.210 C 
ENDBRANCH   3  19
BRANCH   4  21
HETATM   21  O3  UNK     1      16.220  11.282   8.530  1.00  0.00    -0.356 OA
HETATM   22  C18 UNK     1      15.692  12.081   7.472  1.00  0.00     0.210 C 
ENDBRANCH   4  21
TORSDOF 6
ENDMDL
MODEL 5
REMARK VINA RESULT:      -7.4     21.107     24.700
REMARK  6 active torsions:
REMARK  status: ('A' for Active; 'I' for Inactive)
REMARK    1  A    between atoms: C2_6  and  O1_1 
REMARK    2  A    between atoms: C3_7  and  O2_2 
REMARK    3  A    between atoms: C4_8  and  O3_3 
REMARK    4  A    between atoms: C1_5  and  C7_11 
REMARK    5  A    between atoms: C7_11  and  C8_12 
REMARK    6  A    between atoms: C10_14  and  C9_13 
ROOT
HETATM    1  C1  UNK     1      13.822   7.731   9.369  1.00  0.00     0.081 A 
HETATM    2  C2  UNK     1      12.753   8.530   9.774  1.00  0.00     0.087 A 
HETATM    3  C3  UNK     1      14.979   7.667  10.146  1.00  0.00     0.087 A 
HETATM    4  C4  UNK     1      13.998   9.202  11.734  1.00  0.00     0.073 A 
HETATM    5  C5  UNK     1      12.841   9.265  10.956  1.00  0.00     0.074 A 
HETATM    6  C6  UNK     1      15.066   8.403  11.328  1.00  0.00     0.074 A 
ENDROOT
BRANCH   1   7
HETATM    7  C7  UNK     1      13.728   6.948   8.113  1.00  0.00     0.187 C 
HETATM    8  O4  UNK     1      13.669   7.531   7.036  1.00  0.00    -0.287 OA
BRANCH   7   9
HETATM    9  C8  UNK     1      13.680   5.463   8.227  1.00  0.00     0.056 C 
HETATM   10  C10 UNK     1      12.510   4.805   8.064  1.00  0.00     0.015 C 
BRANCH  10  11
HETATM   11  C9  UNK     1      11.229   5.429   7.774  1.00  0.00    -0.036 A 
HETATM   12  C11 UNK     1      10.293   5.605   8.793  1.00  0.00     0.011 A 
HETATM   13  C15 UNK     1       9.063   6.203   8.516  1.00  0.00     0.001 A 
HETATM   14  C17 UNK     1       8.772   6.627   7.219  1.00  0.00     0.000 A 
HETATM   15  C16 UNK     1       9.708   6.451   6.201  1.00  0.00     0.001 A 
HETATM   16  C12 UNK     1      10.937   5.852   6.478  1.00  0.00     0.011 A 
ENDBRANCH  10  11
ENDBRANCH   7   9
ENDBRANCH   1   7
BRANCH   2  17
HETATM   17  O1  UNK     1      11.613   8.606   9.031  1.00  0.00    -0.355 OA
HETATM   18  C13 UNK     1      10.544   9.384   9.564  1.00  0.00     0.210 C 
ENDBRANCH   2  17
BRANCH   3  19
HETATM   19  O2  UNK     1      16.035   6.893   9.769  1.00  0.00    -0.355 OA
HETATM   20  C14 UNK     1      17.337   7.359  10.119  1.00  0.00     0.210 C 
ENDBRANCH   3  19
BRANCH   4  21
HETATM   21  O3  UNK     1      14.083   9.918  12.887  1.00  0.00    -0.356 OA
HETATM   22  C18 UNK     1      12.856  10.284  13.516  1.00  0.00     0.210 C 
ENDBRANCH   4  21
TORSDOF 6
ENDMDL
MODEL 6
REMARK VINA RESULT:      -7.3     12.714     15.031
REMARK  6 active torsions:
REMARK  status: ('A' for Active; 'I' for Inactive)
REMARK    1  A    between atoms: C2_6  and  O1_1 
REMARK    2  A    between atoms: C3_7  and  O2_2 
REMARK    3  A    between atoms: C4_8  and  O3_3 
REMARK    4  A    between atoms: C1_5  and  C7_11 
REMARK    5  A    between atoms: C7_11  and  C8_12 
REMARK    6  A    between atoms: C10_14  and  C9_13 
ROOT
HETATM    1  C1  UNK     1      23.531  -9.943  36.427  1.00  0.00     0.081 A 
HETATM    2  C2  UNK     1      23.942  -8.872  37.221  1.00  0.00     0.087 A 
HETATM    3  C3  UNK     1      24.437 -10.949  36.089  1.00  0.00     0.087 A 
HETATM    4  C4  UNK     1      26.165  -9.814  37.340  1.00  0.00     0.073 A 
HETATM    5  C5  UNK     1      25.259  -8.807  37.677  1.00  0.00     0.074 A 
HETATM    6  C6  UNK     1      25.753 -10.884  36.546  1.00  0.00     0.074 A 
ENDROOT
BRANCH   1   7
HETATM    7  C7  UNK     1      22.132 -10.014  35.942  1.00  0.00     0.187 C 
HETATM    8  O4  UNK     1      21.718  -9.169  35.156  1.00  0.00    -0.287 OA
BRANCH   7   9
HETATM    9  C8  UNK     1      21.273 -11.111  36.469  1.00  0.00     0.056 C 
HETATM   10  C10 UNK     1      20.292 -10.842  37.360  1.00  0.00     0.015 C 
BRANCH  10  11
HETATM   11  C9  UNK     1      19.974  -9.524  37.885  1.00  0.00    -0.036 A 
HETATM   12  C11 UNK     1      20.440  -9.143  39.143  1.00  0.00     0.011 A 
HETATM   13  C15 UNK     1      20.134  -7.878  39.647  1.00  0.00     0.001 A 
HETATM   14  C17 UNK     1      19.364  -6.995  38.891  1.00  0.00     0.000 A 
HETATM   15  C16 UNK     1      18.898  -7.376  37.633  1.00  0.00     0.001 A 
HETATM   16  C12 UNK     1      19.203  -8.640  37.129  1.00  0.00     0.011 A 
ENDBRANCH  10  11
ENDBRANCH   7   9
ENDBRANCH   1   7
BRANCH   2  17
HETATM   17  O1  UNK     1      23.073  -7.880  37.563  1.00  0.00    -0.355 OA
HETATM   18  C13 UNK     1      23.398  -7.104  38.714  1.00  0.00     0.210 C 
ENDBRANCH   2  17
BRANCH   3  19
HETATM   19  O2  UNK     1      24.057 -12.005  35.315  1.00  0.00    -0.355 OA
HETATM   20  C14 UNK     1      24.500 -13.298  35.722  1.00  0.00     0.210 C 
ENDBRANCH   3  19
BRANCH   4  21
HETATM   21  O3  UNK     1      27.448  -9.751  37.786  1.00  0.00    -0.356 OA
HETATM   22  C18 UNK     1      27.667 -10.003  39.173  1.00  0.00     0.210 C 
ENDBRANCH   4  21
TORSDOF 6
ENDMDL
MODEL 7
REMARK VINA RESULT:      -7.3     21.160     24.661
REMARK  6 active torsions:
REMARK  status: ('A' for Active; 'I' for Inactive)
REMARK    1  A    between atoms: C2_6  and  O1_1 
REMARK    2  A    between atoms: C3_7  and  O2_2 
REMARK    3  A    between atoms: C4_8  and  O3_3 
REMARK    4  A    between atoms: C1_5  and  C7_11 
REMARK    5  A    between atoms: C7_11  and  C8_12 
REMARK    6  A    between atoms: C10_14  and  C9_13 
ROOT
HETATM    1  C1  UNK     1      13.832   7.765   9.508  1.00  0.00     0.081 A 
HETATM    2  C2  UNK     1      14.968   7.714  10.317  1.00  0.00     0.087 A 
HETATM    3  C3  UNK     1      12.746   8.557   9.881  1.00  0.00     0.087 A 
HETATM    4  C4  UNK     1      13.930   9.247  11.871  1.00  0.00     0.073 A 
HETATM    5  C5  UNK     1      15.017   8.454  11.498  1.00  0.00     0.074 A 
HETATM    6  C6  UNK     1      12.795   9.298  11.062  1.00  0.00     0.074 A 
ENDROOT
BRANCH   1   7
HETATM    7  C7  UNK     1      13.779   6.979   8.252  1.00  0.00     0.187 C 
HETATM    8  O4  UNK     1      13.754   7.559   7.173  1.00  0.00    -0.287 OA
BRANCH   7   9
HETATM    9  C8  UNK     1      13.727   5.494   8.369  1.00  0.00     0.056 C 
HETATM   10  C10 UNK     1      12.580   4.829   8.105  1.00  0.00     0.015 C 
BRANCH  10  11
HETATM   11  C9  UNK     1      11.327   5.446   7.698  1.00  0.00    -0.036 A 
HETATM   12  C11 UNK     1      11.150   5.859   6.378  1.00  0.00     0.011 A 
HETATM   13  C15 UNK     1       9.949   6.453   5.987  1.00  0.00     0.001 A 
HETATM   14  C17 UNK     1       8.925   6.630   6.918  1.00  0.00     0.000 A 
HETATM   15  C16 UNK     1       9.103   6.217   8.238  1.00  0.00     0.001 A 
HETATM   16  C12 UNK     1      10.303   5.625   8.628  1.00  0.00     0.011 A 
ENDBRANCH  10  11
ENDBRANCH   7   9
ENDBRANCH   1   7
BRANCH   2  17
HETATM   17  O1  UNK     1      16.040   6.947   9.971  1.00  0.00    -0.355 OA
HETATM   18  C13 UNK     1      17.333   7.482  10.244  1.00  0.00     0.210 C 
ENDBRANCH   2  17
BRANCH   3  19
HETATM   19  O2  UNK     1      11.626   8.623   9.107  1.00  0.00    -0.355 OA
HETATM   20  C14 UNK     1      10.496   9.297   9.657  1.00  0.00     0.210 C 
ENDBRANCH   3  19
BRANCH   4  21
HETATM   21  O3  UNK     1      13.980   9.970  13.022  1.00  0.00    -0.356 OA
HETATM   22  C18 UNK     1      12.748  10.499  13.511  1.00  0.00     0.210 C 
ENDBRANCH   4  21
TORSDOF 6
ENDMDL
MODEL 8
REMARK VINA RESULT:      -7.3      4.061      8.633
REMARK  6 active torsions:
REMARK  status: ('A' for Active; 'I' for Inactive)
REMARK    1  A    between atoms: C2_6  and  O1_1 
REMARK    2  A    between atoms: C3_7  and  O2_2 
REMARK    3  A    between atoms: C4_8  and  O3_3 
REMARK    4  A    between atoms: C1_5  and  C7_11 
REMARK    5  A    between atoms: C7_11  and  C8_12 
REMARK    6  A    between atoms: C10_14  and  C9_13 
ROOT
HETATM    1  C1  UNK     1      16.750   9.599  34.024  1.00  0.00     0.081 A 
HETATM    2  C2  UNK     1      16.983  10.970  34.132  1.00  0.00     0.087 A 
HETATM    3  C3  UNK     1      15.522   9.067  34.418  1.00  0.00     0.087 A 
HETATM    4  C4  UNK     1      14.760  11.278  35.027  1.00  0.00     0.073 A 
HETATM    5  C5  UNK     1      15.989  11.810  34.633  1.00  0.00     0.074 A 
HETATM    6  C6  UNK     1      14.527   9.907  34.919  1.00  0.00     0.074 A 
ENDROOT
BRANCH   1   7
HETATM    7  C7  UNK     1      17.806   8.705  33.491  1.00  0.00     0.187 C 
HETATM    8  O4  UNK     1      17.796   8.392  32.306  1.00  0.00    -0.287 OA
BRANCH   7   9
HETATM    9  C8  UNK     1      18.830   8.199  34.448  1.00  0.00     0.056 C 
HETATM   10  C10 UNK     1      19.471   7.033  34.207  1.00  0.00     0.015 C 
BRANCH  10  11
HETATM   11  C9  UNK     1      19.252   6.179  33.051  1.00  0.00    -0.036 A 
HETATM   12  C11 UNK     1      20.069   6.302  31.927  1.00  0.00     0.011 A 
HETATM   13  C15 UNK     1      19.858   5.484  30.817  1.00  0.00     0.001 A 
HETATM   14  C17 UNK     1      18.831   4.541  30.832  1.00  0.00     0.000 A 
HETATM   15  C16 UNK     1      18.013   4.418  31.956  1.00  0.00     0.001 A 
HETATM   16  C12 UNK     1      18.224   5.236  33.065  1.00  0.00     0.011 A 
ENDBRANCH  10  11
ENDBRANCH   7   9
ENDBRANCH   1   7
BRANCH   2  17
HETATM   17  O1  UNK     1      18.176  11.509  33.752  1.00  0.00    -0.355 OA
HETATM   18  C13 UNK     1      18.251  12.932  33.688  1.00  0.00     0.210 C 
ENDBRANCH   2  17
BRANCH   3  19
HETATM   19  O2  UNK     1      15.272   7.731  34.322  1.00  0.00    -0.355 OA
HETATM   20  C14 UNK     1      14.267   7.325  33.395  1.00  0.00     0.210 C 
ENDBRANCH   3  19
BRANCH   4  21
HETATM   21  O3  UNK     1      13.790  12.098  35.514  1.00  0.00    -0.356 OA
HETATM   22  C18 UNK     1      12.624  12.274  34.711  1.00  0.00     0.210 C 
ENDBRANCH   4  21
TORSDOF 6
ENDMDL
MODEL 9
REMARK VINA RESULT:      -7.3      4.060      8.648
REMARK  6 active torsions:
REMARK  status: ('A' for Active; 'I' for Inactive)
REMARK    1  A    between atoms: C2_6  and  O1_1 
REMARK    2  A    between atoms: C3_7  and  O2_2 
REMARK    3  A    between atoms: C4_8  and  O3_3 
REMARK    4  A    between atoms: C1_5  and  C7_11 
REMARK    5  A    between atoms: C7_11  and  C8_12 
REMARK    6  A    between atoms: C10_14  and  C9_13 
ROOT
HETATM    1  C1  UNK     1      16.752   9.598  34.035  1.00  0.00     0.081 A 
HETATM    2  C2  UNK     1      15.516   9.075  34.415  1.00  0.00     0.087 A 
HETATM    3  C3  UNK     1      16.997  10.966  34.153  1.00  0.00     0.087 A 
HETATM    4  C4  UNK     1      14.769  11.289  35.032  1.00  0.00     0.073 A 
HETATM    5  C5  UNK     1      14.525   9.920  34.914  1.00  0.00     0.074 A 
HETATM    6  C6  UNK     1      16.005  11.811  34.651  1.00  0.00     0.074 A 
ENDROOT
BRANCH   1   7
HETATM    7  C7  UNK     1      17.807   8.700  33.505  1.00  0.00     0.187 C 
HETATM    8  O4  UNK     1      17.799   8.385  32.321  1.00  0.00    -0.287 OA
BRANCH   7   9
HETATM    9  C8  UNK     1      18.826   8.190  34.465  1.00  0.00     0.056 C 
HETATM   10  C10 UNK     1      19.469   7.026  34.223  1.00  0.00     0.015 C 
BRANCH  10  11
HETATM   11  C9  UNK     1      19.257   6.176  33.062  1.00  0.00    -0.036 A 
HETATM   12  C11 UNK     1      20.076   6.311  31.941  1.00  0.00     0.011 A 
HETATM   13  C15 UNK     1      19.872   5.497  30.826  1.00  0.00     0.001 A 
HETATM   14  C17 UNK     1      18.850   4.548  30.835  1.00  0.00     0.000 A 
HETATM   15  C16 UNK     1      18.032   4.413  31.956  1.00  0.00     0.001 A 
HETATM   16  C12 UNK     1      18.235   5.227  33.069  1.00  0.00     0.011 A 
ENDBRANCH  10  11
ENDBRANCH   7   9
ENDBRANCH   1   7
BRANCH   2  17
HETATM   17  O1  UNK     1      15.256   7.741  34.309  1.00  0.00    -0.355 OA
HETATM   18  C13 UNK     1      14.266   7.349  33.361  1.00  0.00     0.210 C 
ENDBRANCH   2  17
BRANCH   3  19
HETATM   19  O2  UNK     1      18.197  11.498  33.788  1.00  0.00    -0.355 OA
HETATM   20  C14 UNK     1      18.270  12.919  33.683  1.00  0.00     0.210 C 
ENDBRANCH   3  19
BRANCH   4  21
HETATM   21  O3  UNK     1      13.803  12.113  35.520  1.00  0.00    -0.356 OA
HETATM   22  C18 UNK     1      12.638  12.295  34.715  1.00  0.00     0.210 C 
ENDBRANCH   4  21
TORSDOF 6
ENDMDL
MODEL 10
REMARK VINA RESULT:      -7.2     22.373     24.282
REMARK  6 active torsions:
REMARK  status: ('A' for Active; 'I' for Inactive)
REMARK    1  A    between atoms: C2_6  and  O1_1 
REMARK    2  A    between atoms: C3_7  and  O2_2 
REMARK    3  A    between atoms: C4_8  and  O3_3 
REMARK    4  A    between atoms: C1_5  and  C7_11 
REMARK    5  A    between atoms: C7_11  and  C8_12 
REMARK    6  A    between atoms: C10_14  and  C9_13 
ROOT
HETATM    1  C1  UNK     1      14.404   7.441   9.387  1.00  0.00     0.081 A 
HETATM    2  C2  UNK     1      14.632   6.245   8.706  1.00  0.00     0.087 A 
HETATM    3  C3  UNK     1      13.384   8.297   8.972  1.00  0.00     0.087 A 
HETATM    4  C4  UNK     1      12.818   6.762   7.194  1.00  0.00     0.073 A 
HETATM    5  C5  UNK     1      13.839   5.906   7.610  1.00  0.00     0.074 A 
HETATM    6  C6  UNK     1      12.591   7.957   7.876  1.00  0.00     0.074 A 
ENDROOT
BRANCH   1   7
HETATM    7  C7  UNK     1      15.246   7.803  10.553  1.00  0.00     0.187 C 
HETATM    8  O4  UNK     1      14.722   7.989  11.646  1.00  0.00    -0.287 OA
BRANCH   7   9
HETATM    9  C8  UNK     1      16.710   7.954  10.328  1.00  0.00     0.056 C 
HETATM   10  C10 UNK     1      17.222   9.145   9.943  1.00  0.00     0.015 C 
BRANCH  10  11
HETATM   11  C9  UNK     1      16.449  10.356   9.716  1.00  0.00    -0.036 A 
HETATM   12  C11 UNK     1      16.043  11.137  10.798  1.00  0.00     0.011 A 
HETATM   13  C15 UNK     1      15.300  12.298  10.581  1.00  0.00     0.001 A 
HETATM   14  C17 UNK     1      14.965  12.677   9.281  1.00  0.00     0.000 A 
HETATM   15  C16 UNK     1      15.370  11.896   8.200  1.00  0.00     0.001 A 
HETATM   16  C12 UNK     1      16.112  10.735   8.417  1.00  0.00     0.011 A 
ENDBRANCH  10  11
ENDBRANCH   7   9
ENDBRANCH   1   7
BRANCH   2  17
HETATM   17  O1  UNK     1      15.622   5.395   9.096  1.00  0.00    -0.355 OA
HETATM   18  C13 UNK     1      15.254   4.331   9.970  1.00  0.00     0.210 C 
ENDBRANCH   2  17
BRANCH   3  19
HETATM   19  O2  UNK     1      13.143   9.470   9.623  1.00  0.00    -0.355 OA
HETATM   20  C14 UNK     1      11.832   9.661  10.151  1.00  0.00     0.210 C 
ENDBRANCH   3  19
BRANCH   4  21
HETATM   21  O3  UNK     1      12.045   6.429   6.126  1.00  0.00    -0.356 OA
HETATM   22  C18 UNK     1      10.673   6.132   6.384  1.00  0.00     0.210 C 
ENDBRANCH   4  21
TORSDOF 6
ENDMDL
