MODEL 1
REMARK VINA RESULT:      -7.0      0.000      0.000
REMARK  0 active torsions:
REMARK  status: ('A' for Active; 'I' for Inactive)
ROOT
HETATM    1  O1  UNK     1      15.503   5.077   8.968  1.00  0.00    -0.321 OA
HETATM    2  O2  UNK     1      10.869   5.343   7.604  1.00  0.00    -0.275 OA
HETATM    3  O3  UNK     1       8.668   5.561   7.010  1.00  0.00    -0.260 OA
HETATM    4  C1  UNK     1      14.230   6.827   9.617  1.00  0.00     0.006 A 
HETATM    5  C2  UNK     1      14.261   5.635   8.900  1.00  0.00     0.088 A 
HETATM    6  C3  UNK     1      11.904   7.057   8.991  1.00  0.00    -0.001 A 
HETATM    7  C4  UNK     1      15.537   6.992  10.148  1.00  0.00    -0.027 A 
HETATM    8  C5  UNK     1      13.027   7.559   9.666  1.00  0.00     0.029 A 
HETATM    9  C6  UNK     1      11.996   5.856   8.288  1.00  0.00     0.092 A 
HETATM   10  C7  UNK     1      13.171   5.103   8.217  1.00  0.00     0.076 A 
HETATM   11  C8  UNK     1      16.268   5.906   9.726  1.00  0.00     0.150 A 
HETATM   12  C9  UNK     1      10.633   7.765   9.003  1.00  0.00     0.020 A 
HETATM   13  C10 UNK     1      16.025   8.103  10.988  1.00  0.00     0.051 C 
HETATM   14  C11 UNK     1       9.577   7.271   8.353  1.00  0.00     0.083 A 
HETATM   15  C12 UNK     1       9.645   6.003   7.603  1.00  0.00     0.288 A 
ENDROOT
TORSDOF 0
ENDMDL
MODEL 2
REMARK VINA RESULT:      -6.9     23.955     26.002
REMARK  0 active torsions:
REMARK  status: ('A' for Active; 'I' for Inactive)
ROOT
HETATM    1  O1  UNK     1      20.833  -1.568  29.384  1.00  0.00    -0.321 OA
HETATM    2  O2  UNK     1      20.552  -3.095  33.966  1.00  0.00    -0.275 OA
HETATM    3  O3  UNK     1      20.352  -3.737  36.155  1.00  0.00    -0.260 OA
HETATM    4  C1  UNK     1      19.575  -0.434  30.880  1.00  0.00     0.006 A 
HETATM    5  C2  UNK     1      20.415  -1.526  30.681  1.00  0.00     0.088 A 
HETATM    6  C3  UNK     1      19.366  -1.112  33.195  1.00  0.00    -0.001 A 
HETATM    7  C4  UNK     1      19.486   0.219  29.622  1.00  0.00    -0.027 A 
HETATM    8  C5  UNK     1      19.036  -0.219  32.164  1.00  0.00     0.029 A 
HETATM    9  C6  UNK     1      20.213  -2.189  32.934  1.00  0.00     0.092 A 
HETATM   10  C7  UNK     1      20.767  -2.435  31.675  1.00  0.00     0.076 A 
HETATM   11  C8  UNK     1      20.265  -0.507  28.752  1.00  0.00     0.150 A 
HETATM   12  C9  UNK     1      18.842  -0.944  34.541  1.00  0.00     0.020 A 
HETATM   13  C10 UNK     1      18.714   1.434  29.301  1.00  0.00     0.051 C 
HETATM   14  C11 UNK     1      19.168  -1.807  35.506  1.00  0.00     0.083 A 
HETATM   15  C12 UNK     1      20.062  -2.953  35.260  1.00  0.00     0.288 A 
ENDROOT
TORSDOF 0
ENDMDL
MODEL 3
REMARK VINA RESULT:      -6.9     22.471     24.725
REMARK  0 active torsions:
REMARK  status: ('A' for Active; 'I' for Inactive)
ROOT
HETATM    1  O1  UNK     1      17.602   7.321  35.130  1.00  0.00    -0.321 OA
HETATM    2  O2  UNK     1      17.440   3.832  31.783  1.00  0.00    -0.275 OA
HETATM    3  O3  UNK     1      17.452   2.220  30.156  1.00  0.00    -0.260 OA
HETATM    4  C1  UNK     1      19.169   7.238  33.504  1.00  0.00     0.006 A 
HETATM    5  C2  UNK     1      18.026   6.641  34.028  1.00  0.00     0.088 A 
HETATM    6  C3  UNK     1      19.180   5.536  31.783  1.00  0.00    -0.001 A 
HETATM    7  C4  UNK     1      19.445   8.348  34.347  1.00  0.00    -0.027 A 
HETATM    8  C5  UNK     1      19.763   6.677  32.357  1.00  0.00     0.029 A 
HETATM    9  C6  UNK     1      18.035   4.981  32.353  1.00  0.00     0.092 A 
HETATM   10  C7  UNK     1      17.417   5.509  33.491  1.00  0.00     0.076 A 
HETATM   11  C8  UNK     1      18.467   8.353  35.315  1.00  0.00     0.150 A 
HETATM   12  C9  UNK     1      19.745   4.909  30.598  1.00  0.00     0.020 A 
HETATM   13  C10 UNK     1      20.556   9.310  34.219  1.00  0.00     0.051 C 
HETATM   14  C11 UNK     1      19.176   3.824  30.070  1.00  0.00     0.083 A 
HETATM   15  C12 UNK     1      17.964   3.217  30.651  1.00  0.00     0.288 A 
ENDROOT
TORSDOF 0
ENDMDL
MODEL 4
REMARK VINA RESULT:      -6.9     23.134     24.828
REMARK  0 active torsions:
REMARK  status: ('A' for Active; 'I' for Inactive)
ROOT
HETATM    1  O1  UNK     1      16.557   7.533  34.960  1.00  0.00    -0.321 OA
HETATM    2  O2  UNK     1      20.686   6.349  32.734  1.00  0.00    -0.275 OA
HETATM    3  O3  UNK     1      22.585   5.777  31.590  1.00  0.00    -0.260 OA
HETATM    4  C1  UNK     1      16.548   7.004  32.763  1.00  0.00     0.006 A 
HETATM    5  C2  UNK     1      17.331   7.156  33.903  1.00  0.00     0.088 A 
HETATM    6  C3  UNK     1      18.555   6.398  31.555  1.00  0.00    -0.001 A 
HETATM    7  C4  UNK     1      15.220   7.309  33.164  1.00  0.00    -0.027 A 
HETATM    8  C5  UNK     1      17.169   6.616  31.560  1.00  0.00     0.029 A 
HETATM    9  C6  UNK     1      19.289   6.567  32.729  1.00  0.00     0.092 A 
HETATM   10  C7  UNK     1      18.708   6.950  33.941  1.00  0.00     0.076 A 
HETATM   11  C8  UNK     1      15.281   7.623  34.502  1.00  0.00     0.150 A 
HETATM   12  C9  UNK     1      19.256   5.996  30.344  1.00  0.00     0.020 A 
HETATM   13  C10 UNK     1      14.008   7.294  32.323  1.00  0.00     0.051 C 
HETATM   14  C11 UNK     1      20.575   5.794  30.362  1.00  0.00     0.083 A 
HETATM   15  C12 UNK     1      21.374   5.964  31.588  1.00  0.00     0.288 A 
ENDROOT
TORSDOF 0
ENDMDL
MODEL 5
REMARK VINA RESULT:      -6.9     23.017     24.990
REMARK  0 active torsions:
REMARK  status: ('A' for Active; 'I' for Inactive)
ROOT
HETATM    1  O1  UNK     1      20.344   6.783  33.265  1.00  0.00    -0.321 OA
HETATM    2  O2  UNK     1      16.586   9.240  35.066  1.00  0.00    -0.275 OA
HETATM    3  O3  UNK     1      14.753  10.382  35.830  1.00  0.00    -0.260 OA
HETATM    4  C1  UNK     1      18.451   7.009  32.050  1.00  0.00     0.006 A 
HETATM    5  C2  UNK     1      19.087   7.311  33.251  1.00  0.00     0.088 A 
HETATM    6  C3  UNK     1      16.515   8.217  32.857  1.00  0.00    -0.001 A 
HETATM    7  C4  UNK     1      19.388   6.252  31.298  1.00  0.00    -0.027 A 
HETATM    8  C5  UNK     1      17.136   7.469  31.844  1.00  0.00     0.029 A 
HETATM    9  C6  UNK     1      17.202   8.488  34.040  1.00  0.00     0.092 A 
HETATM   10  C7  UNK     1      18.507   8.049  34.280  1.00  0.00     0.076 A 
HETATM   11  C8  UNK     1      20.516   6.144  32.078  1.00  0.00     0.150 A 
HETATM   12  C9  UNK     1      15.159   8.721  32.705  1.00  0.00     0.020 A 
HETATM   13  C10 UNK     1      19.200   5.688  29.948  1.00  0.00     0.051 C 
HETATM   14  C11 UNK     1      14.587   9.429  33.682  1.00  0.00     0.083 A 
HETATM   15  C12 UNK     1      15.291   9.731  34.941  1.00  0.00     0.288 A 
ENDROOT
TORSDOF 0
ENDMDL
MODEL 6
REMARK VINA RESULT:      -6.7     22.262     24.413
REMARK  0 active torsions:
REMARK  status: ('A' for Active; 'I' for Inactive)
ROOT
HETATM    1  O1  UNK     1      18.873   4.945  29.717  1.00  0.00    -0.321 OA
HETATM    2  O2  UNK     1      18.744   0.534  31.700  1.00  0.00    -0.275 OA
HETATM    3  O3  UNK     1      18.656  -1.508  32.732  1.00  0.00    -0.260 OA
HETATM    4  C1  UNK     1      18.392   4.704  31.911  1.00  0.00     0.006 A 
HETATM    5  C2  UNK     1      18.709   4.045  30.727  1.00  0.00     0.088 A 
HETATM    6  C3  UNK     1      18.301   2.545  33.002  1.00  0.00    -0.001 A 
HETATM    7  C4  UNK     1      18.364   6.086  31.588  1.00  0.00    -0.027 A 
HETATM    8  C5  UNK     1      18.181   3.941  33.077  1.00  0.00     0.029 A 
HETATM    9  C6  UNK     1      18.621   1.940  31.786  1.00  0.00     0.092 A 
HETATM   10  C7  UNK     1      18.837   2.663  30.610  1.00  0.00     0.076 A 
HETATM   11  C8  UNK     1      18.662   6.178  30.248  1.00  0.00     0.150 A 
HETATM   12  C9  UNK     1      18.096   1.702  34.169  1.00  0.00     0.020 A 
HETATM   13  C10 UNK     1      18.075   7.210  32.499  1.00  0.00     0.051 C 
HETATM   14  C11 UNK     1      18.213   0.375  34.075  1.00  0.00     0.083 A 
HETATM   15  C12 UNK     1      18.552  -0.290  32.804  1.00  0.00     0.288 A 
ENDROOT
TORSDOF 0
ENDMDL
MODEL 7
REMARK VINA RESULT:      -6.7     22.983     24.348
REMARK  0 active torsions:
REMARK  status: ('A' for Active; 'I' for Inactive)
ROOT
HETATM    1  O1  UNK     1      18.694   0.579  32.710  1.00  0.00    -0.321 OA
HETATM    2  O2  UNK     1      17.821   5.213  33.791  1.00  0.00    -0.275 OA
HETATM    3  O3  UNK     1      17.427   7.432  34.201  1.00  0.00    -0.260 OA
HETATM    4  C1  UNK     1      18.858   2.166  31.109  1.00  0.00     0.006 A 
HETATM    5  C2  UNK     1      18.578   1.912  32.449  1.00  0.00     0.088 A 
HETATM    6  C3  UNK     1      18.443   4.511  31.543  1.00  0.00    -0.001 A 
HETATM    7  C4  UNK     1      19.162   0.904  30.533  1.00  0.00    -0.027 A 
HETATM    8  C5  UNK     1      18.790   3.492  30.641  1.00  0.00     0.029 A 
HETATM    9  C6  UNK     1      18.172   4.195  32.874  1.00  0.00     0.092 A 
HETATM   10  C7  UNK     1      18.229   2.892  33.375  1.00  0.00     0.076 A 
HETATM   11  C8  UNK     1      19.048  -0.022  31.544  1.00  0.00     0.150 A 
HETATM   12  C9  UNK     1      18.355   5.900  31.122  1.00  0.00     0.020 A 
HETATM   13  C10 UNK     1      19.528   0.628  29.131  1.00  0.00     0.051 C 
HETATM   14  C11 UNK     1      18.022   6.852  31.996  1.00  0.00     0.083 A 
HETATM   15  C12 UNK     1      17.732   6.548  33.409  1.00  0.00     0.288 A 
ENDROOT
TORSDOF 0
ENDMDL
MODEL 8
REMARK VINA RESULT:      -6.6     23.622     25.655
REMARK  0 active torsions:
REMARK  status: ('A' for Active; 'I' for Inactive)
ROOT
HETATM    1  O1  UNK     1      17.778   1.812  34.282  1.00  0.00    -0.321 OA
HETATM    2  O2  UNK     1      19.806   0.334  30.145  1.00  0.00    -0.275 OA
HETATM    3  O3  UNK     1      20.771  -0.464  28.227  1.00  0.00    -0.260 OA
HETATM    4  C1  UNK     1      18.391  -0.349  34.029  1.00  0.00     0.006 A 
HETATM    5  C2  UNK     1      18.338   0.906  33.430  1.00  0.00     0.088 A 
HETATM    6  C3  UNK     1      19.412  -1.191  32.002  1.00  0.00    -0.001 A 
HETATM    7  C4  UNK     1      17.827  -0.183  35.322  1.00  0.00    -0.027 A 
HETATM    8  C5  UNK     1      18.939  -1.424  33.303  1.00  0.00     0.029 A 
HETATM    9  C6  UNK     1      19.332   0.089  31.455  1.00  0.00     0.092 A 
HETATM   10  C7  UNK     1      18.796   1.180  32.143  1.00  0.00     0.076 A 
HETATM   11  C8  UNK     1      17.472   1.142  35.424  1.00  0.00     0.150 A 
HETATM   12  C9  UNK     1      19.989  -2.260  31.202  1.00  0.00     0.020 A 
HETATM   13  C10 UNK     1      17.651  -1.218  36.358  1.00  0.00     0.051 C 
HETATM   14  C11 UNK     1      20.432  -2.016  29.966  1.00  0.00     0.083 A 
HETATM   15  C12 UNK     1      20.361  -0.673  29.363  1.00  0.00     0.288 A 
ENDROOT
TORSDOF 0
ENDMDL
MODEL 9
REMARK VINA RESULT:      -6.6     24.440     26.347
REMARK  0 active torsions:
REMARK  status: ('A' for Active; 'I' for Inactive)
ROOT
HETATM    1  O1  UNK     1      18.316  -1.597  35.718  1.00  0.00    -0.321 OA
HETATM    2  O2  UNK     1      18.819   0.426  31.352  1.00  0.00    -0.275 OA
HETATM    3  O3  UNK     1      19.036   1.479  29.329  1.00  0.00    -0.260 OA
HETATM    4  C1  UNK     1      18.018   0.628  35.459  1.00  0.00     0.006 A 
HETATM    5  C2  UNK     1      18.324  -0.570  34.821  1.00  0.00     0.088 A 
HETATM    6  C3  UNK     1      18.245   1.740  33.321  1.00  0.00    -0.001 A 
HETATM    7  C4  UNK     1      17.813   0.296  36.825  1.00  0.00    -0.027 A 
HETATM    8  C5  UNK     1      17.977   1.812  34.697  1.00  0.00     0.029 A 
HETATM    9  C6  UNK     1      18.547   0.510  32.737  1.00  0.00     0.092 A 
HETATM   10  C7  UNK     1      18.597  -0.685  33.460  1.00  0.00     0.076 A 
HETATM   11  C8  UNK     1      18.006  -1.062  36.928  1.00  0.00     0.150 A 
HETATM   12  C9  UNK     1      18.219   2.926  32.480  1.00  0.00     0.020 A 
HETATM   13  C10 UNK     1      17.463   1.216  37.924  1.00  0.00     0.051 C 
HETATM   14  C11 UNK     1      18.479   2.835  31.173  1.00  0.00     0.083 A 
HETATM   15  C12 UNK     1      18.799   1.548  30.530  1.00  0.00     0.288 A 
ENDROOT
TORSDOF 0
ENDMDL
MODEL 10
REMARK VINA RESULT:      -6.6     24.937     26.884
REMARK  0 active torsions:
REMARK  status: ('A' for Active; 'I' for Inactive)
ROOT
HETATM    1  O1  UNK     1      17.549   1.960  36.592  1.00  0.00    -0.321 OA
HETATM    2  O2  UNK     1      18.657   1.515  31.904  1.00  0.00    -0.275 OA
HETATM    3  O3  UNK     1      19.200   1.201  29.702  1.00  0.00    -0.260 OA
HETATM    4  C1  UNK     1      18.189  -0.043  35.766  1.00  0.00     0.006 A 
HETATM    5  C2  UNK     1      17.943   1.295  35.470  1.00  0.00     0.088 A 
HETATM    6  C3  UNK     1      18.764  -0.374  33.438  1.00  0.00    -0.001 A 
HETATM    7  C4  UNK     1      17.924  -0.186  37.153  1.00  0.00    -0.027 A 
HETATM    8  C5  UNK     1      18.608  -0.900  34.730  1.00  0.00     0.029 A 
HETATM    9  C6  UNK     1      18.503   0.975  33.202  1.00  0.00     0.092 A 
HETATM   10  C7  UNK     1      18.085   1.856  34.203  1.00  0.00     0.076 A 
HETATM   11  C8  UNK     1      17.540   1.055  37.606  1.00  0.00     0.150 A 
HETATM   12  C9  UNK     1      19.195  -1.208  32.326  1.00  0.00     0.020 A 
HETATM   13  C10 UNK     1      18.036  -1.416  37.960  1.00  0.00     0.051 C 
HETATM   14  C11 UNK     1      19.335  -0.687  31.105  1.00  0.00     0.083 A 
HETATM   15  C12 UNK     1      19.067   0.736  30.828  1.00  0.00     0.288 A 
ENDROOT
TORSDOF 0
ENDMDL
