MODEL 1
REMARK VINA RESULT:      -9.4      0.000      0.000
REMARK  5 active torsions:
REMARK  status: ('A' for Active; 'I' for Inactive)
REMARK    1  A    between atoms: C10_17  and  N1_6 
REMARK       I    between atoms: C13_20  and  N1_6 
REMARK       I    between atoms: C12_19  and  N2_7 
REMARK    2  A    between atoms: C1_8  and  C5_12 
REMARK    3  A    between atoms: C5_12  and  C8_15 
REMARK    4  A    between atoms: C12_19  and  C9_16 
REMARK    5  A    between atoms: C13_20  and  C14_21 
ROOT
HETATM    1  S1  UNK     1      15.529   6.548  32.340  1.00  0.00    -0.075 SA
HETATM    2  C1  UNK     1      15.057  10.567  33.071  1.00  0.00    -0.010 C 
HETATM    3  C2  UNK     1      16.032  10.615  34.267  1.00  0.00     0.009 C 
HETATM    4  C3  UNK     1      14.547   9.127  32.829  1.00  0.00     0.051 C 
HETATM    5  C4  UNK     1      17.275   9.744  34.023  1.00  0.00     0.041 C 
HETATM    6  C6  UNK     1      16.913   8.402  33.470  1.00  0.00    -0.026 A 
HETATM    7  C7  UNK     1      15.675   8.146  32.910  1.00  0.00    -0.008 A 
HETATM    8  C9  UNK     1      17.755   7.251  33.415  1.00  0.00     0.073 A 
HETATM    9  C10 UNK     1      17.128   6.174  32.827  1.00  0.00     0.093 A 
ENDROOT
BRANCH   9  10
HETATM   10  N1  UNK     1      17.561   4.900  32.577  1.00  0.00    -0.316 N 
HETATM   11  C13 UNK     1      18.260   4.460  31.445  1.00  0.00     0.262 C 
HETATM   12  O2  UNK     1      18.616   5.109  30.470  1.00  0.00    -0.267 OA
HETATM   13  H15 UNK     1      17.322   4.223  33.297  1.00  0.00     0.169 HD
BRANCH  11  14
HETATM   14  C14 UNK     1      18.572   3.016  31.501  1.00  0.00     0.108 A 
HETATM   15  C15 UNK     1      19.040   2.468  30.373  1.00  0.00     0.037 A 
HETATM   16  C16 UNK     1      19.376   1.054  30.329  1.00  0.00    -0.001 A 
HETATM   17  C18 UNK     1      19.203   0.285  31.476  1.00  0.00     0.089 A 
HETATM   18  C19 UNK     1      19.867   0.440  29.174  1.00  0.00     0.014 A 
HETATM   19  O3  UNK     1      18.712   0.868  32.661  1.00  0.00    -0.274 OA
HETATM   20  C20 UNK     1      19.506  -1.075  31.501  1.00  0.00     0.038 A 
HETATM   21  C17 UNK     1      18.381   2.219  32.732  1.00  0.00     0.304 A 
HETATM   22  O4  UNK     1      17.953   2.716  33.768  1.00  0.00    -0.259 OA
HETATM   23  C22 UNK     1      19.994  -1.679  30.345  1.00  0.00     0.003 A 
HETATM   24  C21 UNK     1      20.175  -0.923  29.184  1.00  0.00     0.001 A 
ENDBRANCH  11  14
ENDBRANCH   9  10
BRANCH   8  25
HETATM   25  C12 UNK     1      19.110   7.182  33.903  1.00  0.00     0.252 C 
HETATM   26  O1  UNK     1      20.093   7.004  33.160  1.00  0.00    -0.268 OA
HETATM   27  N2  UNK     1      19.308   7.350  35.271  1.00  0.00    -0.366 N 
HETATM   28  H16 UNK     1      18.536   7.506  35.913  1.00  0.00     0.159 HD
HETATM   29  H17 UNK     1      20.240   7.319  35.672  1.00  0.00     0.159 HD
ENDBRANCH   8  25
BRANCH   2  30
HETATM   30  C5  UNK     1      13.883  11.519  33.289  1.00  0.00     0.004 C 
BRANCH  30  31
HETATM   31  C8  UNK     1      13.400  11.480  34.734  1.00  0.00    -0.004 C 
HETATM   32  C11 UNK     1      12.307  12.507  34.978  1.00  0.00     0.005 C 
ENDBRANCH  30  31
ENDBRANCH   2  30
TORSDOF 5
ENDMDL
MODEL 2
REMARK VINA RESULT:      -9.3      1.202      1.954
REMARK  5 active torsions:
REMARK  status: ('A' for Active; 'I' for Inactive)
REMARK    1  A    between atoms: C10_17  and  N1_6 
REMARK       I    between atoms: C13_20  and  N1_6 
REMARK       I    between atoms: C12_19  and  N2_7 
REMARK    2  A    between atoms: C1_8  and  C5_12 
REMARK    3  A    between atoms: C5_12  and  C8_15 
REMARK    4  A    between atoms: C12_19  and  C9_16 
REMARK    5  A    between atoms: C13_20  and  C14_21 
ROOT
HETATM    1  S1  UNK     1      16.164   6.347  31.588  1.00  0.00    -0.075 SA
HETATM    2  C1  UNK     1      15.733  10.025  33.376  1.00  0.00    -0.010 C 
HETATM    3  C2  UNK     1      16.596   9.690  34.612  1.00  0.00     0.009 C 
HETATM    4  C3  UNK     1      15.210   8.736  32.699  1.00  0.00     0.051 C 
HETATM    5  C4  UNK     1      17.832   8.859  34.234  1.00  0.00     0.041 C 
HETATM    6  C6  UNK     1      17.487   7.742  33.299  1.00  0.00    -0.026 A 
HETATM    7  C7  UNK     1      16.299   7.715  32.593  1.00  0.00    -0.008 A 
HETATM    8  C9  UNK     1      18.301   6.610  32.992  1.00  0.00     0.073 A 
HETATM    9  C10 UNK     1      17.701   5.773  32.077  1.00  0.00     0.093 A 
ENDROOT
BRANCH   9  10
HETATM   10  N1  UNK     1      18.122   4.597  31.515  1.00  0.00    -0.316 N 
HETATM   11  C13 UNK     1      18.151   3.338  32.130  1.00  0.00     0.262 C 
HETATM   12  O2  UNK     1      17.815   3.039  33.268  1.00  0.00    -0.267 OA
HETATM   13  H15 UNK     1      18.458   4.681  30.559  1.00  0.00     0.169 HD
BRANCH  11  14
HETATM   14  C14 UNK     1      18.666   2.283  31.232  1.00  0.00     0.108 A 
HETATM   15  C15 UNK     1      19.009   1.128  31.813  1.00  0.00     0.037 A 
HETATM   16  C16 UNK     1      19.526   0.029  31.012  1.00  0.00    -0.001 A 
HETATM   17  C18 UNK     1      19.657   0.202  29.637  1.00  0.00     0.089 A 
HETATM   18  C19 UNK     1      19.897  -1.194  31.575  1.00  0.00     0.014 A 
HETATM   19  O3  UNK     1      19.293   1.421  29.031  1.00  0.00    -0.274 OA
HETATM   20  C20 UNK     1      20.146  -0.810  28.813  1.00  0.00     0.038 A 
HETATM   21  C17 UNK     1      18.796   2.489  29.772  1.00  0.00     0.304 A 
HETATM   22  O4  UNK     1      18.483   3.547  29.236  1.00  0.00    -0.259 OA
HETATM   23  C22 UNK     1      20.514  -2.026  29.383  1.00  0.00     0.003 A 
HETATM   24  C21 UNK     1      20.389  -2.218  30.762  1.00  0.00     0.001 A 
ENDBRANCH  11  14
ENDBRANCH   9  10
BRANCH   8  25
HETATM   25  C12 UNK     1      19.603   6.341  33.548  1.00  0.00     0.252 C 
HETATM   26  O1  UNK     1      20.644   6.889  33.141  1.00  0.00    -0.268 OA
HETATM   27  N2  UNK     1      19.674   5.438  34.606  1.00  0.00    -0.366 N 
HETATM   28  H16 UNK     1      18.849   4.974  34.976  1.00  0.00     0.159 HD
HETATM   29  H17 UNK     1      20.562   5.215  35.043  1.00  0.00     0.159 HD
ENDBRANCH   8  25
BRANCH   2  30
HETATM   30  C5  UNK     1      14.570  10.938  33.757  1.00  0.00     0.004 C 
BRANCH  30  31
HETATM   31  C8  UNK     1      14.101  10.669  35.182  1.00  0.00    -0.004 C 
HETATM   32  C11 UNK     1      13.590  11.940  35.843  1.00  0.00     0.005 C 
ENDBRANCH  30  31
ENDBRANCH   2  30
TORSDOF 5
ENDMDL
MODEL 3
REMARK VINA RESULT:      -8.8      5.751      8.949
REMARK  5 active torsions:
REMARK  status: ('A' for Active; 'I' for Inactive)
REMARK    1  A    between atoms: C10_17  and  N1_6 
REMARK       I    between atoms: C13_20  and  N1_6 
REMARK       I    between atoms: C12_19  and  N2_7 
REMARK    2  A    between atoms: C1_8  and  C5_12 
REMARK    3  A    between atoms: C5_12  and  C8_15 
REMARK    4  A    between atoms: C12_19  and  C9_16 
REMARK    5  A    between atoms: C13_20  and  C14_21 
ROOT
HETATM    1  S1  UNK     1      18.464   0.264  34.034  1.00  0.00    -0.075 SA
HETATM    2  C1  UNK     1      18.128   2.799  30.814  1.00  0.00    -0.010 C 
HETATM    3  C2  UNK     1      19.361   2.249  30.064  1.00  0.00     0.009 C 
HETATM    4  C3  UNK     1      18.204   2.468  32.323  1.00  0.00     0.051 C 
HETATM    5  C4  UNK     1      19.458   0.719  30.175  1.00  0.00     0.041 C 
HETATM    6  C6  UNK     1      19.223   0.246  31.575  1.00  0.00    -0.026 A 
HETATM    7  C7  UNK     1      18.631   1.048  32.532  1.00  0.00    -0.008 A 
HETATM    8  C9  UNK     1      19.534  -1.044  32.099  1.00  0.00     0.073 A 
HETATM    9  C10 UNK     1      19.175  -1.169  33.423  1.00  0.00     0.093 A 
ENDROOT
BRANCH   9  10
HETATM   10  N1  UNK     1      19.290  -2.215  34.297  1.00  0.00    -0.316 N 
HETATM   11  C13 UNK     1      20.413  -2.543  35.069  1.00  0.00     0.262 C 
HETATM   12  O2  UNK     1      21.496  -1.974  35.116  1.00  0.00    -0.267 OA
HETATM   13  H15 UNK     1      18.466  -2.808  34.360  1.00  0.00     0.169 HD
BRANCH  11  14
HETATM   14  C14 UNK     1      20.193  -3.741  35.906  1.00  0.00     0.108 A 
HETATM   15  C15 UNK     1      20.094  -4.907  35.256  1.00  0.00     0.037 A 
HETATM   16  C16 UNK     1      19.877  -6.141  35.994  1.00  0.00    -0.001 A 
HETATM   17  C18 UNK     1      19.775  -6.088  37.381  1.00  0.00     0.089 A 
HETATM   18  C19 UNK     1      19.768  -7.380  35.358  1.00  0.00     0.014 A 
HETATM   19  O3  UNK     1      19.880  -4.858  38.059  1.00  0.00    -0.274 OA
HETATM   20  C20 UNK     1      19.566  -7.234  38.146  1.00  0.00     0.038 A 
HETATM   21  C17 UNK     1      20.088  -3.660  37.380  1.00  0.00     0.304 A 
HETATM   22  O4  UNK     1      20.177  -2.594  37.979  1.00  0.00    -0.259 OA
HETATM   23  C22 UNK     1      19.459  -8.465  37.504  1.00  0.00     0.003 A 
HETATM   24  C21 UNK     1      19.559  -8.538  36.112  1.00  0.00     0.001 A 
ENDBRANCH  11  14
ENDBRANCH   9  10
BRANCH   8  25
HETATM   25  C12 UNK     1      20.148  -2.120  31.361  1.00  0.00     0.252 C 
HETATM   26  O1  UNK     1      21.011  -2.874  31.848  1.00  0.00    -0.268 OA
HETATM   27  N2  UNK     1      19.723  -2.323  30.050  1.00  0.00    -0.366 N 
HETATM   28  H16 UNK     1      19.015  -1.737  29.616  1.00  0.00     0.159 HD
HETATM   29  H17 UNK     1      20.113  -3.069  29.484  1.00  0.00     0.159 HD
ENDBRANCH   8  25
BRANCH   2  30
HETATM   30  C5  UNK     1      17.992   4.305  30.604  1.00  0.00     0.004 C 
BRANCH  30  31
HETATM   31  C8  UNK     1      19.202   5.051  31.155  1.00  0.00    -0.004 C 
HETATM   32  C11 UNK     1      19.843   5.925  30.088  1.00  0.00     0.005 C 
ENDBRANCH  30  31
ENDBRANCH   2  30
TORSDOF 5
ENDMDL
MODEL 4
REMARK VINA RESULT:      -8.7      8.603     15.126
REMARK  5 active torsions:
REMARK  status: ('A' for Active; 'I' for Inactive)
REMARK    1  A    between atoms: C10_17  and  N1_6 
REMARK       I    between atoms: C13_20  and  N1_6 
REMARK       I    between atoms: C12_19  and  N2_7 
REMARK    2  A    between atoms: C1_8  and  C5_12 
REMARK    3  A    between atoms: C5_12  and  C8_15 
REMARK    4  A    between atoms: C12_19  and  C9_16 
REMARK    5  A    between atoms: C13_20  and  C14_21 
ROOT
HETATM    1  S1  UNK     1      20.998  -7.122  34.563  1.00  0.00    -0.075 SA
HETATM    2  C1  UNK     1      21.455 -11.072  35.606  1.00  0.00    -0.010 C 
HETATM    3  C2  UNK     1      21.410 -10.829  37.130  1.00  0.00     0.009 C 
HETATM    4  C3  UNK     1      21.838  -9.780  34.849  1.00  0.00     0.051 C 
HETATM    5  C4  UNK     1      20.360  -9.771  37.506  1.00  0.00     0.041 C 
HETATM    6  C6  UNK     1      20.429  -8.576  36.609  1.00  0.00    -0.026 A 
HETATM    7  C7  UNK     1      21.086  -8.605  35.394  1.00  0.00    -0.008 A 
HETATM    8  C9  UNK     1      19.834  -7.300  36.848  1.00  0.00     0.073 A 
HETATM    9  C10 UNK     1      20.067  -6.417  35.816  1.00  0.00     0.093 A 
ENDROOT
BRANCH   9  10
HETATM   10  N1  UNK     1      19.688  -5.115  35.638  1.00  0.00    -0.316 N 
HETATM   11  C13 UNK     1      20.198  -3.993  36.307  1.00  0.00     0.262 C 
HETATM   12  O2  UNK     1      21.066  -3.952  37.169  1.00  0.00    -0.267 OA
HETATM   13  H15 UNK     1      18.946  -4.979  34.955  1.00  0.00     0.169 HD
BRANCH  11  14
HETATM   14  C14 UNK     1      19.559  -2.735  35.869  1.00  0.00     0.108 A 
HETATM   15  C15 UNK     1      18.761  -2.135  36.760  1.00  0.00     0.037 A 
HETATM   16  C16 UNK     1      18.088  -0.891  36.421  1.00  0.00    -0.001 A 
HETATM   17  C18 UNK     1      18.288  -0.340  35.159  1.00  0.00     0.089 A 
HETATM   18  C19 UNK     1      17.246  -0.230  37.319  1.00  0.00     0.014 A 
HETATM   19  O3  UNK     1      19.130  -0.975  34.225  1.00  0.00    -0.274 OA
HETATM   20  C20 UNK     1      17.672   0.849  34.772  1.00  0.00     0.038 A 
HETATM   21  C17 UNK     1      19.787  -2.167  34.522  1.00  0.00     0.304 A 
HETATM   22  O4  UNK     1      20.516  -2.713  33.702  1.00  0.00    -0.259 OA
HETATM   23  C22 UNK     1      16.835   1.501  35.673  1.00  0.00     0.003 A 
HETATM   24  C21 UNK     1      16.622   0.963  36.945  1.00  0.00     0.001 A 
ENDBRANCH  11  14
ENDBRANCH   9  10
BRANCH   8  25
HETATM   25  C12 UNK     1      19.070  -6.940  38.015  1.00  0.00     0.252 C 
HETATM   26  O1  UNK     1      17.861  -7.208  38.148  1.00  0.00    -0.268 OA
HETATM   27  N2  UNK     1      19.740  -6.280  39.042  1.00  0.00    -0.366 N 
HETATM   28  H16 UNK     1      20.728  -6.048  38.980  1.00  0.00     0.159 HD
HETATM   29  H17 UNK     1      19.256  -6.007  39.891  1.00  0.00     0.159 HD
ENDBRANCH   8  25
BRANCH   2  30
HETATM   30  C5  UNK     1      22.427 -12.199  35.264  1.00  0.00     0.004 C 
BRANCH  30  31
HETATM   31  C8  UNK     1      23.847 -11.856  35.701  1.00  0.00    -0.004 C 
HETATM   32  C11 UNK     1      24.630 -13.107  36.063  1.00  0.00     0.005 C 
ENDBRANCH  30  31
ENDBRANCH   2  30
TORSDOF 5
ENDMDL
MODEL 5
REMARK VINA RESULT:      -8.7     16.158     21.283
REMARK  5 active torsions:
REMARK  status: ('A' for Active; 'I' for Inactive)
REMARK    1  A    between atoms: C10_17  and  N1_6 
REMARK       I    between atoms: C13_20  and  N1_6 
REMARK       I    between atoms: C12_19  and  N2_7 
REMARK    2  A    between atoms: C1_8  and  C5_12 
REMARK    3  A    between atoms: C5_12  and  C8_15 
REMARK    4  A    between atoms: C12_19  and  C9_16 
REMARK    5  A    between atoms: C13_20  and  C14_21 
ROOT
HETATM    1  S1  UNK     1      19.129  -2.075  12.407  1.00  0.00    -0.075 SA
HETATM    2  C1  UNK     1      19.275  -5.424  10.025  1.00  0.00    -0.010 C 
HETATM    3  C2  UNK     1      20.516  -6.038  10.709  1.00  0.00     0.009 C 
HETATM    4  C3  UNK     1      19.197  -3.901  10.282  1.00  0.00     0.051 C 
HETATM    5  C4  UNK     1      20.475  -5.850  12.234  1.00  0.00     0.041 C 
HETATM    6  C6  UNK     1      20.086  -4.456  12.613  1.00  0.00    -0.026 A 
HETATM    7  C7  UNK     1      19.485  -3.591  11.718  1.00  0.00    -0.008 A 
HETATM    8  C9  UNK     1      20.245  -3.849  13.895  1.00  0.00     0.073 A 
HETATM    9  C10 UNK     1      19.767  -2.557  13.921  1.00  0.00     0.093 A 
ENDROOT
BRANCH   9  10
HETATM   10  N1  UNK     1      19.722  -1.630  14.927  1.00  0.00    -0.316 N 
HETATM   11  C13 UNK     1      18.701  -1.469  15.873  1.00  0.00     0.262 C 
HETATM   12  O2  UNK     1      17.664  -2.109  15.990  1.00  0.00    -0.267 OA
HETATM   13  H15 UNK     1      20.517  -0.996  14.955  1.00  0.00     0.169 HD
BRANCH  11  14
HETATM   14  C14 UNK     1      18.975  -0.366  16.818  1.00  0.00     0.108 A 
HETATM   15  C15 UNK     1      18.961  -0.683  18.118  1.00  0.00     0.037 A 
HETATM   16  C16 UNK     1      19.221   0.334  19.124  1.00  0.00    -0.001 A 
HETATM   17  C18 UNK     1      19.483   1.638  18.712  1.00  0.00     0.089 A 
HETATM   18  C19 UNK     1      19.216   0.048  20.492  1.00  0.00     0.014 A 
HETATM   19  O3  UNK     1      19.497   1.965  17.342  1.00  0.00    -0.274 OA
HETATM   20  C20 UNK     1      19.738   2.659  19.625  1.00  0.00     0.038 A 
HETATM   21  C17 UNK     1      19.252   1.013  16.357  1.00  0.00     0.304 A 
HETATM   22  O4  UNK     1      19.266   1.308  15.167  1.00  0.00    -0.259 OA
HETATM   23  C22 UNK     1      19.732   2.365  20.986  1.00  0.00     0.003 A 
HETATM   24  C21 UNK     1      19.471   1.062  21.419  1.00  0.00     0.001 A 
ENDBRANCH  11  14
ENDBRANCH   9  10
BRANCH   8  25
HETATM   25  C12 UNK     1      20.826  -4.481  15.053  1.00  0.00     0.252 C 
HETATM   26  O1  UNK     1      21.976  -4.232  15.459  1.00  0.00    -0.268 OA
HETATM   27  N2  UNK     1      20.037  -5.394  15.749  1.00  0.00    -0.366 N 
HETATM   28  H16 UNK     1      19.090  -5.621  15.458  1.00  0.00     0.159 HD
HETATM   29  H17 UNK     1      20.389  -5.864  16.576  1.00  0.00     0.159 HD
ENDBRANCH   8  25
BRANCH   2  30
HETATM   30  C5  UNK     1      19.282  -5.713   8.526  1.00  0.00     0.004 C 
BRANCH  30  31
HETATM   31  C8  UNK     1      18.486  -4.665   7.757  1.00  0.00    -0.004 C 
HETATM   32  C11 UNK     1      19.263  -4.157   6.553  1.00  0.00     0.005 C 
ENDBRANCH  30  31
ENDBRANCH   2  30
TORSDOF 5
ENDMDL
MODEL 6
REMARK VINA RESULT:      -8.5     15.129     18.798
REMARK  5 active torsions:
REMARK  status: ('A' for Active; 'I' for Inactive)
REMARK    1  A    between atoms: C10_17  and  N1_6 
REMARK       I    between atoms: C13_20  and  N1_6 
REMARK       I    between atoms: C12_19  and  N2_7 
REMARK    2  A    between atoms: C1_8  and  C5_12 
REMARK    3  A    between atoms: C5_12  and  C8_15 
REMARK    4  A    between atoms: C12_19  and  C9_16 
REMARK    5  A    between atoms: C13_20  and  C14_21 
ROOT
HETATM    1  S1  UNK     1      29.182  -6.164  38.695  1.00  0.00    -0.075 SA
HETATM    2  C1  UNK     1      32.927  -6.769  37.109  1.00  0.00    -0.010 C 
HETATM    3  C2  UNK     1      32.667  -8.226  36.668  1.00  0.00     0.009 C 
HETATM    4  C3  UNK     1      31.938  -6.340  38.217  1.00  0.00     0.051 C 
HETATM    5  C4  UNK     1      31.254  -8.401  36.089  1.00  0.00     0.041 C 
HETATM    6  C6  UNK     1      30.219  -7.732  36.937  1.00  0.00    -0.026 A 
HETATM    7  C7  UNK     1      30.546  -6.780  37.884  1.00  0.00    -0.008 A 
HETATM    8  C9  UNK     1      28.808  -7.944  36.880  1.00  0.00     0.073 A 
HETATM    9  C10 UNK     1      28.127  -7.157  37.782  1.00  0.00     0.093 A 
ENDROOT
BRANCH   9  10
HETATM   10  N1  UNK     1      26.791  -7.044  38.057  1.00  0.00    -0.316 N 
HETATM   11  C13 UNK     1      26.024  -7.903  38.856  1.00  0.00     0.262 C 
HETATM   12  O2  UNK     1      26.384  -8.907  39.456  1.00  0.00    -0.267 OA
HETATM   13  H15 UNK     1      26.332  -6.256  37.607  1.00  0.00     0.169 HD
BRANCH  11  14
HETATM   14  C14 UNK     1      24.609  -7.485  38.937  1.00  0.00     0.108 A 
HETATM   15  C15 UNK     1      23.704  -8.469  38.990  1.00  0.00     0.037 A 
HETATM   16  C16 UNK     1      22.285  -8.157  39.072  1.00  0.00    -0.001 A 
HETATM   17  C18 UNK     1      21.890  -6.823  39.095  1.00  0.00     0.089 A 
HETATM   18  C19 UNK     1      21.306  -9.152  39.128  1.00  0.00     0.014 A 
HETATM   19  O3  UNK     1      22.848  -5.792  39.040  1.00  0.00    -0.274 OA
HETATM   20  C20 UNK     1      20.547  -6.457  39.172  1.00  0.00     0.038 A 
HETATM   21  C17 UNK     1      24.211  -6.060  38.961  1.00  0.00     0.304 A 
HETATM   22  O4  UNK     1      25.038  -5.155  38.913  1.00  0.00    -0.259 OA
HETATM   23  C22 UNK     1      19.577  -7.455  39.228  1.00  0.00     0.003 A 
HETATM   24  C21 UNK     1      19.955  -8.800  39.206  1.00  0.00     0.001 A 
ENDBRANCH  11  14
ENDBRANCH   9  10
BRANCH   8  25
HETATM   25  C12 UNK     1      28.136  -8.862  35.994  1.00  0.00     0.252 C 
HETATM   26  O1  UNK     1      27.481  -9.841  36.397  1.00  0.00    -0.268 OA
HETATM   27  N2  UNK     1      28.217  -8.608  34.627  1.00  0.00    -0.366 N 
HETATM   28  H16 UNK     1      28.734  -7.816  34.254  1.00  0.00     0.159 HD
HETATM   29  H17 UNK     1      27.758  -9.214  33.955  1.00  0.00     0.159 HD
ENDBRANCH   8  25
BRANCH   2  30
HETATM   30  C5  UNK     1      34.368  -6.593  37.581  1.00  0.00     0.004 C 
BRANCH  30  31
HETATM   31  C8  UNK     1      35.238  -5.985  36.488  1.00  0.00    -0.004 C 
HETATM   32  C11 UNK     1      34.482  -4.919  35.711  1.00  0.00     0.005 C 
ENDBRANCH  30  31
ENDBRANCH   2  30
TORSDOF 5
ENDMDL
MODEL 7
REMARK VINA RESULT:      -8.5      5.480      8.357
REMARK  5 active torsions:
REMARK  status: ('A' for Active; 'I' for Inactive)
REMARK    1  A    between atoms: C10_17  and  N1_6 
REMARK       I    between atoms: C13_20  and  N1_6 
REMARK       I    between atoms: C12_19  and  N2_7 
REMARK    2  A    between atoms: C1_8  and  C5_12 
REMARK    3  A    between atoms: C5_12  and  C8_15 
REMARK    4  A    between atoms: C12_19  and  C9_16 
REMARK    5  A    between atoms: C13_20  and  C14_21 
ROOT
HETATM    1  S1  UNK     1      19.199  -0.714  32.400  1.00  0.00    -0.075 SA
HETATM    2  C1  UNK     1      18.861   3.133  30.989  1.00  0.00    -0.010 C 
HETATM    3  C2  UNK     1      17.801   3.576  32.020  1.00  0.00     0.009 C 
HETATM    4  C3  UNK     1      18.883   1.594  30.842  1.00  0.00     0.051 C 
HETATM    5  C4  UNK     1      18.094   3.005  33.417  1.00  0.00     0.041 C 
HETATM    6  C6  UNK     1      18.450   1.553  33.361  1.00  0.00    -0.026 A 
HETATM    7  C7  UNK     1      18.828   0.933  32.185  1.00  0.00    -0.008 A 
HETATM    8  C9  UNK     1      18.478   0.643  34.460  1.00  0.00     0.073 A 
HETATM    9  C10 UNK     1      18.867  -0.623  34.077  1.00  0.00     0.093 A 
ENDROOT
BRANCH   9  10
HETATM   10  N1  UNK     1      19.025  -1.776  34.796  1.00  0.00    -0.316 N 
HETATM   11  C13 UNK     1      20.226  -2.462  35.027  1.00  0.00     0.262 C 
HETATM   12  O2  UNK     1      21.351  -2.176  34.640  1.00  0.00    -0.267 OA
HETATM   13  H15 UNK     1      18.164  -2.160  35.176  1.00  0.00     0.169 HD
BRANCH  11  14
HETATM   14  C14 UNK     1      20.033  -3.677  35.847  1.00  0.00     0.108 A 
HETATM   15  C15 UNK     1      20.063  -4.843  35.192  1.00  0.00     0.037 A 
HETATM   16  C16 UNK     1      19.884  -6.094  35.912  1.00  0.00    -0.001 A 
HETATM   17  C18 UNK     1      19.682  -6.055  37.288  1.00  0.00     0.089 A 
HETATM   18  C19 UNK     1      19.907  -7.334  35.269  1.00  0.00     0.014 A 
HETATM   19  O3  UNK     1      19.652  -4.824  37.973  1.00  0.00    -0.274 OA
HETATM   20  C20 UNK     1      19.503  -7.217  38.037  1.00  0.00     0.038 A 
HETATM   21  C17 UNK     1      19.821  -3.611  37.310  1.00  0.00     0.304 A 
HETATM   22  O4  UNK     1      19.792  -2.545  37.914  1.00  0.00    -0.259 OA
HETATM   23  C22 UNK     1      19.528  -8.449  37.388  1.00  0.00     0.003 A 
HETATM   24  C21 UNK     1      19.730  -8.508  36.007  1.00  0.00     0.001 A 
ENDBRANCH  11  14
ENDBRANCH   9  10
BRANCH   8  25
HETATM   25  C12 UNK     1      18.150   0.969  35.825  1.00  0.00     0.252 C 
HETATM   26  O1  UNK     1      18.933   1.560  36.591  1.00  0.00    -0.268 OA
HETATM   27  N2  UNK     1      16.881   0.619  36.280  1.00  0.00    -0.366 N 
HETATM   28  H16 UNK     1      16.206   0.144  35.687  1.00  0.00     0.159 HD
HETATM   29  H17 UNK     1      16.590   0.830  37.229  1.00  0.00     0.159 HD
ENDBRANCH   8  25
BRANCH   2  30
HETATM   30  C5  UNK     1      18.612   3.795  29.636  1.00  0.00     0.004 C 
BRANCH  30  31
HETATM   31  C8  UNK     1      18.724   5.312  29.734  1.00  0.00    -0.004 C 
HETATM   32  C11 UNK     1      20.104   5.733  30.214  1.00  0.00     0.005 C 
ENDBRANCH  30  31
ENDBRANCH   2  30
TORSDOF 5
ENDMDL
MODEL 8
REMARK VINA RESULT:      -8.5      2.091      2.911
REMARK  5 active torsions:
REMARK  status: ('A' for Active; 'I' for Inactive)
REMARK    1  A    between atoms: C10_17  and  N1_6 
REMARK       I    between atoms: C13_20  and  N1_6 
REMARK       I    between atoms: C12_19  and  N2_7 
REMARK    2  A    between atoms: C1_8  and  C5_12 
REMARK    3  A    between atoms: C5_12  and  C8_15 
REMARK    4  A    between atoms: C12_19  and  C9_16 
REMARK    5  A    between atoms: C13_20  and  C14_21 
ROOT
HETATM    1  S1  UNK     1      17.958   8.552  33.735  1.00  0.00    -0.075 SA
HETATM    2  C1  UNK     1      15.898  11.996  34.631  1.00  0.00    -0.010 C 
HETATM    3  C2  UNK     1      14.824  11.814  33.537  1.00  0.00     0.009 C 
HETATM    4  C3  UNK     1      17.170  11.181  34.300  1.00  0.00     0.051 C 
HETATM    5  C4  UNK     1      14.385  10.347  33.409  1.00  0.00     0.041 C 
HETATM    6  C6  UNK     1      15.556   9.415  33.400  1.00  0.00    -0.026 A 
HETATM    7  C7  UNK     1      16.810   9.806  33.830  1.00  0.00    -0.008 A 
HETATM    8  C9  UNK     1      15.550   8.047  32.993  1.00  0.00     0.073 A 
HETATM    9  C10 UNK     1      16.790   7.460  33.123  1.00  0.00     0.093 A 
ENDROOT
BRANCH   9  10
HETATM   10  N1  UNK     1      17.222   6.190  32.852  1.00  0.00    -0.316 N 
HETATM   11  C13 UNK     1      17.976   5.779  31.744  1.00  0.00     0.262 C 
HETATM   12  O2  UNK     1      18.391   6.457  30.814  1.00  0.00    -0.267 OA
HETATM   13  H15 UNK     1      16.937   5.491  33.534  1.00  0.00     0.169 HD
BRANCH  11  14
HETATM   14  C14 UNK     1      18.269   4.331  31.766  1.00  0.00     0.108 A 
HETATM   15  C15 UNK     1      18.551   3.767  30.586  1.00  0.00     0.037 A 
HETATM   16  C16 UNK     1      18.853   2.346  30.505  1.00  0.00    -0.001 A 
HETATM   17  C18 UNK     1      18.843   1.589  31.673  1.00  0.00     0.089 A 
HETATM   18  C19 UNK     1      19.153   1.716  29.295  1.00  0.00     0.014 A 
HETATM   19  O3  UNK     1      18.545   2.189  32.912  1.00  0.00    -0.274 OA
HETATM   20  C20 UNK     1      19.122   0.224  31.664  1.00  0.00     0.038 A 
HETATM   21  C17 UNK     1      18.252   3.545  33.020  1.00  0.00     0.304 A 
HETATM   22  O4  UNK     1      17.993   4.058  34.103  1.00  0.00    -0.259 OA
HETATM   23  C22 UNK     1      19.421  -0.397  30.454  1.00  0.00     0.003 A 
HETATM   24  C21 UNK     1      19.436   0.347  29.271  1.00  0.00     0.001 A 
ENDBRANCH  11  14
ENDBRANCH   9  10
BRANCH   8  25
HETATM   25  C12 UNK     1      14.402   7.327  32.502  1.00  0.00     0.252 C 
HETATM   26  O1  UNK     1      14.313   6.901  31.335  1.00  0.00    -0.268 OA
HETATM   27  N2  UNK     1      13.365   7.085  33.399  1.00  0.00    -0.366 N 
HETATM   28  H16 UNK     1      13.398   7.407  34.362  1.00  0.00     0.159 HD
HETATM   29  H17 UNK     1      12.534   6.576  33.113  1.00  0.00     0.159 HD
ENDBRANCH   8  25
BRANCH   2  30
HETATM   30  C5  UNK     1      16.242  13.472  34.815  1.00  0.00     0.004 C 
BRANCH  30  31
HETATM   31  C8  UNK     1      15.912  14.276  33.563  1.00  0.00    -0.004 C 
HETATM   32  C11 UNK     1      17.168  14.859  32.935  1.00  0.00     0.005 C 
ENDBRANCH  30  31
ENDBRANCH   2  30
TORSDOF 5
ENDMDL
MODEL 9
REMARK VINA RESULT:      -8.4      2.365      9.640
REMARK  5 active torsions:
REMARK  status: ('A' for Active; 'I' for Inactive)
REMARK    1  A    between atoms: C10_17  and  N1_6 
REMARK       I    between atoms: C13_20  and  N1_6 
REMARK       I    between atoms: C12_19  and  N2_7 
REMARK    2  A    between atoms: C1_8  and  C5_12 
REMARK    3  A    between atoms: C5_12  and  C8_15 
REMARK    4  A    between atoms: C12_19  and  C9_16 
REMARK    5  A    between atoms: C13_20  and  C14_21 
ROOT
HETATM    1  S1  UNK     1      17.899   4.162  33.469  1.00  0.00    -0.075 SA
HETATM    2  C1  UNK     1      19.321   0.878  31.445  1.00  0.00    -0.010 C 
HETATM    3  C2  UNK     1      18.949   1.398  30.040  1.00  0.00     0.009 C 
HETATM    4  C3  UNK     1      18.486   1.585  32.537  1.00  0.00     0.051 C 
HETATM    5  C4  UNK     1      19.226   2.904  29.899  1.00  0.00     0.041 C 
HETATM    6  C6  UNK     1      18.731   3.673  31.083  1.00  0.00    -0.026 A 
HETATM    7  C7  UNK     1      18.420   3.059  32.282  1.00  0.00    -0.008 A 
HETATM    8  C9  UNK     1      18.539   5.086  31.158  1.00  0.00     0.073 A 
HETATM    9  C10 UNK     1      18.090   5.484  32.398  1.00  0.00     0.093 A 
ENDROOT
BRANCH   9  10
HETATM   10  N1  UNK     1      17.782   6.723  32.893  1.00  0.00    -0.316 N 
HETATM   11  C13 UNK     1      18.657   7.609  33.536  1.00  0.00     0.262 C 
HETATM   12  O2  UNK     1      19.847   7.460  33.781  1.00  0.00    -0.267 OA
HETATM   13  H15 UNK     1      16.808   6.993  32.783  1.00  0.00     0.169 HD
BRANCH  11  14
HETATM   14  C14 UNK     1      17.990   8.863  33.945  1.00  0.00     0.108 A 
HETATM   15  C15 UNK     1      18.654   9.996  33.690  1.00  0.00     0.037 A 
HETATM   16  C16 UNK     1      18.080  11.282  34.054  1.00  0.00    -0.001 A 
HETATM   17  C18 UNK     1      16.832  11.310  34.671  1.00  0.00     0.089 A 
HETATM   18  C19 UNK     1      18.737  12.490  33.807  1.00  0.00     0.014 A 
HETATM   19  O3  UNK     1      16.137  10.114  34.937  1.00  0.00    -0.274 OA
HETATM   20  C20 UNK     1      16.227  12.508  35.046  1.00  0.00     0.038 A 
HETATM   21  C17 UNK     1      16.663   8.870  34.599  1.00  0.00     0.304 A 
HETATM   22  O4  UNK     1      16.051   7.834  34.836  1.00  0.00    -0.259 OA
HETATM   23  C22 UNK     1      16.889  13.707  34.796  1.00  0.00     0.003 A 
HETATM   24  C21 UNK     1      18.142  13.698  34.178  1.00  0.00     0.001 A 
ENDBRANCH  11  14
ENDBRANCH   9  10
BRANCH   8  25
HETATM   25  C12 UNK     1      18.781   6.020  30.087  1.00  0.00     0.252 C 
HETATM   26  O1  UNK     1      19.920   6.299  29.671  1.00  0.00    -0.268 OA
HETATM   27  N2  UNK     1      17.670   6.610  29.489  1.00  0.00    -0.366 N 
HETATM   28  H16 UNK     1      16.722   6.406  29.791  1.00  0.00     0.159 HD
HETATM   29  H17 UNK     1      17.777   7.270  28.725  1.00  0.00     0.159 HD
ENDBRANCH   8  25
BRANCH   2  30
HETATM   30  C5  UNK     1      19.138  -0.636  31.530  1.00  0.00     0.004 C 
BRANCH  30  31
HETATM   31  C8  UNK     1      20.442  -1.367  31.231  1.00  0.00    -0.004 C 
HETATM   32  C11 UNK     1      20.412  -2.007  29.853  1.00  0.00     0.005 C 
ENDBRANCH  30  31
ENDBRANCH   2  30
TORSDOF 5
ENDMDL
MODEL 10
REMARK VINA RESULT:      -8.4      7.780     12.904
REMARK  5 active torsions:
REMARK  status: ('A' for Active; 'I' for Inactive)
REMARK    1  A    between atoms: C10_17  and  N1_6 
REMARK       I    between atoms: C13_20  and  N1_6 
REMARK       I    between atoms: C12_19  and  N2_7 
REMARK    2  A    between atoms: C1_8  and  C5_12 
REMARK    3  A    between atoms: C5_12  and  C8_15 
REMARK    4  A    between atoms: C12_19  and  C9_16 
REMARK    5  A    between atoms: C13_20  and  C14_21 
ROOT
HETATM    1  S1  UNK     1      19.755  -6.245  35.030  1.00  0.00    -0.075 SA
HETATM    2  C1  UNK     1      19.903  -8.621  38.382  1.00  0.00    -0.010 C 
HETATM    3  C2  UNK     1      20.769  -7.649  39.213  1.00  0.00     0.009 C 
HETATM    4  C3  UNK     1      20.050  -8.338  36.869  1.00  0.00     0.051 C 
HETATM    5  C4  UNK     1      20.350  -6.186  38.996  1.00  0.00     0.041 C 
HETATM    6  C6  UNK     1      20.146  -5.876  37.547  1.00  0.00    -0.026 A 
HETATM    7  C7  UNK     1      19.990  -6.867  36.597  1.00  0.00    -0.008 A 
HETATM    8  C9  UNK     1      20.061  -4.577  36.961  1.00  0.00     0.073 A 
HETATM    9  C10 UNK     1      19.851  -4.633  35.600  1.00  0.00     0.093 A 
ENDROOT
BRANCH   9  10
HETATM   10  N1  UNK     1      19.710  -3.643  34.665  1.00  0.00    -0.316 N 
HETATM   11  C13 UNK     1      20.623  -2.616  34.388  1.00  0.00     0.262 C 
HETATM   12  O2  UNK     1      21.706  -2.399  34.915  1.00  0.00    -0.267 OA
HETATM   13  H15 UNK     1      18.837  -3.673  34.145  1.00  0.00     0.169 HD
BRANCH  11  14
HETATM   14  C14 UNK     1      20.152  -1.717  33.314  1.00  0.00     0.108 A 
HETATM   15  C15 UNK     1      20.616  -1.970  32.085  1.00  0.00     0.037 A 
HETATM   16  C16 UNK     1      20.209  -1.140  30.962  1.00  0.00    -0.001 A 
HETATM   17  C18 UNK     1      19.332  -0.083  31.189  1.00  0.00     0.089 A 
HETATM   18  C19 UNK     1      20.668  -1.368  29.662  1.00  0.00     0.014 A 
HETATM   19  O3  UNK     1      18.847   0.178  32.485  1.00  0.00    -0.274 OA
HETATM   20  C20 UNK     1      18.905   0.750  30.157  1.00  0.00     0.038 A 
HETATM   21  C17 UNK     1      19.219  -0.599  33.579  1.00  0.00     0.304 A 
HETATM   22  O4  UNK     1      18.792  -0.363  34.704  1.00  0.00    -0.259 OA
HETATM   23  C22 UNK     1      19.367   0.516  28.864  1.00  0.00     0.003 A 
HETATM   24  C21 UNK     1      20.247  -0.541  28.617  1.00  0.00     0.001 A 
ENDBRANCH  11  14
ENDBRANCH   9  10
BRANCH   8  25
HETATM   25  C12 UNK     1      20.172  -3.329  37.674  1.00  0.00     0.252 C 
HETATM   26  O1  UNK     1      21.255  -2.875  38.087  1.00  0.00    -0.268 OA
HETATM   27  N2  UNK     1      19.002  -2.602  37.879  1.00  0.00    -0.366 N 
HETATM   28  H16 UNK     1      18.098  -2.930  37.551  1.00  0.00     0.159 HD
HETATM   29  H17 UNK     1      19.019  -1.712  38.367  1.00  0.00     0.159 HD
ENDBRANCH   8  25
BRANCH   2  30
HETATM   30  C5  UNK     1      20.265 -10.071  38.692  1.00  0.00     0.004 C 
BRANCH  30  31
HETATM   31  C8  UNK     1      20.151 -10.947  37.449  1.00  0.00    -0.004 C 
HETATM   32  C11 UNK     1      21.497 -11.101  36.758  1.00  0.00     0.005 C 
ENDBRANCH  30  31
ENDBRANCH   2  30
TORSDOF 5
ENDMDL
