MODEL 1
REMARK VINA RESULT:     -10.2      0.000      0.000
REMARK  7 active torsions:
REMARK  status: ('A' for Active; 'I' for Inactive)
REMARK    1  A    between atoms: C20_27  and  O4_4 
REMARK    2  A    between atoms: C5_12  and  N1_5 
REMARK    3  A    between atoms: C6_13  and  N2_6 
REMARK    4  A    between atoms: C18_25  and  N3_7 
REMARK       I    between atoms: C9_16  and  N3_7 
REMARK    5  A    between atoms: C5_12  and  C7_14 
REMARK    6  A    between atoms: C6_13  and  C9_16 
REMARK    7  A    between atoms: C13_20  and  C17_24 
ROOT
HETATM    1  N1  UNK     1      19.254  -3.088  36.211  1.00  0.00     0.096 N 
HETATM    2  N2  UNK     1      18.335  -0.432  35.534  1.00  0.00     0.100 N 
HETATM    3  C1  UNK     1      18.590  -2.235  37.203  1.00  0.00     0.303 C 
HETATM    4  C2  UNK     1      19.959  -2.267  35.219  1.00  0.00     0.303 C 
HETATM    5  C3  UNK     1      17.629  -1.253  36.524  1.00  0.00     0.303 C 
HETATM    6  C4  UNK     1      18.998  -1.285  34.539  1.00  0.00     0.303 C 
ENDROOT
BRANCH   1   7
HETATM    7  C5  UNK     1      20.173  -4.021  36.860  1.00  0.00     0.312 C 
BRANCH   7   8
HETATM    8  C7  UNK     1      19.724  -5.436  36.727  1.00  0.00    -0.011 A 
HETATM    9  C10 UNK     1      18.594  -5.744  36.074  1.00  0.00     0.092 A 
HETATM   10  C14 UNK     1      18.109  -7.126  35.918  1.00  0.00     0.288 A 
HETATM   11  O1  UNK     1      18.883  -8.126  36.484  1.00  0.00    -0.275 OA
HETATM   12  O3  UNK     1      17.071  -7.369  35.311  1.00  0.00    -0.260 OA
HETATM   13  C11 UNK     1      20.076  -7.832  37.176  1.00  0.00     0.090 A 
HETATM   14  C8  UNK     1      20.523  -6.518  37.318  1.00  0.00     0.007 A 
HETATM   15  C15 UNK     1      20.774  -8.918  37.707  1.00  0.00     0.039 A 
HETATM   16  C12 UNK     1      21.717  -6.310  38.020  1.00  0.00     0.022 A 
HETATM   17  C13 UNK     1      22.429  -7.388  38.558  1.00  0.00    -0.058 A 
HETATM   18  C16 UNK     1      21.957  -8.691  38.400  1.00  0.00     0.010 A 
BRANCH  17  19
HETATM   19  C17 UNK     1      23.698  -7.143  39.302  1.00  0.00     0.034 C 
HETATM   20  C19 UNK     1      24.853  -7.989  38.773  1.00  0.00     0.010 C 
ENDBRANCH  17  19
ENDBRANCH   7   8
ENDBRANCH   1   7
BRANCH   2  21
HETATM   21  C6  UNK     1      17.418   0.503  34.886  1.00  0.00     0.375 C 
BRANCH  21  22
HETATM   22  C9  UNK     1      18.198   1.698  34.364  1.00  0.00     0.250 C 
HETATM   23  O2  UNK     1      19.135   2.195  34.981  1.00  0.00    -0.271 OA
HETATM   24  N3  UNK     1      17.693   2.101  33.130  1.00  0.00    -0.323 N 
HETATM   25  H15 UNK     1      16.916   1.575  32.740  1.00  0.00     0.169 HD
BRANCH  24  26
HETATM   26  C18 UNK     1      18.144   3.172  32.322  1.00  0.00     0.069 A 
HETATM   27  C20 UNK     1      18.400   2.980  30.965  1.00  0.00     0.095 A 
HETATM   28  C23 UNK     1      18.844   4.045  30.180  1.00  0.00     0.039 A 
HETATM   29  C24 UNK     1      19.031   5.303  30.755  1.00  0.00     0.009 A 
HETATM   30  C22 UNK     1      18.776   5.494  32.113  1.00  0.00    -0.060 A 
HETATM   31  C21 UNK     1      18.332   4.429  32.896  1.00  0.00     0.039 A 
HETATM   32  C25 UNK     1      18.977   6.839  32.727  1.00  0.00     0.048 C 
BRANCH  27  33
HETATM   33  O4  UNK     1      18.223   1.760  30.384  1.00  0.00    -0.354 OA
HETATM   34  C26 UNK     1      17.985   1.741  28.977  1.00  0.00     0.210 C 
ENDBRANCH  27  33
ENDBRANCH  24  26
ENDBRANCH  21  22
ENDBRANCH   2  21
TORSDOF 7
ENDMDL
MODEL 2
REMARK VINA RESULT:     -10.0      2.278      2.882
REMARK  7 active torsions:
REMARK  status: ('A' for Active; 'I' for Inactive)
REMARK    1  A    between atoms: C20_27  and  O4_4 
REMARK    2  A    between atoms: C5_12  and  N1_5 
REMARK    3  A    between atoms: C6_13  and  N2_6 
REMARK    4  A    between atoms: C18_25  and  N3_7 
REMARK       I    between atoms: C9_16  and  N3_7 
REMARK    5  A    between atoms: C5_12  and  C7_14 
REMARK    6  A    between atoms: C6_13  and  C9_16 
REMARK    7  A    between atoms: C13_20  and  C17_24 
ROOT
HETATM    1  N1  UNK     1      19.303  -3.752  36.399  1.00  0.00     0.096 N 
HETATM    2  N2  UNK     1      18.958  -0.931  35.865  1.00  0.00     0.100 N 
HETATM    3  C1  UNK     1      18.527  -2.894  37.302  1.00  0.00     0.303 C 
HETATM    4  C2  UNK     1      20.345  -2.971  35.720  1.00  0.00     0.303 C 
HETATM    5  C3  UNK     1      17.916  -1.712  36.542  1.00  0.00     0.303 C 
HETATM    6  C4  UNK     1      19.733  -1.789  34.960  1.00  0.00     0.303 C 
ENDROOT
BRANCH   1   7
HETATM    7  C5  UNK     1      19.889  -4.876  37.126  1.00  0.00     0.312 C 
BRANCH   7   8
HETATM    8  C7  UNK     1      19.229  -6.169  36.788  1.00  0.00    -0.011 A 
HETATM    9  C10 UNK     1      18.250  -6.226  35.875  1.00  0.00     0.092 A 
HETATM   10  C14 UNK     1      17.567  -7.479  35.508  1.00  0.00     0.288 A 
HETATM   11  O1  UNK     1      17.985  -8.630  36.157  1.00  0.00    -0.275 OA
HETATM   12  O3  UNK     1      16.675  -7.493  34.665  1.00  0.00    -0.260 OA
HETATM   13  C11 UNK     1      19.013  -8.600  37.122  1.00  0.00     0.090 A 
HETATM   14  C8  UNK     1      19.649  -7.406  37.460  1.00  0.00     0.007 A 
HETATM   15  C15 UNK     1      19.350  -9.819  37.712  1.00  0.00     0.039 A 
HETATM   16  C12 UNK     1      20.660  -7.460  38.429  1.00  0.00     0.022 A 
HETATM   17  C13 UNK     1      21.011  -8.674  39.030  1.00  0.00    -0.058 A 
HETATM   18  C16 UNK     1      20.357  -9.852  38.671  1.00  0.00     0.010 A 
BRANCH  17  19
HETATM   19  C17 UNK     1      22.090  -8.709  40.059  1.00  0.00     0.034 C 
HETATM   20  C19 UNK     1      22.892  -7.411  40.104  1.00  0.00     0.010 C 
ENDBRANCH  17  19
ENDBRANCH   7   8
ENDBRANCH   1   7
BRANCH   2  21
HETATM   21  C6  UNK     1      18.374   0.194  35.139  1.00  0.00     0.375 C 
BRANCH  21  22
HETATM   22  C9  UNK     1      18.203  -0.181  33.676  1.00  0.00     0.250 C 
HETATM   23  O2  UNK     1      17.365  -0.992  33.296  1.00  0.00    -0.271 OA
HETATM   24  N3  UNK     1      19.113   0.522  32.890  1.00  0.00    -0.323 N 
HETATM   25  H15 UNK     1      19.740   1.173  33.356  1.00  0.00     0.169 HD
BRANCH  24  26
HETATM   26  C18 UNK     1      19.274   0.453  31.485  1.00  0.00     0.069 A 
HETATM   27  C20 UNK     1      20.194  -0.428  30.917  1.00  0.00     0.095 A 
HETATM   28  C23 UNK     1      20.341  -0.485  29.531  1.00  0.00     0.039 A 
HETATM   29  C24 UNK     1      19.568   0.339  28.713  1.00  0.00     0.009 A 
HETATM   30  C22 UNK     1      18.648   1.221  29.282  1.00  0.00    -0.060 A 
HETATM   31  C21 UNK     1      18.501   1.277  30.668  1.00  0.00     0.039 A 
HETATM   32  C25 UNK     1      17.821   2.102  28.408  1.00  0.00     0.048 C 
BRANCH  27  33
HETATM   33  O4  UNK     1      20.959  -1.242  31.698  1.00  0.00    -0.354 OA
HETATM   34  C26 UNK     1      20.758  -2.648  31.560  1.00  0.00     0.210 C 
ENDBRANCH  27  33
ENDBRANCH  24  26
ENDBRANCH  21  22
ENDBRANCH   2  21
TORSDOF 7
ENDMDL
MODEL 3
REMARK VINA RESULT:      -9.8      1.446      2.473
REMARK  7 active torsions:
REMARK  status: ('A' for Active; 'I' for Inactive)
REMARK    1  A    between atoms: C20_27  and  O4_4 
REMARK    2  A    between atoms: C5_12  and  N1_5 
REMARK    3  A    between atoms: C6_13  and  N2_6 
REMARK    4  A    between atoms: C18_25  and  N3_7 
REMARK       I    between atoms: C9_16  and  N3_7 
REMARK    5  A    between atoms: C5_12  and  C7_14 
REMARK    6  A    between atoms: C6_13  and  C9_16 
REMARK    7  A    between atoms: C13_20  and  C17_24 
ROOT
HETATM    1  N1  UNK     1      19.569  -3.638  36.295  1.00  0.00     0.096 N 
HETATM    2  N2  UNK     1      19.068  -0.798  36.075  1.00  0.00     0.100 N 
HETATM    3  C1  UNK     1      19.258  -2.825  37.476  1.00  0.00     0.303 C 
HETATM    4  C2  UNK     1      20.238  -2.821  35.273  1.00  0.00     0.303 C 
HETATM    5  C3  UNK     1      18.398  -1.614  37.096  1.00  0.00     0.303 C 
HETATM    6  C4  UNK     1      19.378  -1.611  34.892  1.00  0.00     0.303 C 
ENDROOT
BRANCH   1   7
HETATM    7  C5  UNK     1      20.392  -4.790  36.659  1.00  0.00     0.312 C 
BRANCH   7   8
HETATM    8  C7  UNK     1      19.634  -6.070  36.575  1.00  0.00    -0.011 A 
HETATM    9  C10 UNK     1      18.607  -6.210  35.726  1.00  0.00     0.092 A 
HETATM   10  C14 UNK     1      17.828  -7.455  35.608  1.00  0.00     0.288 A 
HETATM   11  O1  UNK     1      18.205  -8.506  36.428  1.00  0.00    -0.275 OA
HETATM   12  O3  UNK     1      16.894  -7.547  34.817  1.00  0.00    -0.260 OA
HETATM   13  C11 UNK     1      19.281  -8.388  37.331  1.00  0.00     0.090 A 
HETATM   14  C8  UNK     1      20.009  -7.202  37.433  1.00  0.00     0.007 A 
HETATM   15  C15 UNK     1      19.570  -9.510  38.108  1.00  0.00     0.039 A 
HETATM   16  C12 UNK     1      21.064  -7.165  38.354  1.00  0.00     0.022 A 
HETATM   17  C13 UNK     1      21.368  -8.281  39.141  1.00  0.00    -0.058 A 
HETATM   18  C16 UNK     1      20.621  -9.453  39.017  1.00  0.00     0.010 A 
BRANCH  17  19
HETATM   19  C17 UNK     1      22.494  -8.219  40.116  1.00  0.00     0.034 C 
HETATM   20  C19 UNK     1      23.831  -7.924  39.441  1.00  0.00     0.010 C 
ENDBRANCH  17  19
ENDBRANCH   7   8
ENDBRANCH   1   7
BRANCH   2  21
HETATM   21  C6  UNK     1      18.248   0.355  35.712  1.00  0.00     0.375 C 
BRANCH  21  22
HETATM   22  C9  UNK     1      17.932   0.302  34.226  1.00  0.00     0.250 C 
HETATM   23  O2  UNK     1      17.043  -0.407  33.765  1.00  0.00    -0.271 OA
HETATM   24  N3  UNK     1      18.779   1.156  33.524  1.00  0.00    -0.323 N 
HETATM   25  H15 UNK     1      19.462   1.691  34.055  1.00  0.00     0.169 HD
BRANCH  24  26
HETATM   26  C18 UNK     1      18.805   1.389  32.128  1.00  0.00     0.069 A 
HETATM   27  C20 UNK     1      18.281   2.566  31.593  1.00  0.00     0.095 A 
HETATM   28  C23 UNK     1      18.313   2.782  30.216  1.00  0.00     0.039 A 
HETATM   29  C24 UNK     1      18.870   1.820  29.372  1.00  0.00     0.009 A 
HETATM   30  C22 UNK     1      19.394   0.643  29.907  1.00  0.00    -0.060 A 
HETATM   31  C21 UNK     1      19.361   0.428  31.284  1.00  0.00     0.039 A 
HETATM   32  C25 UNK     1      19.989  -0.386  29.005  1.00  0.00     0.048 C 
BRANCH  27  33
HETATM   33  O4  UNK     1      17.733   3.518  32.400  1.00  0.00    -0.354 OA
HETATM   34  C26 UNK     1      17.917   4.879  32.013  1.00  0.00     0.210 C 
ENDBRANCH  27  33
ENDBRANCH  24  26
ENDBRANCH  21  22
ENDBRANCH   2  21
TORSDOF 7
ENDMDL
MODEL 4
REMARK VINA RESULT:      -9.5      5.587      8.510
REMARK  7 active torsions:
REMARK  status: ('A' for Active; 'I' for Inactive)
REMARK    1  A    between atoms: C20_27  and  O4_4 
REMARK    2  A    between atoms: C5_12  and  N1_5 
REMARK    3  A    between atoms: C6_13  and  N2_6 
REMARK    4  A    between atoms: C18_25  and  N3_7 
REMARK       I    between atoms: C9_16  and  N3_7 
REMARK    5  A    between atoms: C5_12  and  C7_14 
REMARK    6  A    between atoms: C6_13  and  C9_16 
REMARK    7  A    between atoms: C13_20  and  C17_24 
ROOT
HETATM    1  N1  UNK     1      18.891   3.664  31.291  1.00  0.00     0.096 N 
HETATM    2  N2  UNK     1      19.198   6.337  32.351  1.00  0.00     0.100 N 
HETATM    3  C1  UNK     1      19.372   4.767  30.450  1.00  0.00     0.303 C 
HETATM    4  C2  UNK     1      18.006   4.173  32.347  1.00  0.00     0.303 C 
HETATM    5  C3  UNK     1      20.084   5.828  31.296  1.00  0.00     0.303 C 
HETATM    6  C4  UNK     1      18.719   5.233  33.193  1.00  0.00     0.303 C 
ENDROOT
BRANCH   1   7
HETATM    7  C5  UNK     1      18.208   2.655  30.483  1.00  0.00     0.312 C 
BRANCH   7   8
HETATM    8  C7  UNK     1      18.936   1.355  30.476  1.00  0.00    -0.011 A 
HETATM    9  C10 UNK     1      19.611   0.947  29.392  1.00  0.00     0.092 A 
HETATM   10  C14 UNK     1      20.345  -0.329  29.337  1.00  0.00     0.288 A 
HETATM   11  O1  UNK     1      20.314  -1.115  30.477  1.00  0.00    -0.275 OA
HETATM   12  O3  UNK     1      20.953  -0.668  28.327  1.00  0.00    -0.260 OA
HETATM   13  C11 UNK     1      19.613  -0.712  31.632  1.00  0.00     0.090 A 
HETATM   14  C8  UNK     1      18.922   0.499  31.670  1.00  0.00     0.007 A 
HETATM   15  C15 UNK     1      19.650  -1.584  32.721  1.00  0.00     0.039 A 
HETATM   16  C12 UNK     1      18.250   0.827  32.854  1.00  0.00     0.022 A 
HETATM   17  C13 UNK     1      18.277  -0.036  33.955  1.00  0.00    -0.058 A 
HETATM   18  C16 UNK     1      18.977  -1.240  33.888  1.00  0.00     0.010 A 
BRANCH  17  19
HETATM   19  C17 UNK     1      17.554   0.333  35.207  1.00  0.00     0.034 C 
HETATM   20  C19 UNK     1      16.044   0.154  35.080  1.00  0.00     0.010 C 
ENDBRANCH  17  19
ENDBRANCH   7   8
ENDBRANCH   1   7
BRANCH   2  21
HETATM   21  C6  UNK     1      19.879   7.347  33.158  1.00  0.00     0.375 C 
BRANCH  21  22
HETATM   22  C9  UNK     1      18.880   8.000  34.098  1.00  0.00     0.250 C 
HETATM   23  O2  UNK     1      18.981   7.935  35.319  1.00  0.00    -0.271 OA
HETATM   24  N3  UNK     1      17.888   8.652  33.369  1.00  0.00    -0.323 N 
HETATM   25  H15 UNK     1      17.950   8.626  32.354  1.00  0.00     0.169 HD
BRANCH  24  26
HETATM   26  C18 UNK     1      16.781   9.376  33.873  1.00  0.00     0.069 A 
HETATM   27  C20 UNK     1      15.519   8.786  33.945  1.00  0.00     0.095 A 
HETATM   28  C23 UNK     1      14.437   9.511  34.445  1.00  0.00     0.039 A 
HETATM   29  C24 UNK     1      14.617  10.827  34.870  1.00  0.00     0.009 A 
HETATM   30  C22 UNK     1      15.879  11.418  34.796  1.00  0.00    -0.060 A 
HETATM   31  C21 UNK     1      16.961  10.691  34.298  1.00  0.00     0.039 A 
HETATM   32  C25 UNK     1      16.072  12.825  35.252  1.00  0.00     0.048 C 
BRANCH  27  33
HETATM   33  O4  UNK     1      15.321   7.501  33.535  1.00  0.00    -0.354 OA
HETATM   34  C26 UNK     1      14.496   7.307  32.388  1.00  0.00     0.210 C 
ENDBRANCH  27  33
ENDBRANCH  24  26
ENDBRANCH  21  22
ENDBRANCH   2  21
TORSDOF 7
ENDMDL
MODEL 5
REMARK VINA RESULT:      -9.4      3.619     11.192
REMARK  7 active torsions:
REMARK  status: ('A' for Active; 'I' for Inactive)
REMARK    1  A    between atoms: C20_27  and  O4_4 
REMARK    2  A    between atoms: C5_12  and  N1_5 
REMARK    3  A    between atoms: C6_13  and  N2_6 
REMARK    4  A    between atoms: C18_25  and  N3_7 
REMARK       I    between atoms: C9_16  and  N3_7 
REMARK    5  A    between atoms: C5_12  and  C7_14 
REMARK    6  A    between atoms: C6_13  and  C9_16 
REMARK    7  A    between atoms: C13_20  and  C17_24 
ROOT
HETATM    1  N1  UNK     1      19.969  -4.560  36.824  1.00  0.00     0.096 N 
HETATM    2  N2  UNK     1      20.124  -7.446  36.723  1.00  0.00     0.100 N 
HETATM    3  C1  UNK     1      20.010  -5.278  35.544  1.00  0.00     0.303 C 
HETATM    4  C2  UNK     1      20.674  -5.323  37.862  1.00  0.00     0.303 C 
HETATM    5  C3  UNK     1      19.418  -6.684  35.687  1.00  0.00     0.303 C 
HETATM    6  C4  UNK     1      20.081  -6.729  38.004  1.00  0.00     0.303 C 
ENDROOT
BRANCH   1   7
HETATM    7  C5  UNK     1      20.538  -3.221  36.688  1.00  0.00     0.312 C 
BRANCH   7   8
HETATM    8  C7  UNK     1      19.514  -2.213  36.293  1.00  0.00    -0.011 A 
HETATM    9  C10 UNK     1      18.701  -1.660  37.204  1.00  0.00     0.092 A 
HETATM   10  C14 UNK     1      17.674  -0.661  36.863  1.00  0.00     0.288 A 
HETATM   11  O1  UNK     1      17.575  -0.301  35.529  1.00  0.00    -0.275 OA
HETATM   12  O3  UNK     1      16.949  -0.176  37.725  1.00  0.00    -0.260 OA
HETATM   13  C11 UNK     1      18.416  -0.865  34.548  1.00  0.00     0.090 A 
HETATM   14  C8  UNK     1      19.384  -1.811  34.886  1.00  0.00     0.007 A 
HETATM   15  C15 UNK     1      18.226  -0.428  33.236  1.00  0.00     0.039 A 
HETATM   16  C12 UNK     1      20.180  -2.324  33.853  1.00  0.00     0.022 A 
HETATM   17  C13 UNK     1      20.002  -1.897  32.533  1.00  0.00    -0.058 A 
HETATM   18  C16 UNK     1      19.026  -0.949  32.225  1.00  0.00     0.010 A 
BRANCH  17  19
HETATM   19  C17 UNK     1      20.860  -2.456  31.449  1.00  0.00     0.034 C 
HETATM   20  C19 UNK     1      20.360  -2.076  30.058  1.00  0.00     0.010 C 
ENDBRANCH  17  19
ENDBRANCH   7   8
ENDBRANCH   1   7
BRANCH   2  21
HETATM   21  C6  UNK     1      19.557  -8.786  36.860  1.00  0.00     0.375 C 
BRANCH  21  22
HETATM   22  C9  UNK     1      20.673  -9.782  37.126  1.00  0.00     0.250 C 
HETATM   23  O2  UNK     1      20.518 -10.775  37.829  1.00  0.00    -0.271 OA
HETATM   24  N3  UNK     1      21.835  -9.391  36.464  1.00  0.00    -0.323 N 
HETATM   25  H15 UNK     1      21.800  -8.543  35.904  1.00  0.00     0.169 HD
BRANCH  24  26
HETATM   26  C18 UNK     1      23.089 -10.049  36.460  1.00  0.00     0.069 A 
HETATM   27  C20 UNK     1      24.229  -9.407  36.942  1.00  0.00     0.095 A 
HETATM   28  C23 UNK     1      25.458 -10.068  36.932  1.00  0.00     0.039 A 
HETATM   29  C24 UNK     1      25.546 -11.370  36.439  1.00  0.00     0.009 A 
HETATM   30  C22 UNK     1      24.405 -12.010  35.955  1.00  0.00    -0.060 A 
HETATM   31  C21 UNK     1      23.177 -11.350  35.966  1.00  0.00     0.039 A 
HETATM   32  C25 UNK     1      24.498 -13.403  35.428  1.00  0.00     0.048 C 
BRANCH  27  33
HETATM   33  O4  UNK     1      24.166  -8.136  37.429  1.00  0.00    -0.354 OA
HETATM   34  C26 UNK     1      23.962  -7.989  38.833  1.00  0.00     0.210 C 
ENDBRANCH  27  33
ENDBRANCH  24  26
ENDBRANCH  21  22
ENDBRANCH   2  21
TORSDOF 7
ENDMDL
MODEL 6
REMARK VINA RESULT:      -8.9      1.619     11.287
REMARK  7 active torsions:
REMARK  status: ('A' for Active; 'I' for Inactive)
REMARK    1  A    between atoms: C20_27  and  O4_4 
REMARK    2  A    between atoms: C5_12  and  N1_5 
REMARK    3  A    between atoms: C6_13  and  N2_6 
REMARK    4  A    between atoms: C18_25  and  N3_7 
REMARK       I    between atoms: C9_16  and  N3_7 
REMARK    5  A    between atoms: C5_12  and  C7_14 
REMARK    6  A    between atoms: C6_13  and  C9_16 
REMARK    7  A    between atoms: C13_20  and  C17_24 
ROOT
HETATM    1  N1  UNK     1      17.934   1.554  35.281  1.00  0.00     0.096 N 
HETATM    2  N2  UNK     1      18.473  -1.006  36.513  1.00  0.00     0.100 N 
HETATM    3  C1  UNK     1      18.979   0.663  34.763  1.00  0.00     0.303 C 
HETATM    4  C2  UNK     1      17.756   1.349  36.725  1.00  0.00     0.303 C 
HETATM    5  C3  UNK     1      18.650  -0.802  35.070  1.00  0.00     0.303 C 
HETATM    6  C4  UNK     1      17.426  -0.117  37.031  1.00  0.00     0.303 C 
ENDROOT
BRANCH   1   7
HETATM    7  C5  UNK     1      18.251   2.951  34.991  1.00  0.00     0.312 C 
BRANCH   7   8
HETATM    8  C7  UNK     1      18.274   3.229  33.528  1.00  0.00    -0.011 A 
HETATM    9  C10 UNK     1      18.241   2.231  32.634  1.00  0.00     0.092 A 
HETATM   10  C14 UNK     1      18.262   2.456  31.178  1.00  0.00     0.288 A 
HETATM   11  O1  UNK     1      18.317   3.774  30.752  1.00  0.00    -0.275 OA
HETATM   12  O3  UNK     1      18.229   1.517  30.390  1.00  0.00    -0.260 OA
HETATM   13  C11 UNK     1      18.352   4.845  31.669  1.00  0.00     0.090 A 
HETATM   14  C8  UNK     1      18.333   4.616  33.045  1.00  0.00     0.007 A 
HETATM   15  C15 UNK     1      18.408   6.129  31.127  1.00  0.00     0.039 A 
HETATM   16  C12 UNK     1      18.370   5.733  33.890  1.00  0.00     0.022 A 
HETATM   17  C13 UNK     1      18.426   7.028  33.363  1.00  0.00    -0.058 A 
HETATM   18  C16 UNK     1      18.444   7.225  31.982  1.00  0.00     0.010 A 
BRANCH  17  19
HETATM   19  C17 UNK     1      18.466   8.203  34.280  1.00  0.00     0.034 C 
HETATM   20  C19 UNK     1      19.884   8.725  34.493  1.00  0.00     0.010 C 
ENDBRANCH  17  19
ENDBRANCH   7   8
ENDBRANCH   1   7
BRANCH   2  21
HETATM   21  C6  UNK     1      18.158  -2.403  36.804  1.00  0.00     0.375 C 
BRANCH  21  22
HETATM   22  C9  UNK     1      19.441  -3.216  36.832  1.00  0.00     0.250 C 
HETATM   23  O2  UNK     1      20.549  -2.706  36.692  1.00  0.00    -0.271 OA
HETATM   24  N3  UNK     1      19.154  -4.563  37.037  1.00  0.00    -0.323 N 
HETATM   25  H15 UNK     1      18.178  -4.829  37.149  1.00  0.00     0.169 HD
BRANCH  24  26
HETATM   26  C18 UNK     1      20.070  -5.638  37.123  1.00  0.00     0.069 A 
HETATM   27  C20 UNK     1      20.054  -6.664  36.179  1.00  0.00     0.095 A 
HETATM   28  C23 UNK     1      20.964  -7.718  36.278  1.00  0.00     0.039 A 
HETATM   29  C24 UNK     1      21.890  -7.744  37.321  1.00  0.00     0.009 A 
HETATM   30  C22 UNK     1      21.904  -6.718  38.266  1.00  0.00    -0.060 A 
HETATM   31  C21 UNK     1      20.995  -5.665  38.167  1.00  0.00     0.039 A 
HETATM   32  C25 UNK     1      22.894  -6.746  39.382  1.00  0.00     0.048 C 
BRANCH  27  33
HETATM   33  O4  UNK     1      19.159  -6.658  35.152  1.00  0.00    -0.354 OA
HETATM   34  C26 UNK     1      17.945  -7.380  35.346  1.00  0.00     0.210 C 
ENDBRANCH  27  33
ENDBRANCH  24  26
ENDBRANCH  21  22
ENDBRANCH   2  21
TORSDOF 7
ENDMDL
MODEL 7
REMARK VINA RESULT:      -8.8      8.047     11.673
REMARK  7 active torsions:
REMARK  status: ('A' for Active; 'I' for Inactive)
REMARK    1  A    between atoms: C20_27  and  O4_4 
REMARK    2  A    between atoms: C5_12  and  N1_5 
REMARK    3  A    between atoms: C6_13  and  N2_6 
REMARK    4  A    between atoms: C18_25  and  N3_7 
REMARK       I    between atoms: C9_16  and  N3_7 
REMARK    5  A    between atoms: C5_12  and  C7_14 
REMARK    6  A    between atoms: C6_13  and  C9_16 
REMARK    7  A    between atoms: C13_20  and  C17_24 
ROOT
HETATM    1  N1  UNK     1      25.411  -8.304  38.507  1.00  0.00     0.096 N 
HETATM    2  N2  UNK     1      28.287  -8.416  38.233  1.00  0.00     0.100 N 
HETATM    3  C1  UNK     1      26.210  -7.083  38.343  1.00  0.00     0.303 C 
HETATM    4  C2  UNK     1      26.201  -9.348  39.172  1.00  0.00     0.303 C 
HETATM    5  C3  UNK     1      27.498  -7.373  37.566  1.00  0.00     0.303 C 
HETATM    6  C4  UNK     1      27.489  -9.638  38.394  1.00  0.00     0.303 C 
ENDROOT
BRANCH   1   7
HETATM    7  C5  UNK     1      24.185  -8.026  39.252  1.00  0.00     0.312 C 
BRANCH   7   8
HETATM    8  C7  UNK     1      23.070  -7.598  38.360  1.00  0.00    -0.011 A 
HETATM    9  C10 UNK     1      22.440  -6.431  38.553  1.00  0.00     0.092 A 
HETATM   10  C14 UNK     1      21.334  -5.965  37.699  1.00  0.00     0.288 A 
HETATM   11  O1  UNK     1      20.957  -6.797  36.658  1.00  0.00    -0.275 OA
HETATM   12  O3  UNK     1      20.782  -4.889  37.906  1.00  0.00    -0.260 OA
HETATM   13  C11 UNK     1      21.602  -8.031  36.430  1.00  0.00     0.090 A 
HETATM   14  C8  UNK     1      22.647  -8.460  37.248  1.00  0.00     0.007 A 
HETATM   15  C15 UNK     1      21.138  -8.787  35.353  1.00  0.00     0.039 A 
HETATM   16  C12 UNK     1      23.236  -9.697  36.955  1.00  0.00     0.022 A 
HETATM   17  C13 UNK     1      22.782 -10.468  35.879  1.00  0.00    -0.058 A 
HETATM   18  C16 UNK     1      21.735 -10.013  35.079  1.00  0.00     0.010 A 
BRANCH  17  19
HETATM   19  C17 UNK     1      23.423 -11.783  35.585  1.00  0.00     0.034 C 
HETATM   20  C19 UNK     1      24.882 -11.830  36.028  1.00  0.00     0.010 C 
ENDBRANCH  17  19
ENDBRANCH   7   8
ENDBRANCH   1   7
BRANCH   2  21
HETATM   21  C6  UNK     1      29.514  -8.694  37.490  1.00  0.00     0.375 C 
BRANCH  21  22
HETATM   22  C9  UNK     1      30.502  -7.558  37.703  1.00  0.00     0.250 C 
HETATM   23  O2  UNK     1      31.215  -7.482  38.698  1.00  0.00    -0.271 OA
HETATM   24  N3  UNK     1      30.458  -6.674  36.628  1.00  0.00    -0.323 N 
HETATM   25  H15 UNK     1      29.817  -6.884  35.866  1.00  0.00     0.169 HD
BRANCH  24  26
HETATM   26  C18 UNK     1      31.220  -5.494  36.449  1.00  0.00     0.069 A 
HETATM   27  C20 UNK     1      30.801  -4.286  37.005  1.00  0.00     0.095 A 
HETATM   28  C23 UNK     1      31.563  -3.132  36.820  1.00  0.00     0.039 A 
HETATM   29  C24 UNK     1      32.743  -3.186  36.078  1.00  0.00     0.009 A 
HETATM   30  C22 UNK     1      33.160  -4.395  35.521  1.00  0.00    -0.060 A 
HETATM   31  C21 UNK     1      32.399  -5.549  35.706  1.00  0.00     0.039 A 
HETATM   32  C25 UNK     1      34.422  -4.454  34.727  1.00  0.00     0.048 C 
BRANCH  27  33
HETATM   33  O4  UNK     1      29.652  -4.211  37.734  1.00  0.00    -0.354 OA
HETATM   34  C26 UNK     1      29.788  -3.999  39.138  1.00  0.00     0.210 C 
ENDBRANCH  27  33
ENDBRANCH  24  26
ENDBRANCH  21  22
ENDBRANCH   2  21
TORSDOF 7
ENDMDL
MODEL 8
REMARK VINA RESULT:      -8.8      3.187     11.279
REMARK  7 active torsions:
REMARK  status: ('A' for Active; 'I' for Inactive)
REMARK    1  A    between atoms: C20_27  and  O4_4 
REMARK    2  A    between atoms: C5_12  and  N1_5 
REMARK    3  A    between atoms: C6_13  and  N2_6 
REMARK    4  A    between atoms: C18_25  and  N3_7 
REMARK       I    between atoms: C9_16  and  N3_7 
REMARK    5  A    between atoms: C5_12  and  C7_14 
REMARK    6  A    between atoms: C6_13  and  C9_16 
REMARK    7  A    between atoms: C13_20  and  C17_24 
ROOT
HETATM    1  N1  UNK     1      18.083   3.333  30.671  1.00  0.00     0.096 N 
HETATM    2  N2  UNK     1      19.331   0.835  31.421  1.00  0.00     0.100 N 
HETATM    3  C1  UNK     1      18.998   2.634  29.761  1.00  0.00     0.303 C 
HETATM    4  C2  UNK     1      18.428   3.041  32.069  1.00  0.00     0.303 C 
HETATM    5  C3  UNK     1      18.985   1.124  30.025  1.00  0.00     0.303 C 
HETATM    6  C4  UNK     1      18.413   1.532  32.332  1.00  0.00     0.303 C 
ENDROOT
BRANCH   1   7
HETATM    7  C5  UNK     1      18.100   4.772  30.421  1.00  0.00     0.312 C 
BRANCH   7   8
HETATM    8  C7  UNK     1      18.853   5.516  31.471  1.00  0.00    -0.011 A 
HETATM    9  C10 UNK     1      20.192   5.491  31.508  1.00  0.00     0.092 A 
HETATM   10  C14 UNK     1      20.980   6.208  32.526  1.00  0.00     0.288 A 
HETATM   11  O1  UNK     1      20.268   6.933  33.468  1.00  0.00    -0.275 OA
HETATM   12  O3  UNK     1      22.206   6.163  32.527  1.00  0.00    -0.260 OA
HETATM   13  C11 UNK     1      18.859   6.978  33.454  1.00  0.00     0.090 A 
HETATM   14  C8  UNK     1      18.126   6.292  32.485  1.00  0.00     0.007 A 
HETATM   15  C15 UNK     1      18.248   7.738  34.452  1.00  0.00     0.039 A 
HETATM   16  C12 UNK     1      16.729   6.387  32.538  1.00  0.00     0.022 A 
HETATM   17  C13 UNK     1      16.101   7.145  33.533  1.00  0.00    -0.058 A 
HETATM   18  C16 UNK     1      16.861   7.820  34.488  1.00  0.00     0.010 A 
BRANCH  17  19
HETATM   19  C17 UNK     1      14.613   7.232  33.572  1.00  0.00     0.034 C 
HETATM   20  C19 UNK     1      13.992   7.199  32.178  1.00  0.00     0.010 C 
ENDBRANCH  17  19
ENDBRANCH   7   8
ENDBRANCH   1   7
BRANCH   2  21
HETATM   21  C6  UNK     1      19.316  -0.605  31.672  1.00  0.00     0.375 C 
BRANCH  21  22
HETATM   22  C9  UNK     1      18.521  -0.889  32.935  1.00  0.00     0.250 C 
HETATM   23  O2  UNK     1      17.364  -1.296  32.910  1.00  0.00    -0.271 OA
HETATM   24  N3  UNK     1      19.297  -0.626  34.062  1.00  0.00    -0.323 N 
HETATM   25  H15 UNK     1      20.251  -0.305  33.917  1.00  0.00     0.169 HD
BRANCH  24  26
HETATM   26  C18 UNK     1      18.922  -0.764  35.420  1.00  0.00     0.069 A 
HETATM   27  C20 UNK     1      19.171  -1.951  36.109  1.00  0.00     0.095 A 
HETATM   28  C23 UNK     1      18.795  -2.072  37.447  1.00  0.00     0.039 A 
HETATM   29  C24 UNK     1      18.170  -1.007  38.095  1.00  0.00     0.009 A 
HETATM   30  C22 UNK     1      17.921   0.180  37.405  1.00  0.00    -0.060 A 
HETATM   31  C21 UNK     1      18.297   0.301  36.067  1.00  0.00     0.039 A 
HETATM   32  C25 UNK     1      17.253   1.319  38.098  1.00  0.00     0.048 C 
BRANCH  27  33
HETATM   33  O4  UNK     1      19.781  -3.004  35.495  1.00  0.00    -0.354 OA
HETATM   34  C26 UNK     1      19.940  -4.197  36.261  1.00  0.00     0.210 C 
ENDBRANCH  27  33
ENDBRANCH  24  26
ENDBRANCH  21  22
ENDBRANCH   2  21
TORSDOF 7
ENDMDL
MODEL 9
REMARK VINA RESULT:      -8.7      4.474      7.413
REMARK  7 active torsions:
REMARK  status: ('A' for Active; 'I' for Inactive)
REMARK    1  A    between atoms: C20_27  and  O4_4 
REMARK    2  A    between atoms: C5_12  and  N1_5 
REMARK    3  A    between atoms: C6_13  and  N2_6 
REMARK    4  A    between atoms: C18_25  and  N3_7 
REMARK       I    between atoms: C9_16  and  N3_7 
REMARK    5  A    between atoms: C5_12  and  C7_14 
REMARK    6  A    between atoms: C6_13  and  C9_16 
REMARK    7  A    between atoms: C13_20  and  C17_24 
ROOT
HETATM    1  N1  UNK     1      18.326   1.955  33.273  1.00  0.00     0.096 N 
HETATM    2  N2  UNK     1      18.499   4.788  32.722  1.00  0.00     0.100 N 
HETATM    3  C1  UNK     1      18.006   2.495  31.946  1.00  0.00     0.303 C 
HETATM    4  C2  UNK     1      18.047   2.953  34.313  1.00  0.00     0.303 C 
HETATM    5  C3  UNK     1      18.780   3.791  31.682  1.00  0.00     0.303 C 
HETATM    6  C4  UNK     1      18.822   4.249  34.049  1.00  0.00     0.303 C 
ENDROOT
BRANCH   1   7
HETATM    7  C5  UNK     1      17.585   0.721  33.524  1.00  0.00     0.312 C 
BRANCH   7   8
HETATM    8  C7  UNK     1      18.474  -0.388  33.972  1.00  0.00    -0.011 A 
HETATM    9  C10 UNK     1      18.541  -0.742  35.263  1.00  0.00     0.092 A 
HETATM   10  C14 UNK     1      19.405  -1.830  35.753  1.00  0.00     0.288 A 
HETATM   11  O1  UNK     1      20.167  -2.495  34.806  1.00  0.00    -0.275 OA
HETATM   12  O3  UNK     1      19.439  -2.127  36.942  1.00  0.00    -0.260 OA
HETATM   13  C11 UNK     1      20.117  -2.145  33.441  1.00  0.00     0.090 A 
HETATM   14  C8  UNK     1      19.295  -1.112  32.991  1.00  0.00     0.007 A 
HETATM   15  C15 UNK     1      20.929  -2.882  32.577  1.00  0.00     0.039 A 
HETATM   16  C12 UNK     1      19.302  -0.825  31.620  1.00  0.00     0.022 A 
HETATM   17  C13 UNK     1      20.110  -1.555  30.740  1.00  0.00    -0.058 A 
HETATM   18  C16 UNK     1      20.922  -2.583  31.220  1.00  0.00     0.010 A 
BRANCH  17  19
HETATM   19  C17 UNK     1      20.103  -1.233  29.284  1.00  0.00     0.034 C 
HETATM   20  C19 UNK     1      19.735   0.223  29.013  1.00  0.00     0.010 C 
ENDBRANCH  17  19
ENDBRANCH   7   8
ENDBRANCH   1   7
BRANCH   2  21
HETATM   21  C6  UNK     1      19.239   6.023  32.471  1.00  0.00     0.375 C 
BRANCH  21  22
HETATM   22  C9  UNK     1      18.271   7.194  32.440  1.00  0.00     0.250 C 
HETATM   23  O2  UNK     1      17.522   7.406  31.492  1.00  0.00    -0.271 OA
HETATM   24  N3  UNK     1      18.378   7.938  33.613  1.00  0.00    -0.323 N 
HETATM   25  H15 UNK     1      19.042   7.623  34.316  1.00  0.00     0.169 HD
BRANCH  24  26
HETATM   26  C18 UNK     1      17.651   9.100  33.967  1.00  0.00     0.069 A 
HETATM   27  C20 UNK     1      16.335   9.006  34.418  1.00  0.00     0.095 A 
HETATM   28  C23 UNK     1      15.631  10.161  34.763  1.00  0.00     0.039 A 
HETATM   29  C24 UNK     1      16.245  11.409  34.657  1.00  0.00     0.009 A 
HETATM   30  C22 UNK     1      17.562  11.502  34.204  1.00  0.00    -0.060 A 
HETATM   31  C21 UNK     1      18.265  10.348  33.860  1.00  0.00     0.039 A 
HETATM   32  C25 UNK     1      18.218  12.837  34.091  1.00  0.00     0.048 C 
BRANCH  27  33
HETATM   33  O4  UNK     1      15.717   7.797  34.529  1.00  0.00    -0.354 OA
HETATM   34  C26 UNK     1      14.548   7.591  33.737  1.00  0.00     0.210 C 
ENDBRANCH  27  33
ENDBRANCH  24  26
ENDBRANCH  21  22
ENDBRANCH   2  21
TORSDOF 7
ENDMDL
MODEL 10
REMARK VINA RESULT:      -8.7      5.704      9.008
REMARK  7 active torsions:
REMARK  status: ('A' for Active; 'I' for Inactive)
REMARK    1  A    between atoms: C20_27  and  O4_4 
REMARK    2  A    between atoms: C5_12  and  N1_5 
REMARK    3  A    between atoms: C6_13  and  N2_6 
REMARK    4  A    between atoms: C18_25  and  N3_7 
REMARK       I    between atoms: C9_16  and  N3_7 
REMARK    5  A    between atoms: C5_12  and  C7_14 
REMARK    6  A    between atoms: C6_13  and  C9_16 
REMARK    7  A    between atoms: C13_20  and  C17_24 
ROOT
HETATM    1  N1  UNK     1      18.889   3.901  31.444  1.00  0.00     0.096 N 
HETATM    2  N2  UNK     1      19.265   6.517  32.617  1.00  0.00     0.100 N 
HETATM    3  C1  UNK     1      19.450   5.011  30.666  1.00  0.00     0.303 C 
HETATM    4  C2  UNK     1      17.984   4.409  32.483  1.00  0.00     0.303 C 
HETATM    5  C3  UNK     1      20.171   6.009  31.580  1.00  0.00     0.303 C 
HETATM    6  C4  UNK     1      18.705   5.405  33.396  1.00  0.00     0.303 C 
ENDROOT
BRANCH   1   7
HETATM    7  C5  UNK     1      18.198   2.953  30.572  1.00  0.00     0.312 C 
BRANCH   7   8
HETATM    8  C7  UNK     1      18.850   1.613  30.571  1.00  0.00    -0.011 A 
HETATM    9  C10 UNK     1      19.508   1.165  29.493  1.00  0.00     0.092 A 
HETATM   10  C14 UNK     1      20.168  -0.151  29.444  1.00  0.00     0.288 A 
HETATM   11  O1  UNK     1      20.084  -0.933  30.585  1.00  0.00    -0.275 OA
HETATM   12  O3  UNK     1      20.763  -0.526  28.439  1.00  0.00    -0.260 OA
HETATM   13  C11 UNK     1      19.399  -0.489  31.734  1.00  0.00     0.090 A 
HETATM   14  C8  UNK     1      18.778   0.760  31.765  1.00  0.00     0.007 A 
HETATM   15  C15 UNK     1      19.377  -1.360  32.824  1.00  0.00     0.039 A 
HETATM   16  C12 UNK     1      18.117   1.128  32.945  1.00  0.00     0.022 A 
HETATM   17  C13 UNK     1      18.087   0.266  34.047  1.00  0.00    -0.058 A 
HETATM   18  C16 UNK     1      18.717  -0.977  33.986  1.00  0.00     0.010 A 
BRANCH  17  19
HETATM   19  C17 UNK     1      17.378   0.678  35.293  1.00  0.00     0.034 C 
HETATM   20  C19 UNK     1      15.938   0.173  35.336  1.00  0.00     0.010 C 
ENDBRANCH  17  19
ENDBRANCH   7   8
ENDBRANCH   1   7
BRANCH   2  21
HETATM   21  C6  UNK     1      19.954   7.466  33.488  1.00  0.00     0.375 C 
BRANCH  21  22
HETATM   22  C9  UNK     1      18.930   8.241  34.300  1.00  0.00     0.250 C 
HETATM   23  O2  UNK     1      18.577   7.894  35.423  1.00  0.00    -0.271 OA
HETATM   24  N3  UNK     1      18.492   9.355  33.586  1.00  0.00    -0.323 N 
HETATM   25  H15 UNK     1      18.893   9.515  32.665  1.00  0.00     0.169 HD
BRANCH  24  26
HETATM   26  C18 UNK     1      17.544  10.323  33.994  1.00  0.00     0.069 A 
HETATM   27  C20 UNK     1      17.784  11.682  33.791  1.00  0.00     0.095 A 
HETATM   28  C23 UNK     1      16.841  12.626  34.198  1.00  0.00     0.039 A 
HETATM   29  C24 UNK     1      15.658  12.210  34.809  1.00  0.00     0.009 A 
HETATM   30  C22 UNK     1      15.419  10.850  35.012  1.00  0.00    -0.060 A 
HETATM   31  C21 UNK     1      16.362   9.908  34.604  1.00  0.00     0.039 A 
HETATM   32  C25 UNK     1      14.153  10.406  35.665  1.00  0.00     0.048 C 
BRANCH  27  33
HETATM   33  O4  UNK     1      18.934  12.110  33.196  1.00  0.00    -0.354 OA
HETATM   34  C26 UNK     1      19.007  13.491  32.846  1.00  0.00     0.210 C 
ENDBRANCH  27  33
ENDBRANCH  24  26
ENDBRANCH  21  22
ENDBRANCH   2  21
TORSDOF 7
ENDMDL
