MODEL 1
REMARK VINA RESULT:      -8.1      0.000      0.000
REMARK  2 active torsions:
REMARK  status: ('A' for Active; 'I' for Inactive)
REMARK    1  A    between atoms: C2_4  and  C7_9 
REMARK    2  A    between atoms: C10_12  and  C11_13 
ROOT
HETATM    1  N1  UNK     1      19.026   6.012  29.786  1.00  0.00    -0.191 NA
HETATM    2  C7  UNK     1      17.393   5.184  32.718  1.00  0.00     0.036 C 
HETATM    3  C10 UNK     1      18.122   4.584  31.749  1.00  0.00     0.055 C 
HETATM    4  C19 UNK     1      18.620   5.373  30.666  1.00  0.00     0.100 C 
ENDROOT
BRANCH   3   5
HETATM    5  C11 UNK     1      18.434   3.142  31.761  1.00  0.00    -0.015 A 
HETATM    6  C14 UNK     1      18.293   2.430  32.940  1.00  0.00     0.014 A 
HETATM    7  C16 UNK     1      18.588   1.066  32.952  1.00  0.00     0.020 A 
HETATM    8  C18 UNK     1      19.020   0.436  31.785  1.00  0.00     0.011 A 
HETATM    9 Br1  UNK     1      19.419  -1.411  31.801  1.00  0.00    -0.051 Br
HETATM   10  C17 UNK     1      19.155   1.169  30.606  1.00  0.00     0.020 A 
HETATM   11  C15 UNK     1      18.861   2.532  30.594  1.00  0.00     0.014 A 
ENDBRANCH   3   5
BRANCH   2  12
HETATM   12  C2  UNK     1      17.039   6.600  32.794  1.00  0.00    -0.024 A 
HETATM   13  C1  UNK     1      17.900   7.574  33.328  1.00  0.00    -0.016 A 
HETATM   14  C3  UNK     1      17.479   8.924  33.365  1.00  0.00    -0.025 A 
HETATM   15  C5  UNK     1      19.169   7.236  33.827  1.00  0.00     0.013 A 
HETATM   16  C6  UNK     1      16.211   9.262  32.865  1.00  0.00     0.012 A 
HETATM   17  C8  UNK     1      18.339   9.898  33.899  1.00  0.00     0.012 A 
HETATM   18  C9  UNK     1      15.368   8.282  32.338  1.00  0.00     0.002 A 
HETATM   19  C4  UNK     1      15.783   6.954  32.304  1.00  0.00     0.012 A 
HETATM   20  C13 UNK     1      19.596   9.543  34.390  1.00  0.00     0.001 A 
HETATM   21  C12 UNK     1      20.010   8.215  34.354  1.00  0.00     0.001 A 
ENDBRANCH   2  12
TORSDOF 2
ENDMDL
MODEL 2
REMARK VINA RESULT:      -8.1      9.297     14.253
REMARK  2 active torsions:
REMARK  status: ('A' for Active; 'I' for Inactive)
REMARK    1  A    between atoms: C2_4  and  C7_9 
REMARK    2  A    between atoms: C10_12  and  C11_13 
ROOT
HETATM    1  N1  UNK     1      22.661  -5.132  38.305  1.00  0.00    -0.191 NA
HETATM    2  C7  UNK     1      19.529  -6.081  37.191  1.00  0.00     0.036 C 
HETATM    3  C10 UNK     1      20.300  -4.971  37.251  1.00  0.00     0.055 C 
HETATM    4  C19 UNK     1      21.602  -5.061  37.834  1.00  0.00     0.100 C 
ENDROOT
BRANCH   3   5
HETATM    5  C11 UNK     1      19.857  -3.662  36.734  1.00  0.00    -0.015 A 
HETATM    6  C14 UNK     1      20.189  -3.299  35.440  1.00  0.00     0.014 A 
HETATM    7  C16 UNK     1      19.770  -2.061  34.951  1.00  0.00     0.020 A 
HETATM    8  C18 UNK     1      19.027  -1.205  35.764  1.00  0.00     0.011 A 
HETATM    9 Br1  UNK     1      18.460   0.471  35.100  1.00  0.00    -0.051 Br
HETATM   10  C17 UNK     1      18.701  -1.587  37.065  1.00  0.00     0.020 A 
HETATM   11  C15 UNK     1      19.120  -2.825  37.554  1.00  0.00     0.014 A 
ENDBRANCH   3   5
BRANCH   2  12
HETATM   12  C2  UNK     1      19.882  -7.417  37.669  1.00  0.00    -0.024 A 
HETATM   13  C1  UNK     1      20.503  -8.378  36.855  1.00  0.00    -0.016 A 
HETATM   14  C3  UNK     1      20.812  -9.649  37.397  1.00  0.00    -0.025 A 
HETATM   15  C5  UNK     1      20.826  -8.106  35.515  1.00  0.00     0.013 A 
HETATM   16  C6  UNK     1      20.490  -9.920  38.737  1.00  0.00     0.012 A 
HETATM   17  C8  UNK     1      21.433 -10.610  36.583  1.00  0.00     0.012 A 
HETATM   18  C9  UNK     1      19.873  -8.953  39.531  1.00  0.00     0.002 A 
HETATM   19  C4  UNK     1      19.569  -7.704  38.997  1.00  0.00     0.012 A 
HETATM   20  C13 UNK     1      21.745 -10.322  35.254  1.00  0.00     0.001 A 
HETATM   21  C12 UNK     1      21.442  -9.073  34.722  1.00  0.00     0.001 A 
ENDBRANCH   2  12
TORSDOF 2
ENDMDL
MODEL 3
REMARK VINA RESULT:      -8.0      1.759      3.114
REMARK  2 active torsions:
REMARK  status: ('A' for Active; 'I' for Inactive)
REMARK    1  A    between atoms: C2_4  and  C7_9 
REMARK    2  A    between atoms: C10_12  and  C11_13 
ROOT
HETATM    1  N1  UNK     1      18.191   3.755  34.512  1.00  0.00    -0.191 NA
HETATM    2  C7  UNK     1      18.319   5.589  31.585  1.00  0.00     0.036 C 
HETATM    3  C10 UNK     1      18.378   4.299  31.986  1.00  0.00     0.055 C 
HETATM    4  C19 UNK     1      18.275   4.001  33.381  1.00  0.00     0.100 C 
ENDROOT
BRANCH   3   5
HETATM    5  C11 UNK     1      18.539   3.175  31.044  1.00  0.00    -0.015 A 
HETATM    6  C14 UNK     1      18.967   1.948  31.521  1.00  0.00     0.014 A 
HETATM    7  C16 UNK     1      19.119   0.885  30.630  1.00  0.00     0.020 A 
HETATM    8  C18 UNK     1      18.841   1.066  29.275  1.00  0.00     0.011 A 
HETATM    9 Br1  UNK     1      19.046  -0.373  28.069  1.00  0.00    -0.051 Br
HETATM   10  C17 UNK     1      18.409   2.309  28.812  1.00  0.00     0.020 A 
HETATM   11  C15 UNK     1      18.258   3.372  29.703  1.00  0.00     0.014 A 
ENDBRANCH   3   5
BRANCH   2  12
HETATM   12  C2  UNK     1      18.156   6.764  32.440  1.00  0.00    -0.024 A 
HETATM   13  C1  UNK     1      16.915   7.385  32.653  1.00  0.00    -0.016 A 
HETATM   14  C3  UNK     1      16.845   8.519  33.497  1.00  0.00    -0.025 A 
HETATM   15  C5  UNK     1      15.742   6.907  32.047  1.00  0.00     0.013 A 
HETATM   16  C6  UNK     1      18.018   8.997  34.104  1.00  0.00     0.012 A 
HETATM   17  C8  UNK     1      15.604   9.141  33.710  1.00  0.00     0.012 A 
HETATM   18  C9  UNK     1      19.243   8.367  33.881  1.00  0.00     0.002 A 
HETATM   19  C4  UNK     1      19.311   7.253  33.050  1.00  0.00     0.012 A 
HETATM   20  C13 UNK     1      14.449   8.651  33.099  1.00  0.00     0.001 A 
HETATM   21  C12 UNK     1      14.518   7.537  32.270  1.00  0.00     0.001 A 
ENDBRANCH   2  12
TORSDOF 2
ENDMDL
MODEL 4
REMARK VINA RESULT:      -7.9     23.414     25.226
REMARK  2 active torsions:
REMARK  status: ('A' for Active; 'I' for Inactive)
REMARK    1  A    between atoms: C2_4  and  C7_9 
REMARK    2  A    between atoms: C10_12  and  C11_13 
ROOT
HETATM    1  N1  UNK     1      13.199   5.723  10.125  1.00  0.00    -0.191 NA
HETATM    2  C7  UNK     1      12.570   8.275   7.881  1.00  0.00     0.036 C 
HETATM    3  C10 UNK     1      13.505   7.922   8.793  1.00  0.00     0.055 C 
HETATM    4  C19 UNK     1      13.334   6.708   9.528  1.00  0.00     0.100 C 
ENDROOT
BRANCH   3   5
HETATM    5  C11 UNK     1      14.707   8.736   9.061  1.00  0.00    -0.015 A 
HETATM    6  C14 UNK     1      14.872   9.938   8.393  1.00  0.00     0.014 A 
HETATM    7  C16 UNK     1      16.008  10.708   8.647  1.00  0.00     0.020 A 
HETATM    8  C18 UNK     1      16.960  10.264   9.564  1.00  0.00     0.011 A 
HETATM    9 Br1  UNK     1      18.497  11.308   9.908  1.00  0.00    -0.051 Br
HETATM   10  C17 UNK     1      16.777   9.052  10.229  1.00  0.00     0.020 A 
HETATM   11  C15 UNK     1      15.641   8.282   9.975  1.00  0.00     0.014 A 
ENDBRANCH   3   5
BRANCH   2  12
HETATM   12  C2  UNK     1      11.356   7.534   7.543  1.00  0.00    -0.024 A 
HETATM   13  C1  UNK     1      10.155   7.672   8.259  1.00  0.00    -0.016 A 
HETATM   14  C3  UNK     1       9.025   6.916   7.865  1.00  0.00    -0.025 A 
HETATM   15  C5  UNK     1      10.051   8.543   9.355  1.00  0.00     0.013 A 
HETATM   16  C6  UNK     1       9.129   6.046   6.768  1.00  0.00     0.012 A 
HETATM   17  C8  UNK     1       7.824   7.054   8.580  1.00  0.00     0.012 A 
HETATM   18  C9  UNK     1      10.330   5.921   6.069  1.00  0.00     0.002 A 
HETATM   19  C4  UNK     1      11.441   6.664   6.457  1.00  0.00     0.012 A 
HETATM   20  C13 UNK     1       7.740   7.925   9.668  1.00  0.00     0.001 A 
HETATM   21  C12 UNK     1       8.851   8.667  10.054  1.00  0.00     0.001 A 
ENDBRANCH   2  12
TORSDOF 2
ENDMDL
MODEL 5
REMARK VINA RESULT:      -7.7     16.442     18.335
REMARK  2 active torsions:
REMARK  status: ('A' for Active; 'I' for Inactive)
REMARK    1  A    between atoms: C2_4  and  C7_9 
REMARK    2  A    between atoms: C10_12  and  C11_13 
ROOT
HETATM    1  N1  UNK     1      27.659 -10.008  40.188  1.00  0.00    -0.191 NA
HETATM    2  C7  UNK     1      28.165  -8.876  36.962  1.00  0.00     0.036 C 
HETATM    3  C10 UNK     1      27.201  -9.480  37.694  1.00  0.00     0.055 C 
HETATM    4  C19 UNK     1      27.455  -9.771  39.070  1.00  0.00     0.100 C 
ENDROOT
BRANCH   3   5
HETATM    5  C11 UNK     1      25.886  -9.848  37.136  1.00  0.00    -0.015 A 
HETATM    6  C14 UNK     1      24.817  -8.983  37.295  1.00  0.00     0.014 A 
HETATM    7  C16 UNK     1      23.573  -9.331  36.767  1.00  0.00     0.020 A 
HETATM    8  C18 UNK     1      23.418 -10.539  36.088  1.00  0.00     0.011 A 
HETATM    9 Br1  UNK     1      21.734 -11.009  35.372  1.00  0.00    -0.051 Br
HETATM   10  C17 UNK     1      24.506 -11.398  35.935  1.00  0.00     0.020 A 
HETATM   11  C15 UNK     1      25.749 -11.050  36.464  1.00  0.00     0.014 A 
ENDBRANCH   3   5
BRANCH   2  12
HETATM   12  C2  UNK     1      29.490  -8.470  37.427  1.00  0.00    -0.024 A 
HETATM   13  C1  UNK     1      29.785  -7.160  37.839  1.00  0.00    -0.016 A 
HETATM   14  C3  UNK     1      31.095  -6.850  38.276  1.00  0.00    -0.025 A 
HETATM   15  C5  UNK     1      28.808  -6.151  37.827  1.00  0.00     0.013 A 
HETATM   16  C6  UNK     1      32.071  -7.860  38.289  1.00  0.00     0.012 A 
HETATM   17  C8  UNK     1      31.390  -5.540  38.688  1.00  0.00     0.012 A 
HETATM   18  C9  UNK     1      31.761  -9.156  37.875  1.00  0.00     0.002 A 
HETATM   19  C4  UNK     1      30.472  -9.460  37.445  1.00  0.00     0.012 A 
HETATM   20  C13 UNK     1      30.407  -4.551  38.669  1.00  0.00     0.001 A 
HETATM   21  C12 UNK     1      29.119  -4.855  38.240  1.00  0.00     0.001 A 
ENDBRANCH   2  12
TORSDOF 2
ENDMDL
MODEL 6
REMARK VINA RESULT:      -7.6     23.866     25.578
REMARK  2 active torsions:
REMARK  status: ('A' for Active; 'I' for Inactive)
REMARK    1  A    between atoms: C2_4  and  C7_9 
REMARK    2  A    between atoms: C10_12  and  C11_13 
ROOT
HETATM    1  N1  UNK     1       8.960   4.047   9.935  1.00  0.00    -0.191 NA
HETATM    2  C7  UNK     1       8.440   7.245   8.731  1.00  0.00     0.036 C 
HETATM    3  C10 UNK     1       7.979   6.433   9.710  1.00  0.00     0.055 C 
HETATM    4  C19 UNK     1       8.521   5.116   9.832  1.00  0.00     0.100 C 
ENDROOT
BRANCH   3   5
HETATM    5  C11 UNK     1       6.938   6.850  10.669  1.00  0.00    -0.015 A 
HETATM    6  C14 UNK     1       6.565   5.982  11.681  1.00  0.00     0.014 A 
HETATM    7  C16 UNK     1       5.581   6.376  12.588  1.00  0.00     0.020 A 
HETATM    8  C18 UNK     1       4.986   7.632  12.470  1.00  0.00     0.011 A 
HETATM    9 Br1  UNK     1       3.654   8.165  13.700  1.00  0.00    -0.051 Br
HETATM   10  C17 UNK     1       5.375   8.494  11.445  1.00  0.00     0.020 A 
HETATM   11  C15 UNK     1       6.358   8.100  10.537  1.00  0.00     0.014 A 
ENDBRANCH   3   5
BRANCH   2  12
HETATM   12  C2  UNK     1       9.468   6.923   7.742  1.00  0.00    -0.024 A 
HETATM   13  C1  UNK     1      10.837   7.143   7.966  1.00  0.00    -0.016 A 
HETATM   14  C3  UNK     1      11.767   6.804   6.955  1.00  0.00    -0.025 A 
HETATM   15  C5  UNK     1      11.303   7.693   9.172  1.00  0.00     0.013 A 
HETATM   16  C6  UNK     1      11.301   6.254   5.750  1.00  0.00     0.012 A 
HETATM   17  C8  UNK     1      13.136   7.024   7.180  1.00  0.00     0.012 A 
HETATM   18  C9  UNK     1       9.937   6.042   5.543  1.00  0.00     0.002 A 
HETATM   19  C4  UNK     1       9.023   6.377   6.538  1.00  0.00     0.012 A 
HETATM   20  C13 UNK     1      13.580   7.571   8.384  1.00  0.00     0.001 A 
HETATM   21  C12 UNK     1      12.666   7.905   9.377  1.00  0.00     0.001 A 
ENDBRANCH   2  12
TORSDOF 2
ENDMDL
MODEL 7
REMARK VINA RESULT:      -7.5     23.761     25.369
REMARK  2 active torsions:
REMARK  status: ('A' for Active; 'I' for Inactive)
REMARK    1  A    between atoms: C2_4  and  C7_9 
REMARK    2  A    between atoms: C10_12  and  C11_13 
ROOT
HETATM    1  N1  UNK     1       8.333   8.431  10.149  1.00  0.00    -0.191 NA
HETATM    2  C7  UNK     1       8.316   5.231   8.841  1.00  0.00     0.036 C 
HETATM    3  C10 UNK     1       7.731   5.931   9.840  1.00  0.00     0.055 C 
HETATM    4  C19 UNK     1       8.065   7.311  10.010  1.00  0.00     0.100 C 
ENDROOT
BRANCH   3   5
HETATM    5  C11 UNK     1       6.750   5.333  10.766  1.00  0.00    -0.015 A 
HETATM    6  C14 UNK     1       6.196   4.101  10.461  1.00  0.00     0.014 A 
HETATM    7  C16 UNK     1       5.268   3.536  11.337  1.00  0.00     0.020 A 
HETATM    8  C18 UNK     1       4.910   4.210  12.504  1.00  0.00     0.011 A 
HETATM    9 Br1  UNK     1       3.655   3.443  13.690  1.00  0.00    -0.051 Br
HETATM   10  C17 UNK     1       5.479   5.450  12.796  1.00  0.00     0.020 A 
HETATM   11  C15 UNK     1       6.405   6.015  11.920  1.00  0.00     0.014 A 
ENDBRANCH   3   5
BRANCH   2  12
HETATM   12  C2  UNK     1       9.290   5.737   7.875  1.00  0.00    -0.024 A 
HETATM   13  C1  UNK     1      10.669   5.789   8.138  1.00  0.00    -0.016 A 
HETATM   14  C3  UNK     1      11.544   6.293   7.147  1.00  0.00    -0.025 A 
HETATM   15  C5  UNK     1      11.198   5.351   9.364  1.00  0.00     0.013 A 
HETATM   16  C6  UNK     1      11.015   6.730   5.922  1.00  0.00     0.012 A 
HETATM   17  C8  UNK     1      12.923   6.345   7.410  1.00  0.00     0.012 A 
HETATM   18  C9  UNK     1       9.642   6.672   5.677  1.00  0.00     0.002 A 
HETATM   19  C4  UNK     1       8.782   6.176   6.653  1.00  0.00     0.012 A 
HETATM   20  C13 UNK     1      13.430   5.905   8.633  1.00  0.00     0.001 A 
HETATM   21  C12 UNK     1      12.570   5.410   9.608  1.00  0.00     0.001 A 
ENDBRANCH   2  12
TORSDOF 2
ENDMDL
MODEL 8
REMARK VINA RESULT:      -7.5      6.121      9.128
REMARK  2 active torsions:
REMARK  status: ('A' for Active; 'I' for Inactive)
REMARK    1  A    between atoms: C2_4  and  C7_9 
REMARK    2  A    between atoms: C10_12  and  C11_13 
ROOT
HETATM    1  N1  UNK     1      21.797  -1.704  35.688  1.00  0.00    -0.191 NA
HETATM    2  C7  UNK     1      18.607  -2.589  36.681  1.00  0.00     0.036 C 
HETATM    3  C10 UNK     1      19.796  -3.177  36.419  1.00  0.00     0.055 C 
HETATM    4  C19 UNK     1      20.900  -2.363  36.015  1.00  0.00     0.100 C 
ENDROOT
BRANCH   3   5
HETATM    5  C11 UNK     1      20.011  -4.632  36.537  1.00  0.00    -0.015 A 
HETATM    6  C14 UNK     1      19.756  -5.444  35.444  1.00  0.00     0.014 A 
HETATM    7  C16 UNK     1      19.959  -6.820  35.556  1.00  0.00     0.020 A 
HETATM    8  C18 UNK     1      20.414  -7.363  36.757  1.00  0.00     0.011 A 
HETATM    9 Br1  UNK     1      20.690  -9.226  36.907  1.00  0.00    -0.051 Br
HETATM   10  C17 UNK     1      20.667  -6.530  37.847  1.00  0.00     0.020 A 
HETATM   11  C15 UNK     1      20.463  -5.154  37.736  1.00  0.00     0.014 A 
ENDBRANCH   3   5
BRANCH   2  12
HETATM   12  C2  UNK     1      18.302  -1.161  36.598  1.00  0.00    -0.024 A 
HETATM   13  C1  UNK     1      18.318  -0.447  35.389  1.00  0.00    -0.016 A 
HETATM   14  C3  UNK     1      18.010   0.934  35.397  1.00  0.00    -0.025 A 
HETATM   15  C5  UNK     1      18.634  -1.074  34.172  1.00  0.00     0.013 A 
HETATM   16  C6  UNK     1      17.693   1.560  36.613  1.00  0.00     0.012 A 
HETATM   17  C8  UNK     1      18.027   1.648  34.187  1.00  0.00     0.012 A 
HETATM   18  C9  UNK     1      17.682   0.835  37.806  1.00  0.00     0.002 A 
HETATM   19  C4  UNK     1      17.986  -0.523  37.797  1.00  0.00     0.012 A 
HETATM   20  C13 UNK     1      18.343   1.009  32.988  1.00  0.00     0.001 A 
HETATM   21  C12 UNK     1      18.647  -0.349  32.981  1.00  0.00     0.001 A 
ENDBRANCH   2  12
TORSDOF 2
ENDMDL
MODEL 9
REMARK VINA RESULT:      -7.5     23.345     25.168
REMARK  2 active torsions:
REMARK  status: ('A' for Active; 'I' for Inactive)
REMARK    1  A    between atoms: C2_4  and  C7_9 
REMARK    2  A    between atoms: C10_12  and  C11_13 
ROOT
HETATM    1  N1  UNK     1      13.021   6.061  10.353  1.00  0.00    -0.191 NA
HETATM    2  C7  UNK     1      12.042   9.096   9.019  1.00  0.00     0.036 C 
HETATM    3  C10 UNK     1      13.157   8.505   9.507  1.00  0.00     0.055 C 
HETATM    4  C19 UNK     1      13.080   7.156   9.974  1.00  0.00     0.100 C 
ENDROOT
BRANCH   3   5
HETATM    5  C11 UNK     1      14.461   9.193   9.576  1.00  0.00    -0.015 A 
HETATM    6  C14 UNK     1      15.259   9.019  10.694  1.00  0.00     0.014 A 
HETATM    7  C16 UNK     1      16.492   9.669  10.759  1.00  0.00     0.020 A 
HETATM    8  C18 UNK     1      16.908  10.482   9.705  1.00  0.00     0.011 A 
HETATM    9 Br1  UNK     1      18.578  11.361   9.792  1.00  0.00    -0.051 Br
HETATM   10  C17 UNK     1      16.092  10.644   8.585  1.00  0.00     0.020 A 
HETATM   11  C15 UNK     1      14.859   9.995   8.521  1.00  0.00     0.014 A 
ENDBRANCH   3   5
BRANCH   2  12
HETATM   12  C2  UNK     1      10.714   8.496   8.906  1.00  0.00    -0.024 A 
HETATM   13  C1  UNK     1      10.366   7.602   7.880  1.00  0.00    -0.016 A 
HETATM   14  C3  UNK     1       9.056   7.066   7.844  1.00  0.00    -0.025 A 
HETATM   15  C5  UNK     1      11.288   7.228   6.889  1.00  0.00     0.013 A 
HETATM   16  C6  UNK     1       8.134   7.439   8.836  1.00  0.00     0.012 A 
HETATM   17  C8  UNK     1       8.708   6.172   6.818  1.00  0.00     0.012 A 
HETATM   18  C9  UNK     1       8.497   8.329   9.848  1.00  0.00     0.002 A 
HETATM   19  C4  UNK     1       9.785   8.856   9.882  1.00  0.00     0.012 A 
HETATM   20  C13 UNK     1       9.637   5.813   5.842  1.00  0.00     0.001 A 
HETATM   21  C12 UNK     1      10.924   6.340   5.878  1.00  0.00     0.001 A 
ENDBRANCH   2  12
TORSDOF 2
ENDMDL
MODEL 10
REMARK VINA RESULT:      -7.4      8.854     13.746
REMARK  2 active torsions:
REMARK  status: ('A' for Active; 'I' for Inactive)
REMARK    1  A    between atoms: C2_4  and  C7_9 
REMARK    2  A    between atoms: C10_12  and  C11_13 
ROOT
HETATM    1  N1  UNK     1      22.371  -4.779  37.952  1.00  0.00    -0.191 NA
HETATM    2  C7  UNK     1      19.564  -5.535  36.082  1.00  0.00     0.036 C 
HETATM    3  C10 UNK     1      20.128  -4.469  36.693  1.00  0.00     0.055 C 
HETATM    4  C19 UNK     1      21.366  -4.642  37.388  1.00  0.00     0.100 C 
ENDROOT
BRANCH   3   5
HETATM    5  C11 UNK     1      19.524  -3.123  36.671  1.00  0.00    -0.015 A 
HETATM    6  C14 UNK     1      19.652  -2.344  35.533  1.00  0.00     0.014 A 
HETATM    7  C16 UNK     1      19.081  -1.071  35.512  1.00  0.00     0.020 A 
HETATM    8  C18 UNK     1      18.391  -0.598  36.627  1.00  0.00     0.011 A 
HETATM    9 Br1  UNK     1      17.616   1.126  36.597  1.00  0.00    -0.051 Br
HETATM   10  C17 UNK     1      18.271  -1.396  37.764  1.00  0.00     0.020 A 
HETATM   11  C15 UNK     1      18.843  -2.668  37.786  1.00  0.00     0.014 A 
ENDBRANCH   3   5
BRANCH   2  12
HETATM   12  C2  UNK     1      20.089  -6.900  36.045  1.00  0.00    -0.024 A 
HETATM   13  C1  UNK     1      20.073  -7.753  37.160  1.00  0.00    -0.016 A 
HETATM   14  C3  UNK     1      20.601  -9.060  37.039  1.00  0.00    -0.025 A 
HETATM   15  C5  UNK     1      19.543  -7.338  38.393  1.00  0.00     0.013 A 
HETATM   16  C6  UNK     1      21.130  -9.476  35.806  1.00  0.00     0.012 A 
HETATM   17  C8  UNK     1      20.585  -9.914  38.155  1.00  0.00     0.012 A 
HETATM   18  C9  UNK     1      21.138  -8.614  34.708  1.00  0.00     0.002 A 
HETATM   19  C4  UNK     1      20.619  -7.329  34.828  1.00  0.00     0.012 A 
HETATM   20  C13 UNK     1      20.055  -9.484  39.372  1.00  0.00     0.001 A 
HETATM   21  C12 UNK     1      19.536  -8.199  39.490  1.00  0.00     0.001 A 
ENDBRANCH   2  12
TORSDOF 2
ENDMDL
