MODEL 1
REMARK VINA RESULT:      -8.1      0.000      0.000
REMARK  3 active torsions:
REMARK  status: ('A' for Active; 'I' for Inactive)
REMARK    1  A    between atoms: C20_25  and  O3_3 
REMARK    2  A    between atoms: C21_26  and  O3_3 
REMARK    3  A    between atoms: C18_23  and  C20_25 
ROOT
HETATM    1  O1  UNK     1      32.399  -5.539  36.927  1.00  0.00    -0.273 OA
HETATM    2  O2  UNK     1      32.269  -4.857  39.105  1.00  0.00    -0.259 OA
HETATM    3  N1  UNK     1      32.702  -7.128  32.310  1.00  0.00    -0.380 N 
HETATM    4  C1  UNK     1      34.141  -6.211  34.688  1.00  0.00    -0.014 C 
HETATM    5  C2  UNK     1      29.788  -7.131  32.067  1.00  0.00    -0.017 C 
HETATM    6  C3  UNK     1      31.955  -6.689  33.403  1.00  0.00     0.047 A 
HETATM    7  C4  UNK     1      32.601  -6.252  34.602  1.00  0.00     0.012 A 
HETATM    8  C5  UNK     1      30.529  -6.679  33.336  1.00  0.00    -0.022 A 
HETATM    9  C6  UNK     1      34.760  -6.300  33.273  1.00  0.00     0.033 C 
HETATM   10  C7  UNK     1      30.721  -7.990  31.189  1.00  0.00     0.033 C 
HETATM   11  C8  UNK     1      34.122  -7.396  32.448  1.00  0.00     0.124 C 
HETATM   12  C9  UNK     1      32.078  -7.337  31.013  1.00  0.00     0.124 C 
HETATM   13  C10 UNK     1      31.789  -5.880  35.697  1.00  0.00     0.099 A 
HETATM   14  C11 UNK     1      34.634  -7.392  35.549  1.00  0.00     0.020 C 
HETATM   15  C12 UNK     1      34.686  -4.891  35.287  1.00  0.00     0.020 C 
HETATM   16  C13 UNK     1      29.318  -5.881  31.295  1.00  0.00     0.020 C 
HETATM   17  C14 UNK     1      28.550  -8.006  32.379  1.00  0.00     0.020 C 
HETATM   18  C15 UNK     1      29.781  -6.231  34.442  1.00  0.00     0.024 A 
HETATM   19  C16 UNK     1      30.401  -5.852  35.627  1.00  0.00     0.000 A 
HETATM   20  C17 UNK     1      29.622  -5.431  36.784  1.00  0.00     0.038 A 
HETATM   21  C18 UNK     1      30.227  -5.098  37.929  1.00  0.00     0.115 A 
HETATM   22  C19 UNK     1      31.695  -5.146  38.062  1.00  0.00     0.304 A 
ENDROOT
BRANCH  21  23
HETATM   23  C20 UNK     1      29.354  -4.689  39.035  1.00  0.00     0.299 C 
HETATM   24  O4  UNK     1      29.657  -3.836  39.853  1.00  0.00    -0.259 OA
BRANCH  23  25
HETATM   25  O3  UNK     1      28.205  -5.407  38.969  1.00  0.00    -0.318 OA
BRANCH  25  26
HETATM   26  C21 UNK     1      28.264  -6.710  39.559  1.00  0.00     0.174 C 
HETATM   27  C22 UNK     1      27.236  -7.599  38.894  1.00  0.00     0.034 C 
ENDBRANCH  25  26
ENDBRANCH  23  25
ENDBRANCH  21  23
TORSDOF 3
ENDMDL
MODEL 2
REMARK VINA RESULT:      -8.0      1.600      2.227
REMARK  3 active torsions:
REMARK  status: ('A' for Active; 'I' for Inactive)
REMARK    1  A    between atoms: C20_25  and  O3_3 
REMARK    2  A    between atoms: C21_26  and  O3_3 
REMARK    3  A    between atoms: C18_23  and  C20_25 
ROOT
HETATM    1  O1  UNK     1      30.319  -5.154  37.514  1.00  0.00    -0.273 OA
HETATM    2  O2  UNK     1      29.121  -4.531  39.359  1.00  0.00    -0.259 OA
HETATM    3  N1  UNK     1      32.958  -6.573  33.646  1.00  0.00    -0.380 N 
HETATM    4  C1  UNK     1      32.771  -4.810  35.975  1.00  0.00    -0.014 C 
HETATM    5  C2  UNK     1      30.800  -8.334  32.758  1.00  0.00    -0.017 C 
HETATM    6  C3  UNK     1      31.780  -6.590  34.393  1.00  0.00     0.047 A 
HETATM    7  C4  UNK     1      31.638  -5.769  35.555  1.00  0.00     0.012 A 
HETATM    8  C5  UNK     1      30.700  -7.440  34.004  1.00  0.00    -0.022 A 
HETATM    9  C6  UNK     1      33.768  -4.613  34.809  1.00  0.00     0.033 C 
HETATM   10  C7  UNK     1      32.279  -8.525  32.363  1.00  0.00     0.033 C 
HETATM   11  C8  UNK     1      34.150  -5.929  34.167  1.00  0.00     0.124 C 
HETATM   12  C9  UNK     1      33.025  -7.206  32.339  1.00  0.00     0.124 C 
HETATM   13  C10 UNK     1      30.446  -5.880  36.306  1.00  0.00     0.099 A 
HETATM   14  C11 UNK     1      33.509  -5.397  37.198  1.00  0.00     0.020 C 
HETATM   15  C12 UNK     1      32.271  -3.387  36.327  1.00  0.00     0.020 C 
HETATM   16  C13 UNK     1      30.014  -7.672  31.607  1.00  0.00     0.020 C 
HETATM   17  C14 UNK     1      30.222  -9.751  32.992  1.00  0.00     0.020 C 
HETATM   18  C15 UNK     1      29.512  -7.450  34.760  1.00  0.00     0.024 A 
HETATM   19  C16 UNK     1      29.387  -6.692  35.918  1.00  0.00     0.000 A 
HETATM   20  C17 UNK     1      28.173  -6.738  36.721  1.00  0.00     0.038 A 
HETATM   21  C18 UNK     1      28.074  -6.028  37.851  1.00  0.00     0.115 A 
HETATM   22  C19 UNK     1      29.185  -5.180  38.321  1.00  0.00     0.304 A 
ENDROOT
BRANCH  21  23
HETATM   23  C20 UNK     1      26.811  -6.144  38.588  1.00  0.00     0.299 C 
HETATM   24  O4  UNK     1      26.089  -5.194  38.842  1.00  0.00    -0.259 OA
BRANCH  23  25
HETATM   25  O3  UNK     1      26.616  -7.446  38.911  1.00  0.00    -0.318 OA
BRANCH  25  26
HETATM   26  C21 UNK     1      27.595  -8.012  39.789  1.00  0.00     0.174 C 
HETATM   27  C22 UNK     1      27.505  -9.521  39.720  1.00  0.00     0.034 C 
ENDBRANCH  25  26
ENDBRANCH  23  25
ENDBRANCH  21  23
TORSDOF 3
ENDMDL
MODEL 3
REMARK VINA RESULT:      -7.9      1.951      4.703
REMARK  3 active torsions:
REMARK  status: ('A' for Active; 'I' for Inactive)
REMARK    1  A    between atoms: C20_25  and  O3_3 
REMARK    2  A    between atoms: C21_26  and  O3_3 
REMARK    3  A    between atoms: C18_23  and  C20_25 
ROOT
HETATM    1  O1  UNK     1      29.178  -6.922  33.539  1.00  0.00    -0.273 OA
HETATM    2  O2  UNK     1      27.787  -6.607  35.325  1.00  0.00    -0.259 OA
HETATM    3  N1  UNK     1      32.149  -7.460  29.688  1.00  0.00    -0.380 N 
HETATM    4  C1  UNK     1      29.391  -7.273  30.652  1.00  0.00    -0.014 C 
HETATM    5  C2  UNK     1      34.485  -7.560  31.443  1.00  0.00    -0.017 C 
HETATM    6  C3  UNK     1      31.935  -7.390  31.065  1.00  0.00     0.047 A 
HETATM    7  C4  UNK     1      30.612  -7.272  31.596  1.00  0.00     0.012 A 
HETATM    8  C5  UNK     1      33.045  -7.426  31.963  1.00  0.00    -0.022 A 
HETATM    9  C6  UNK     1      29.793  -7.798  29.254  1.00  0.00     0.033 C 
HETATM   10  C7  UNK     1      34.548  -7.160  29.954  1.00  0.00     0.033 C 
HETATM   11  C8  UNK     1      31.074  -7.160  28.760  1.00  0.00     0.124 C 
HETATM   12  C9  UNK     1      33.449  -7.826  29.150  1.00  0.00     0.124 C 
HETATM   13  C10 UNK     1      30.466  -7.140  32.995  1.00  0.00     0.099 A 
HETATM   14  C11 UNK     1      28.839  -5.837  30.532  1.00  0.00     0.020 C 
HETATM   15  C12 UNK     1      28.252  -8.210  31.126  1.00  0.00     0.020 C 
HETATM   16  C13 UNK     1      34.947  -9.020  31.630  1.00  0.00     0.020 C 
HETATM   17  C14 UNK     1      35.477  -6.635  32.188  1.00  0.00     0.020 C 
HETATM   18  C15 UNK     1      32.823  -7.358  33.352  1.00  0.00     0.024 A 
HETATM   19  C16 UNK     1      31.544  -7.194  33.870  1.00  0.00     0.000 A 
HETATM   20  C17 UNK     1      31.322  -7.080  35.306  1.00  0.00     0.038 A 
HETATM   21  C18 UNK     1      30.091  -6.891  35.794  1.00  0.00     0.115 A 
HETATM   22  C19 UNK     1      28.921  -6.792  34.900  1.00  0.00     0.304 A 
ENDROOT
BRANCH  21  23
HETATM   23  C20 UNK     1      29.974  -6.788  37.252  1.00  0.00     0.299 C 
HETATM   24  O4  UNK     1      29.354  -7.585  37.937  1.00  0.00    -0.259 OA
BRANCH  23  25
HETATM   25  O3  UNK     1      30.656  -5.691  37.665  1.00  0.00    -0.318 OA
BRANCH  25  26
HETATM   26  C21 UNK     1      29.891  -4.483  37.729  1.00  0.00     0.174 C 
HETATM   27  C22 UNK     1      29.574  -4.175  39.176  1.00  0.00     0.034 C 
ENDBRANCH  25  26
ENDBRANCH  23  25
ENDBRANCH  21  23
TORSDOF 3
ENDMDL
MODEL 4
REMARK VINA RESULT:      -7.9      3.702      6.700
REMARK  3 active torsions:
REMARK  status: ('A' for Active; 'I' for Inactive)
REMARK    1  A    between atoms: C20_25  and  O3_3 
REMARK    2  A    between atoms: C21_26  and  O3_3 
REMARK    3  A    between atoms: C18_23  and  C20_25 
ROOT
HETATM    1  O1  UNK     1      30.137  -8.807  33.186  1.00  0.00    -0.273 OA
HETATM    2  O2  UNK     1      29.268  -9.576  31.217  1.00  0.00    -0.259 OA
HETATM    3  N1  UNK     1      32.107  -7.246  37.384  1.00  0.00    -0.380 N 
HETATM    4  C1  UNK     1      30.502  -9.291  36.038  1.00  0.00    -0.014 C 
HETATM    5  C2  UNK     1      33.047  -4.799  36.090  1.00  0.00    -0.017 C 
HETATM    6  C3  UNK     1      31.792  -7.056  36.039  1.00  0.00     0.047 A 
HETATM    7  C4  UNK     1      31.031  -8.032  35.320  1.00  0.00     0.012 A 
HETATM    8  C5  UNK     1      32.235  -5.881  35.360  1.00  0.00    -0.022 A 
HETATM    9  C6  UNK     1      30.568  -9.102  37.572  1.00  0.00     0.033 C 
HETATM   10  C7  UNK     1      33.674  -5.385  37.372  1.00  0.00     0.033 C 
HETATM   11  C8  UNK     1      31.901  -8.538  38.013  1.00  0.00     0.124 C 
HETATM   12  C9  UNK     1      32.658  -6.164  38.184  1.00  0.00     0.124 C 
HETATM   13  C10 UNK     1      30.800  -7.812  33.944  1.00  0.00     0.099 A 
HETATM   14  C11 UNK     1      31.356 -10.509  35.626  1.00  0.00     0.020 C 
HETATM   15  C12 UNK     1      29.015  -9.593  35.729  1.00  0.00     0.020 C 
HETATM   16  C13 UNK     1      32.111  -3.622  36.434  1.00  0.00     0.020 C 
HETATM   17  C14 UNK     1      34.220  -4.257  35.237  1.00  0.00     0.020 C 
HETATM   18  C15 UNK     1      31.910  -5.693  34.003  1.00  0.00     0.024 A 
HETATM   19  C16 UNK     1      31.215  -6.660  33.287  1.00  0.00     0.000 A 
HETATM   20  C17 UNK     1      30.918  -6.482  31.872  1.00  0.00     0.038 A 
HETATM   21  C18 UNK     1      30.275  -7.432  31.184  1.00  0.00     0.115 A 
HETATM   22  C19 UNK     1      29.847  -8.688  31.830  1.00  0.00     0.304 A 
ENDROOT
BRANCH  21  23
HETATM   23  C20 UNK     1      30.026  -7.158  29.765  1.00  0.00     0.299 C 
HETATM   24  O4  UNK     1      30.906  -6.881  28.966  1.00  0.00    -0.259 OA
BRANCH  23  25
HETATM   25  O3  UNK     1      28.695  -7.270  29.530  1.00  0.00    -0.318 OA
BRANCH  25  26
HETATM   26  C21 UNK     1      27.883  -6.240  30.103  1.00  0.00     0.174 C 
HETATM   27  C22 UNK     1      26.547  -6.829  30.501  1.00  0.00     0.034 C 
ENDBRANCH  25  26
ENDBRANCH  23  25
ENDBRANCH  21  23
TORSDOF 3
ENDMDL
MODEL 5
REMARK VINA RESULT:      -7.9      2.074      3.387
REMARK  3 active torsions:
REMARK  status: ('A' for Active; 'I' for Inactive)
REMARK    1  A    between atoms: C20_25  and  O3_3 
REMARK    2  A    between atoms: C21_26  and  O3_3 
REMARK    3  A    between atoms: C18_23  and  C20_25 
ROOT
HETATM    1  O1  UNK     1      29.157  -6.391  37.876  1.00  0.00    -0.273 OA
HETATM    2  O2  UNK     1      28.097  -6.432  39.901  1.00  0.00    -0.259 OA
HETATM    3  N1  UNK     1      31.518  -6.398  33.590  1.00  0.00    -0.380 N 
HETATM    4  C1  UNK     1      31.375  -5.327  36.311  1.00  0.00    -0.014 C 
HETATM    5  C2  UNK     1      29.497  -8.160  32.424  1.00  0.00    -0.017 C 
HETATM    6  C3  UNK     1      30.436  -6.769  34.388  1.00  0.00     0.047 A 
HETATM    7  C4  UNK     1      30.323  -6.298  35.734  1.00  0.00     0.012 A 
HETATM    8  C5  UNK     1      29.427  -7.634  33.867  1.00  0.00    -0.022 A 
HETATM    9  C6  UNK     1      32.212  -4.703  35.169  1.00  0.00     0.033 C 
HETATM   10  C7  UNK     1      30.938  -8.035  31.886  1.00  0.00     0.033 C 
HETATM   11  C8  UNK     1      32.675  -5.746  34.175  1.00  0.00     0.124 C 
HETATM   12  C9  UNK     1      31.519  -6.662  32.160  1.00  0.00     0.124 C 
HETATM   13  C10 UNK     1      29.239  -6.761  36.512  1.00  0.00     0.099 A 
HETATM   14  C11 UNK     1      32.302  -6.096  37.277  1.00  0.00     0.020 C 
HETATM   15  C12 UNK     1      30.753  -4.125  37.063  1.00  0.00     0.020 C 
HETATM   16  C13 UNK     1      28.521  -7.345  31.550  1.00  0.00     0.020 C 
HETATM   17  C14 UNK     1      29.117  -9.656  32.315  1.00  0.00     0.020 C 
HETATM   18  C15 UNK     1      28.335  -8.002  34.676  1.00  0.00     0.024 A 
HETATM   19  C16 UNK     1      28.247  -7.588  36.000  1.00  0.00     0.000 A 
HETATM   20  C17 UNK     1      27.138  -8.007  36.848  1.00  0.00     0.038 A 
HETATM   21  C18 UNK     1      27.078  -7.628  38.129  1.00  0.00     0.115 A 
HETATM   22  C19 UNK     1      28.127  -6.780  38.727  1.00  0.00     0.304 A 
ENDROOT
BRANCH  21  23
HETATM   23  C20 UNK     1      25.923  -8.103  38.899  1.00  0.00     0.299 C 
HETATM   24  O4  UNK     1      25.956  -9.075  39.635  1.00  0.00    -0.259 OA
BRANCH  23  25
HETATM   25  O3  UNK     1      24.868  -7.290  38.643  1.00  0.00    -0.318 OA
BRANCH  25  26
HETATM   26  C21 UNK     1      23.590  -7.933  38.620  1.00  0.00     0.174 C 
HETATM   27  C22 UNK     1      22.733  -7.368  39.732  1.00  0.00     0.034 C 
ENDBRANCH  25  26
ENDBRANCH  23  25
ENDBRANCH  21  23
TORSDOF 3
ENDMDL
MODEL 6
REMARK VINA RESULT:      -7.8      3.314      6.678
REMARK  3 active torsions:
REMARK  status: ('A' for Active; 'I' for Inactive)
REMARK    1  A    between atoms: C20_25  and  O3_3 
REMARK    2  A    between atoms: C21_26  and  O3_3 
REMARK    3  A    between atoms: C18_23  and  C20_25 
ROOT
HETATM    1  O1  UNK     1      34.737  -6.164  33.329  1.00  0.00    -0.273 OA
HETATM    2  O2  UNK     1      36.559  -6.212  31.948  1.00  0.00    -0.259 OA
HETATM    3  N1  UNK     1      30.811  -5.932  36.239  1.00  0.00    -0.380 N 
HETATM    4  C1  UNK     1      33.644  -5.286  35.885  1.00  0.00    -0.014 C 
HETATM    5  C2  UNK     1      29.257  -7.538  34.354  1.00  0.00    -0.017 C 
HETATM    6  C3  UNK     1      31.454  -6.395  35.092  1.00  0.00     0.047 A 
HETATM    7  C4  UNK     1      32.831  -6.091  34.850  1.00  0.00     0.012 A 
HETATM    8  C5  UNK     1      30.736  -7.176  34.136  1.00  0.00    -0.022 A 
HETATM    9  C6  UNK     1      32.905  -5.256  37.244  1.00  0.00     0.033 C 
HETATM   10  C7  UNK     1      28.627  -6.581  35.386  1.00  0.00     0.033 C 
HETATM   11  C8  UNK     1      31.437  -4.927  37.079  1.00  0.00     0.124 C 
HETATM   12  C9  UNK     1      29.500  -6.433  36.617  1.00  0.00     0.124 C 
HETATM   13  C10 UNK     1      33.407  -6.534  33.639  1.00  0.00     0.099 A 
HETATM   14  C11 UNK     1      33.842  -3.845  35.367  1.00  0.00     0.020 C 
HETATM   15  C12 UNK     1      35.031  -5.904  36.190  1.00  0.00     0.020 C 
HETATM   16  C13 UNK     1      29.169  -8.998  34.845  1.00  0.00     0.020 C 
HETATM   17  C14 UNK     1      28.415  -7.406  33.062  1.00  0.00     0.020 C 
HETATM   18  C15 UNK     1      31.391  -7.645  32.981  1.00  0.00     0.024 A 
HETATM   19  C16 UNK     1      32.714  -7.311  32.718  1.00  0.00     0.000 A 
HETATM   20  C17 UNK     1      33.376  -7.760  31.501  1.00  0.00     0.038 A 
HETATM   21  C18 UNK     1      34.640  -7.408  31.241  1.00  0.00     0.115 A 
HETATM   22  C19 UNK     1      35.404  -6.556  32.172  1.00  0.00     0.304 A 
ENDROOT
BRANCH  21  23
HETATM   23  C20 UNK     1      35.216  -7.911  29.989  1.00  0.00     0.299 C 
HETATM   24  O4  UNK     1      35.530  -7.192  29.054  1.00  0.00    -0.259 OA
BRANCH  23  25
HETATM   25  O3  UNK     1      35.325  -9.260  30.073  1.00  0.00    -0.318 OA
BRANCH  25  26
HETATM   26  C21 UNK     1      36.492  -9.739  30.750  1.00  0.00     0.174 C 
HETATM   27  C22 UNK     1      36.079 -10.773  31.774  1.00  0.00     0.034 C 
ENDBRANCH  25  26
ENDBRANCH  23  25
ENDBRANCH  21  23
TORSDOF 3
ENDMDL
MODEL 7
REMARK VINA RESULT:      -7.8      1.415      1.801
REMARK  3 active torsions:
REMARK  status: ('A' for Active; 'I' for Inactive)
REMARK    1  A    between atoms: C20_25  and  O3_3 
REMARK    2  A    between atoms: C21_26  and  O3_3 
REMARK    3  A    between atoms: C18_23  and  C20_25 
ROOT
HETATM    1  O1  UNK     1      32.744  -7.193  35.712  1.00  0.00    -0.273 OA
HETATM    2  O2  UNK     1      32.938  -7.198  37.989  1.00  0.00    -0.259 OA
HETATM    3  N1  UNK     1      32.289  -7.319  30.841  1.00  0.00    -0.380 N 
HETATM    4  C1  UNK     1      33.988  -7.864  33.162  1.00  0.00    -0.014 C 
HETATM    5  C2  UNK     1      29.694  -5.982  31.000  1.00  0.00    -0.017 C 
HETATM    6  C3  UNK     1      31.825  -6.942  32.101  1.00  0.00     0.047 A 
HETATM    7  C4  UNK     1      32.599  -7.204  33.275  1.00  0.00     0.012 A 
HETATM    8  C5  UNK     1      30.560  -6.294  32.231  1.00  0.00    -0.022 A 
HETATM    9  C6  UNK     1      34.499  -7.794  31.703  1.00  0.00     0.033 C 
HETATM   10  C7  UNK     1      30.134  -6.860  29.810  1.00  0.00     0.033 C 
HETATM   11  C8  UNK     1      33.432  -8.206  30.713  1.00  0.00     0.124 C 
HETATM   12  C9  UNK     1      31.639  -6.844  29.631  1.00  0.00     0.124 C 
HETATM   13  C10 UNK     1      32.045  -6.856  34.528  1.00  0.00     0.099 A 
HETATM   14  C11 UNK     1      33.890  -9.338  33.609  1.00  0.00     0.020 C 
HETATM   15  C12 UNK     1      35.075  -7.155  34.007  1.00  0.00     0.020 C 
HETATM   16  C13 UNK     1      29.845  -4.486  30.652  1.00  0.00     0.020 C 
HETATM   17  C14 UNK     1      28.194  -6.280  31.234  1.00  0.00     0.020 C 
HETATM   18  C15 UNK     1      30.098  -5.912  33.506  1.00  0.00     0.024 A 
HETATM   19  C16 UNK     1      30.822  -6.208  34.654  1.00  0.00     0.000 A 
HETATM   20  C17 UNK     1      30.321  -5.851  35.975  1.00  0.00     0.038 A 
HETATM   21  C18 UNK     1      31.011  -6.168  37.076  1.00  0.00     0.115 A 
HETATM   22  C19 UNK     1      32.296  -6.887  36.993  1.00  0.00     0.304 A 
ENDROOT
BRANCH  21  23
HETATM   23  C20 UNK     1      30.420  -5.765  38.357  1.00  0.00     0.299 C 
HETATM   24  O4  UNK     1      30.541  -4.649  38.834  1.00  0.00    -0.259 OA
BRANCH  23  25
HETATM   25  O3  UNK     1      29.748  -6.823  38.876  1.00  0.00    -0.318 OA
BRANCH  25  26
HETATM   26  C21 UNK     1      28.373  -6.580  39.190  1.00  0.00     0.174 C 
HETATM   27  C22 UNK     1      27.692  -7.900  39.478  1.00  0.00     0.034 C 
ENDBRANCH  25  26
ENDBRANCH  23  25
ENDBRANCH  21  23
TORSDOF 3
ENDMDL
MODEL 8
REMARK VINA RESULT:      -7.8      1.915      3.083
REMARK  3 active torsions:
REMARK  status: ('A' for Active; 'I' for Inactive)
REMARK    1  A    between atoms: C20_25  and  O3_3 
REMARK    2  A    between atoms: C21_26  and  O3_3 
REMARK    3  A    between atoms: C18_23  and  C20_25 
ROOT
HETATM    1  O1  UNK     1      33.976  -7.251  34.438  1.00  0.00    -0.273 OA
HETATM    2  O2  UNK     1      34.787  -7.256  36.575  1.00  0.00    -0.259 OA
HETATM    3  N1  UNK     1      32.241  -7.381  29.864  1.00  0.00    -0.380 N 
HETATM    4  C1  UNK     1      34.599  -7.460  31.597  1.00  0.00    -0.014 C 
HETATM    5  C2  UNK     1      29.527  -6.872  30.826  1.00  0.00    -0.017 C 
HETATM    6  C3  UNK     1      32.059  -7.190  31.234  1.00  0.00     0.047 A 
HETATM    7  C4  UNK     1      33.169  -7.242  32.134  1.00  0.00     0.012 A 
HETATM    8  C5  UNK     1      30.751  -6.947  31.753  1.00  0.00    -0.022 A 
HETATM    9  C6  UNK     1      34.644  -7.205  30.072  1.00  0.00     0.033 C 
HETATM   10  C7  UNK     1      29.845  -7.552  29.478  1.00  0.00     0.033 C 
HETATM   11  C8  UNK     1      33.501  -7.888  29.353  1.00  0.00     0.124 C 
HETATM   12  C9  UNK     1      31.176  -7.088  28.919  1.00  0.00     0.124 C 
HETATM   13  C10 UNK     1      32.911  -7.105  33.516  1.00  0.00     0.099 A 
HETATM   14  C11 UNK     1      35.040  -8.909  31.897  1.00  0.00     0.020 C 
HETATM   15  C12 UNK     1      35.637  -6.484  32.203  1.00  0.00     0.020 C 
HETATM   16  C13 UNK     1      29.156  -5.390  30.611  1.00  0.00     0.020 C 
HETATM   17  C14 UNK     1      28.294  -7.605  31.407  1.00  0.00     0.020 C 
HETATM   18  C15 UNK     1      30.574  -6.750  33.137  1.00  0.00     0.024 A 
HETATM   19  C16 UNK     1      31.641  -6.849  34.021  1.00  0.00     0.000 A 
HETATM   20  C17 UNK     1      31.448  -6.689  35.456  1.00  0.00     0.038 A 
HETATM   21  C18 UNK     1      32.475  -6.817  36.303  1.00  0.00     0.115 A 
HETATM   22  C19 UNK     1      33.834  -7.123  35.816  1.00  0.00     0.304 A 
ENDROOT
BRANCH  21  23
HETATM   23  C20 UNK     1      32.176  -6.639  37.728  1.00  0.00     0.299 C 
HETATM   24  O4  UNK     1      32.058  -7.565  38.513  1.00  0.00    -0.259 OA
BRANCH  23  25
HETATM   25  O3  UNK     1      32.064  -5.312  37.984  1.00  0.00    -0.318 OA
BRANCH  25  26
HETATM   26  C21 UNK     1      30.835  -4.909  38.598  1.00  0.00     0.174 C 
HETATM   27  C22 UNK     1      30.138  -3.912  37.699  1.00  0.00     0.034 C 
ENDBRANCH  25  26
ENDBRANCH  23  25
ENDBRANCH  21  23
TORSDOF 3
ENDMDL
MODEL 9
REMARK VINA RESULT:      -7.8      3.425      6.357
REMARK  3 active torsions:
REMARK  status: ('A' for Active; 'I' for Inactive)
REMARK    1  A    between atoms: C20_25  and  O3_3 
REMARK    2  A    between atoms: C21_26  and  O3_3 
REMARK    3  A    between atoms: C18_23  and  C20_25 
ROOT
HETATM    1  O1  UNK     1      30.785  -5.983  32.564  1.00  0.00    -0.273 OA
HETATM    2  O2  UNK     1      30.503  -5.845  30.300  1.00  0.00    -0.259 OA
HETATM    3  N1  UNK     1      31.373  -6.139  37.419  1.00  0.00    -0.380 N 
HETATM    4  C1  UNK     1      32.623  -5.699  34.809  1.00  0.00    -0.014 C 
HETATM    5  C2  UNK     1      28.614  -7.041  37.773  1.00  0.00    -0.017 C 
HETATM    6  C3  UNK     1      30.602  -6.347  36.275  1.00  0.00     0.047 A 
HETATM    7  C4  UNK     1      31.149  -6.126  34.973  1.00  0.00     0.012 A 
HETATM    8  C5  UNK     1      29.247  -6.780  36.397  1.00  0.00    -0.022 A 
HETATM    9  C6  UNK     1      33.405  -5.953  36.120  1.00  0.00     0.033 C 
HETATM   10  C7  UNK     1      29.431  -6.329  38.872  1.00  0.00     0.033 C 
HETATM   11  C8  UNK     1      32.649  -5.453  37.331  1.00  0.00     0.124 C 
HETATM   12  C9  UNK     1      30.916  -6.593  38.722  1.00  0.00     0.124 C 
HETATM   13  C10 UNK     1      30.299  -6.291  33.857  1.00  0.00     0.099 A 
HETATM   14  C11 UNK     1      32.683  -4.200  34.448  1.00  0.00     0.020 C 
HETATM   15  C12 UNK     1      33.378  -6.506  33.723  1.00  0.00     0.020 C 
HETATM   16  C13 UNK     1      28.581  -8.563  38.024  1.00  0.00     0.020 C 
HETATM   17  C14 UNK     1      27.169  -6.497  37.879  1.00  0.00     0.020 C 
HETATM   18  C15 UNK     1      28.474  -6.992  35.238  1.00  0.00     0.024 A 
HETATM   19  C16 UNK     1      28.985  -6.730  33.973  1.00  0.00     0.000 A 
HETATM   20  C17 UNK     1      28.170  -6.909  32.779  1.00  0.00     0.038 A 
HETATM   21  C18 UNK     1      28.660  -6.625  31.568  1.00  0.00     0.115 A 
HETATM   22  C19 UNK     1      30.037  -6.122  31.398  1.00  0.00     0.304 A 
ENDROOT
BRANCH  21  23
HETATM   23  C20 UNK     1      27.759  -6.837  30.430  1.00  0.00     0.299 C 
HETATM   24  O4  UNK     1      27.244  -5.929  29.798  1.00  0.00    -0.259 OA
BRANCH  23  25
HETATM   25  O3  UNK     1      27.622  -8.172  30.229  1.00  0.00    -0.318 OA
BRANCH  25  26
HETATM   26  C21 UNK     1      28.612  -8.769  29.386  1.00  0.00     0.174 C 
HETATM   27  C22 UNK     1      27.973  -9.888  28.592  1.00  0.00     0.034 C 
ENDBRANCH  25  26
ENDBRANCH  23  25
ENDBRANCH  21  23
TORSDOF 3
ENDMDL
MODEL 10
REMARK VINA RESULT:      -7.7      3.506      7.090
REMARK  3 active torsions:
REMARK  status: ('A' for Active; 'I' for Inactive)
REMARK    1  A    between atoms: C20_25  and  O3_3 
REMARK    2  A    between atoms: C21_26  and  O3_3 
REMARK    3  A    between atoms: C18_23  and  C20_25 
ROOT
HETATM    1  O1  UNK     1      29.535  -8.074  33.425  1.00  0.00    -0.273 OA
HETATM    2  O2  UNK     1      28.332  -8.857  31.646  1.00  0.00    -0.259 OA
HETATM    3  N1  UNK     1      32.145  -6.530  37.265  1.00  0.00    -0.380 N 
HETATM    4  C1  UNK     1      29.588  -7.574  36.297  1.00  0.00    -0.014 C 
HETATM    5  C2  UNK     1      34.370  -5.790  35.518  1.00  0.00    -0.017 C 
HETATM    6  C3  UNK     1      31.984  -6.710  35.891  1.00  0.00     0.047 A 
HETATM    7  C4  UNK     1      30.767  -7.239  35.360  1.00  0.00     0.012 A 
HETATM    8  C5  UNK     1      33.045  -6.371  34.998  1.00  0.00    -0.022 A 
HETATM    9  C6  UNK     1      29.791  -6.904  37.677  1.00  0.00     0.033 C 
HETATM   10  C7  UNK     1      34.528  -6.101  37.021  1.00  0.00     0.033 C 
HETATM   11  C8  UNK     1      31.197  -7.108  38.199  1.00  0.00     0.124 C 
HETATM   12  C9  UNK     1      33.266  -5.771  37.795  1.00  0.00     0.124 C 
HETATM   13  C10 UNK     1      30.690  -7.459  33.966  1.00  0.00     0.099 A 
HETATM   14  C11 UNK     1      29.493  -9.105  36.469  1.00  0.00     0.020 C 
HETATM   15  C12 UNK     1      28.227  -7.042  35.784  1.00  0.00     0.020 C 
HETATM   16  C13 UNK     1      34.373  -4.267  35.278  1.00  0.00     0.020 C 
HETATM   17  C14 UNK     1      35.606  -6.399  34.813  1.00  0.00     0.020 C 
HETATM   18  C15 UNK     1      32.876  -6.552  33.611  1.00  0.00     0.024 A 
HETATM   19  C16 UNK     1      31.714  -7.112  33.094  1.00  0.00     0.000 A 
HETATM   20  C17 UNK     1      31.560  -7.338  31.663  1.00  0.00     0.038 A 
HETATM   21  C18 UNK     1      30.451  -7.906  31.177  1.00  0.00     0.115 A 
HETATM   22  C19 UNK     1      29.351  -8.324  32.068  1.00  0.00     0.304 A 
ENDROOT
BRANCH  21  23
HETATM   23  C20 UNK     1      30.393  -8.091  29.723  1.00  0.00     0.299 C 
HETATM   24  O4  UNK     1      30.231  -7.176  28.932  1.00  0.00    -0.259 OA
BRANCH  23  25
HETATM   25  O3  UNK     1      30.547  -9.410  29.448  1.00  0.00    -0.318 OA
BRANCH  25  26
HETATM   26  C21 UNK     1      30.042  -9.834  28.177  1.00  0.00     0.174 C 
HETATM   27  C22 UNK     1      28.582 -10.201  28.325  1.00  0.00     0.034 C 
ENDBRANCH  25  26
ENDBRANCH  23  25
ENDBRANCH  21  23
TORSDOF 3
ENDMDL
