MODEL 1
REMARK VINA RESULT:      -7.5      0.000      0.000
REMARK  0 active torsions:
REMARK  status: ('A' for Active; 'I' for Inactive)
ROOT
HETATM    1  O1  UNK     1      18.441  -0.932  35.587  1.00  0.00    -0.314 OA
HETATM    2  O2  UNK     1      18.654   1.062  31.198  1.00  0.00    -0.274 OA
HETATM    3  O3  UNK     1      18.742   2.070  29.148  1.00  0.00    -0.260 OA
HETATM    4  C1  UNK     1      18.284   2.426  33.192  1.00  0.00     0.005 A 
HETATM    5  C2  UNK     1      18.196   1.300  35.352  1.00  0.00     0.002 A 
HETATM    6  C3  UNK     1      18.410   0.096  34.693  1.00  0.00     0.094 A 
HETATM    7  C4  UNK     1      18.567  -0.022  33.316  1.00  0.00     0.008 A 
HETATM    8  C5  UNK     1      18.495   1.178  32.598  1.00  0.00     0.099 A 
HETATM    9  C6  UNK     1      18.132   2.486  34.591  1.00  0.00     0.029 A 
HETATM   10  C7  UNK     1      18.229   3.616  32.329  1.00  0.00    -0.043 A 
HETATM   11  C8  UNK     1      18.092   0.973  36.730  1.00  0.00     0.046 A 
HETATM   12  C9  UNK     1      18.248  -0.391  36.818  1.00  0.00     0.050 A 
HETATM   13  C10 UNK     1      18.793  -1.330  32.641  1.00  0.00     0.054 C 
HETATM   14  C11 UNK     1      18.382   3.470  31.005  1.00  0.00     0.090 A 
HETATM   15  C12 UNK     1      18.004   4.972  32.934  1.00  0.00     0.049 C 
HETATM   16  C13 UNK     1      18.605   2.165  30.361  1.00  0.00     0.288 A 
HETATM   17  C14 UNK     1      18.243  -1.330  37.947  1.00  0.00     0.077 C 
ENDROOT
TORSDOF 0
ENDMDL
MODEL 2
REMARK VINA RESULT:      -7.2      1.898      3.489
REMARK  0 active torsions:
REMARK  status: ('A' for Active; 'I' for Inactive)
ROOT
HETATM    1  O1  UNK     1      18.925  -1.171  35.337  1.00  0.00    -0.314 OA
HETATM    2  O2  UNK     1      18.423   1.544  31.380  1.00  0.00    -0.274 OA
HETATM    3  O3  UNK     1      18.224   2.785  29.470  1.00  0.00    -0.260 OA
HETATM    4  C1  UNK     1      19.687  -0.547  31.329  1.00  0.00     0.005 A 
HETATM    5  C2  UNK     1      19.869  -1.829  33.393  1.00  0.00     0.002 A 
HETATM    6  C3  UNK     1      19.106  -0.853  34.025  1.00  0.00     0.094 A 
HETATM    7  C4  UNK     1      18.609   0.279  33.389  1.00  0.00     0.008 A 
HETATM    8  C5  UNK     1      18.926   0.394  32.030  1.00  0.00     0.099 A 
HETATM    9  C6  UNK     1      20.164  -1.675  32.023  1.00  0.00     0.029 A 
HETATM   10  C7  UNK     1      19.952  -0.314  29.901  1.00  0.00    -0.043 A 
HETATM   11  C8  UNK     1      20.164  -2.794  34.393  1.00  0.00     0.046 A 
HETATM   12  C9  UNK     1      19.569  -2.348  35.550  1.00  0.00     0.050 A 
HETATM   13  C10 UNK     1      17.795   1.308  34.096  1.00  0.00     0.054 C 
HETATM   14  C11 UNK     1      19.461   0.789  29.317  1.00  0.00     0.090 A 
HETATM   15  C12 UNK     1      20.765  -1.304  29.118  1.00  0.00     0.049 C 
HETATM   16  C13 UNK     1      18.658   1.790  30.037  1.00  0.00     0.288 A 
HETATM   17  C14 UNK     1      19.505  -2.885  36.916  1.00  0.00     0.077 C 
ENDROOT
TORSDOF 0
ENDMDL
MODEL 3
REMARK VINA RESULT:      -7.2      2.387      4.508
REMARK  0 active torsions:
REMARK  status: ('A' for Active; 'I' for Inactive)
ROOT
HETATM    1  O1  UNK     1      18.950   0.193  32.361  1.00  0.00    -0.314 OA
HETATM    2  O2  UNK     1      17.796   4.636  33.849  1.00  0.00    -0.274 OA
HETATM    3  O3  UNK     1      17.265   6.765  34.491  1.00  0.00    -0.260 OA
HETATM    4  C1  UNK     1      18.494   4.213  31.545  1.00  0.00     0.005 A 
HETATM    5  C2  UNK     1      19.051   1.926  30.917  1.00  0.00     0.002 A 
HETATM    6  C3  UNK     1      18.762   1.535  32.218  1.00  0.00     0.094 A 
HETATM    7  C4  UNK     1      18.343   2.406  33.218  1.00  0.00     0.008 A 
HETATM    8  C5  UNK     1      18.222   3.748  32.835  1.00  0.00     0.099 A 
HETATM    9  C6  UNK     1      18.916   3.287  30.572  1.00  0.00     0.029 A 
HETATM   10  C7  UNK     1      18.329   5.648  31.266  1.00  0.00    -0.043 A 
HETATM   11  C8  UNK     1      19.437   0.741  30.235  1.00  0.00     0.046 A 
HETATM   12  C9  UNK     1      19.358  -0.279  31.155  1.00  0.00     0.050 A 
HETATM   13  C10 UNK     1      18.042   1.954  34.606  1.00  0.00     0.054 C 
HETATM   14  C11 UNK     1      17.926   6.463  32.252  1.00  0.00     0.090 A 
HETATM   15  C12 UNK     1      18.613   6.182  29.892  1.00  0.00     0.049 C 
HETATM   16  C13 UNK     1      17.634   5.992  33.615  1.00  0.00     0.288 A 
HETATM   17  C14 UNK     1      19.623  -1.722  31.078  1.00  0.00     0.077 C 
ENDROOT
TORSDOF 0
ENDMDL
MODEL 4
REMARK VINA RESULT:      -7.2     13.362     15.597
REMARK  0 active torsions:
REMARK  status: ('A' for Active; 'I' for Inactive)
ROOT
HETATM    1  O1  UNK     1      32.893  -5.234  37.208  1.00  0.00    -0.314 OA
HETATM    2  O2  UNK     1      28.200  -5.139  38.329  1.00  0.00    -0.274 OA
HETATM    3  O3  UNK     1      25.979  -5.163  38.869  1.00  0.00    -0.260 OA
HETATM    4  C1  UNK     1      29.476  -7.223  38.393  1.00  0.00     0.005 A 
HETATM    5  C2  UNK     1      31.839  -7.140  37.805  1.00  0.00     0.002 A 
HETATM    6  C3  UNK     1      31.703  -5.773  37.594  1.00  0.00     0.094 A 
HETATM    7  C4  UNK     1      30.511  -5.075  37.758  1.00  0.00     0.008 A 
HETATM    8  C5  UNK     1      29.413  -5.845  38.161  1.00  0.00     0.099 A 
HETATM    9  C6  UNK     1      30.708  -7.879  38.211  1.00  0.00     0.029 A 
HETATM   10  C7  UNK     1      28.251  -7.921  38.815  1.00  0.00    -0.043 A 
HETATM   11  C8  UNK     1      33.200  -7.439  37.527  1.00  0.00     0.046 A 
HETATM   12  C9  UNK     1      33.793  -6.250  37.171  1.00  0.00     0.050 A 
HETATM   13  C10 UNK     1      30.399  -3.608  37.522  1.00  0.00     0.054 C 
HETATM   14  C11 UNK     1      27.118  -7.220  38.962  1.00  0.00     0.090 A 
HETATM   15  C12 UNK     1      28.283  -9.400  39.072  1.00  0.00     0.049 C 
HETATM   16  C13 UNK     1      27.033  -5.771  38.723  1.00  0.00     0.288 A 
HETATM   17  C14 UNK     1      35.161  -5.892  36.774  1.00  0.00     0.077 C 
ENDROOT
TORSDOF 0
ENDMDL
MODEL 5
REMARK VINA RESULT:      -7.2      6.318      7.534
REMARK  0 active torsions:
REMARK  status: ('A' for Active; 'I' for Inactive)
ROOT
HETATM    1  O1  UNK     1      16.541   8.998  34.330  1.00  0.00    -0.314 OA
HETATM    2  O2  UNK     1      20.704   6.881  33.119  1.00  0.00    -0.274 OA
HETATM    3  O3  UNK     1      22.646   5.852  32.487  1.00  0.00    -0.260 OA
HETATM    4  C1  UNK     1      18.742   6.739  31.668  1.00  0.00     0.005 A 
HETATM    5  C2  UNK     1      16.698   7.851  32.392  1.00  0.00     0.002 A 
HETATM    6  C3  UNK     1      17.370   8.266  33.535  1.00  0.00     0.094 A 
HETATM    7  C4  UNK     1      18.699   7.963  33.810  1.00  0.00     0.008 A 
HETATM    8  C5  UNK     1      19.353   7.190  32.842  1.00  0.00     0.099 A 
HETATM    9  C6  UNK     1      17.394   7.076  31.441  1.00  0.00     0.029 A 
HETATM   10  C7  UNK     1      19.536   5.934  30.727  1.00  0.00    -0.043 A 
HETATM   11  C8  UNK     1      15.381   8.370  32.509  1.00  0.00     0.046 A 
HETATM   12  C9  UNK     1      15.339   9.057  33.700  1.00  0.00     0.050 A 
HETATM   13  C10 UNK     1      19.389   8.422  35.049  1.00  0.00     0.054 C 
HETATM   14  C11 UNK     1      20.815   5.657  31.022  1.00  0.00     0.090 A 
HETATM   15  C12 UNK     1      18.912   5.433  29.457  1.00  0.00     0.049 C 
HETATM   16  C13 UNK     1      21.475   6.124  32.252  1.00  0.00     0.288 A 
HETATM   17  C14 UNK     1      14.281   9.808  34.388  1.00  0.00     0.077 C 
ENDROOT
TORSDOF 0
ENDMDL
MODEL 6
REMARK VINA RESULT:      -7.1      1.040      5.372
REMARK  0 active torsions:
REMARK  status: ('A' for Active; 'I' for Inactive)
ROOT
HETATM    1  O1  UNK     1      18.625   1.460  31.658  1.00  0.00    -0.314 OA
HETATM    2  O2  UNK     1      18.622  -1.799  35.217  1.00  0.00    -0.274 OA
HETATM    3  O3  UNK     1      18.606  -3.292  36.948  1.00  0.00    -0.260 OA
HETATM    4  C1  UNK     1      18.110   0.551  35.651  1.00  0.00     0.005 A 
HETATM    5  C2  UNK     1      18.144   2.099  33.769  1.00  0.00     0.002 A 
HETATM    6  C3  UNK     1      18.483   1.034  32.944  1.00  0.00     0.094 A 
HETATM    7  C4  UNK     1      18.650  -0.273  33.389  1.00  0.00     0.008 A 
HETATM    8  C5  UNK     1      18.453  -0.471  34.761  1.00  0.00     0.099 A 
HETATM    9  C6  UNK     1      17.953   1.856  35.145  1.00  0.00     0.029 A 
HETATM   10  C7  UNK     1      17.929   0.215  37.072  1.00  0.00    -0.043 A 
HETATM   11  C8  UNK     1      18.078   3.237  32.922  1.00  0.00     0.046 A 
HETATM   12  C9  UNK     1      18.377   2.795  31.654  1.00  0.00     0.050 A 
HETATM   13  C10 UNK     1      19.016  -1.393  32.477  1.00  0.00     0.054 C 
HETATM   14  C11 UNK     1      18.100  -1.053  37.470  1.00  0.00     0.090 A 
HETATM   15  C12 UNK     1      17.560   1.289  38.055  1.00  0.00     0.049 C 
HETATM   16  C13 UNK     1      18.460  -2.143  36.549  1.00  0.00     0.288 A 
HETATM   17  C14 UNK     1      18.475   3.471  30.354  1.00  0.00     0.077 C 
ENDROOT
TORSDOF 0
ENDMDL
MODEL 7
REMARK VINA RESULT:      -7.1      1.579      5.083
REMARK  0 active torsions:
REMARK  status: ('A' for Active; 'I' for Inactive)
ROOT
HETATM    1  O1  UNK     1      18.087   5.252  31.523  1.00  0.00    -0.314 OA
HETATM    2  O2  UNK     1      18.638   0.470  31.867  1.00  0.00    -0.274 OA
HETATM    3  O3  UNK     1      18.896  -1.790  32.099  1.00  0.00    -0.260 OA
HETATM    4  C1  UNK     1      18.343   1.857  33.857  1.00  0.00     0.005 A 
HETATM    5  C2  UNK     1      18.075   4.260  33.552  1.00  0.00     0.002 A 
HETATM    6  C3  UNK     1      18.186   4.062  32.181  1.00  0.00     0.094 A 
HETATM    7  C4  UNK     1      18.373   2.820  31.586  1.00  0.00     0.008 A 
HETATM    8  C5  UNK     1      18.447   1.735  32.468  1.00  0.00     0.099 A 
HETATM    9  C6  UNK     1      18.154   3.140  34.406  1.00  0.00     0.029 A 
HETATM   10  C7  UNK     1      18.436   0.641  34.679  1.00  0.00    -0.043 A 
HETATM   11  C8  UNK     1      17.897   5.658  33.727  1.00  0.00     0.046 A 
HETATM   12  C9  UNK     1      17.911   6.212  32.468  1.00  0.00     0.050 A 
HETATM   13  C10 UNK     1      18.491   2.643  30.111  1.00  0.00     0.054 C 
HETATM   14  C11 UNK     1      18.619  -0.543  34.076  1.00  0.00     0.090 A 
HETATM   15  C12 UNK     1      18.328   0.736  36.174  1.00  0.00     0.049 C 
HETATM   16  C13 UNK     1      18.731  -0.691  32.616  1.00  0.00     0.288 A 
HETATM   17  C14 UNK     1      17.779   7.590  31.976  1.00  0.00     0.077 C 
ENDROOT
TORSDOF 0
ENDMDL
MODEL 8
REMARK VINA RESULT:      -7.1      6.149      8.086
REMARK  0 active torsions:
REMARK  status: ('A' for Active; 'I' for Inactive)
ROOT
HETATM    1  O1  UNK     1      20.252   7.009  32.601  1.00  0.00    -0.314 OA
HETATM    2  O2  UNK     1      16.670   9.340  34.841  1.00  0.00    -0.274 OA
HETATM    3  O3  UNK     1      14.927  10.412  35.860  1.00  0.00    -0.260 OA
HETATM    4  C1  UNK     1      16.214   7.724  33.064  1.00  0.00     0.005 A 
HETATM    5  C2  UNK     1      18.109   6.613  32.010  1.00  0.00     0.002 A 
HETATM    6  C3  UNK     1      18.952   7.331  32.850  1.00  0.00     0.094 A 
HETATM    7  C4  UNK     1      18.511   8.244  33.801  1.00  0.00     0.008 A 
HETATM    8  C5  UNK     1      17.122   8.412  33.875  1.00  0.00     0.099 A 
HETATM    9  C6  UNK     1      16.717   6.811  32.118  1.00  0.00     0.029 A 
HETATM   10  C7  UNK     1      14.777   7.987  33.239  1.00  0.00    -0.043 A 
HETATM   11  C8  UNK     1      18.960   5.808  31.206  1.00  0.00     0.046 A 
HETATM   12  C9  UNK     1      20.247   6.086  31.604  1.00  0.00     0.050 A 
HETATM   13  C10 UNK     1      19.442   9.000  34.684  1.00  0.00     0.054 C 
HETATM   14  C11 UNK     1      14.383   8.875  34.162  1.00  0.00     0.090 A 
HETATM   15  C12 UNK     1      13.774   7.265  32.385  1.00  0.00     0.049 C 
HETATM   16  C13 UNK     1      15.324   9.608  35.024  1.00  0.00     0.288 A 
HETATM   17  C14 UNK     1      21.560   5.592  31.170  1.00  0.00     0.077 C 
ENDROOT
TORSDOF 0
ENDMDL
MODEL 9
REMARK VINA RESULT:      -7.1      2.543      5.716
REMARK  0 active torsions:
REMARK  status: ('A' for Active; 'I' for Inactive)
ROOT
HETATM    1  O1  UNK     1      18.283   7.697  32.310  1.00  0.00    -0.314 OA
HETATM    2  O2  UNK     1      18.898   3.368  30.270  1.00  0.00    -0.274 OA
HETATM    3  O3  UNK     1      19.178   1.287  29.366  1.00  0.00    -0.260 OA
HETATM    4  C1  UNK     1      18.331   3.583  32.638  1.00  0.00     0.005 A 
HETATM    5  C2  UNK     1      18.047   5.825  33.550  1.00  0.00     0.002 A 
HETATM    6  C3  UNK     1      18.329   6.336  32.289  1.00  0.00     0.094 A 
HETATM    7  C4  UNK     1      18.615   5.551  31.177  1.00  0.00     0.008 A 
HETATM    8  C5  UNK     1      18.607   4.168  31.398  1.00  0.00     0.099 A 
HETATM    9  C6  UNK     1      18.048   4.426  33.729  1.00  0.00     0.029 A 
HETATM   10  C7  UNK     1      18.352   2.116  32.743  1.00  0.00    -0.043 A 
HETATM   11  C8  UNK     1      17.817   6.954  34.380  1.00  0.00     0.046 A 
HETATM   12  C9  UNK     1      17.972   8.062  33.581  1.00  0.00     0.050 A 
HETATM   13  C10 UNK     1      18.915   6.132  29.838  1.00  0.00     0.054 C 
HETATM   14  C11 UNK     1      18.634   1.387  31.653  1.00  0.00     0.090 A 
HETATM   15  C12 UNK     1      18.061   1.455  34.059  1.00  0.00     0.049 C 
HETATM   16  C13 UNK     1      18.926   1.985  30.341  1.00  0.00     0.288 A 
HETATM   17  C14 UNK     1      17.868   9.505  33.835  1.00  0.00     0.077 C 
ENDROOT
TORSDOF 0
ENDMDL
MODEL 10
REMARK VINA RESULT:      -7.1      2.189      5.010
REMARK  0 active torsions:
REMARK  status: ('A' for Active; 'I' for Inactive)
ROOT
HETATM    1  O1  UNK     1      17.848   5.137  33.987  1.00  0.00    -0.314 OA
HETATM    2  O2  UNK     1      18.850   0.483  33.193  1.00  0.00    -0.274 OA
HETATM    3  O3  UNK     1      19.325  -1.708  32.748  1.00  0.00    -0.260 OA
HETATM    4  C1  UNK     1      18.677   2.075  31.346  1.00  0.00     0.005 A 
HETATM    5  C2  UNK     1      18.166   4.398  31.877  1.00  0.00     0.002 A 
HETATM    6  C3  UNK     1      18.130   4.046  33.221  1.00  0.00     0.094 A 
HETATM    7  C4  UNK     1      18.352   2.758  33.695  1.00  0.00     0.008 A 
HETATM    8  C5  UNK     1      18.624   1.795  32.715  1.00  0.00     0.099 A 
HETATM    9  C6  UNK     1      18.444   3.398  30.923  1.00  0.00     0.029 A 
HETATM   10  C7  UNK     1      18.973   0.976  30.414  1.00  0.00    -0.043 A 
HETATM   11  C8  UNK     1      17.887   5.790  31.836  1.00  0.00     0.046 A 
HETATM   12  C9  UNK     1      17.703   6.188  33.140  1.00  0.00     0.050 A 
HETATM   13  C10 UNK     1      18.304   2.413  35.144  1.00  0.00     0.054 C 
HETATM   14  C11 UNK     1      19.180  -0.256  30.902  1.00  0.00     0.090 A 
HETATM   15  C12 UNK     1      19.038   1.242  28.938  1.00  0.00     0.049 C 
HETATM   16  C13 UNK     1      19.129  -0.570  32.338  1.00  0.00     0.288 A 
HETATM   17  C14 UNK     1      17.391   7.483  33.758  1.00  0.00     0.077 C 
ENDROOT
TORSDOF 0
ENDMDL
