MODEL 1
REMARK VINA RESULT:      -7.4      0.000      0.000
REMARK  3 active torsions:
REMARK  status: ('A' for Active; 'I' for Inactive)
REMARK    1  A    between atoms: C3_8  and  O2_2 
REMARK    2  A    between atoms: C10_15  and  O4_4 
REMARK    3  A    between atoms: C10_15  and  C6_11 
ROOT
HETATM    1  O1  UNK     1      18.558   1.016  32.005  1.00  0.00    -0.271 OA
HETATM    2  O3  UNK     1      17.626   1.451  34.045  1.00  0.00    -0.259 OA
HETATM    3  C1  UNK     1      19.623  -1.133  31.606  1.00  0.00     0.002 A 
HETATM    4  C2  UNK     1      19.247   0.129  31.156  1.00  0.00     0.123 A 
HETATM    5  C3  UNK     1      19.533   0.561  29.862  1.00  0.00     0.102 A 
HETATM    6  C4  UNK     1      19.293  -1.520  32.969  1.00  0.00     0.039 A 
HETATM    7  C5  UNK     1      20.305  -1.984  30.734  1.00  0.00     0.014 A 
HETATM    8  C6  UNK     1      18.638  -0.673  33.771  1.00  0.00     0.114 A 
HETATM    9  C7  UNK     1      20.213  -0.294  28.999  1.00  0.00     0.040 A 
HETATM   10  C8  UNK     1      20.599  -1.565  29.433  1.00  0.00     0.004 A 
HETATM   11  C9  UNK     1      18.227   0.673  33.313  1.00  0.00     0.305 A 
ENDROOT
BRANCH   8  12
HETATM   12  C10 UNK     1      18.351  -1.155  35.127  1.00  0.00     0.182 C 
HETATM   13  O5  UNK     1      19.214  -1.289  35.982  1.00  0.00    -0.646 OA
BRANCH  12  14
HETATM   14  O4  UNK     1      17.036  -1.404  35.255  1.00  0.00    -0.772 OA
HETATM   15  H8  UNK     1      16.597  -1.537  34.388  1.00  0.00     0.167 HD
ENDBRANCH  12  14
ENDBRANCH   8  12
BRANCH   5  16
HETATM   16  O2  UNK     1      19.160   1.797  29.435  1.00  0.00    -0.353 OA
HETATM   17  C11 UNK     1      17.967   1.883  28.656  1.00  0.00     0.210 C 
ENDBRANCH   5  16
TORSDOF 3
ENDMDL
MODEL 2
REMARK VINA RESULT:      -6.8      7.394      8.681
REMARK  3 active torsions:
REMARK  status: ('A' for Active; 'I' for Inactive)
REMARK    1  A    between atoms: C3_8  and  O2_2 
REMARK    2  A    between atoms: C10_15  and  O4_4 
REMARK    3  A    between atoms: C10_15  and  C6_11 
ROOT
HETATM    1  O1  UNK     1      17.164   8.234  34.154  1.00  0.00    -0.271 OA
HETATM    2  O3  UNK     1      14.973   8.797  34.473  1.00  0.00    -0.259 OA
HETATM    3  C1  UNK     1      17.755   6.664  32.394  1.00  0.00     0.002 A 
HETATM    4  C2  UNK     1      18.131   7.501  33.441  1.00  0.00     0.123 A 
HETATM    5  C3  UNK     1      19.465   7.647  33.820  1.00  0.00     0.102 A 
HETATM    6  C4  UNK     1      16.346   6.559  32.051  1.00  0.00     0.039 A 
HETATM    7  C5  UNK     1      18.744   5.954  31.710  1.00  0.00     0.014 A 
HETATM    8  C6  UNK     1      15.431   7.258  32.731  1.00  0.00     0.114 A 
HETATM    9  C7  UNK     1      20.444   6.934  33.134  1.00  0.00     0.040 A 
HETATM   10  C8  UNK     1      20.086   6.089  32.080  1.00  0.00     0.004 A 
HETATM   11  C9  UNK     1      15.808   8.155  33.847  1.00  0.00     0.305 A 
ENDROOT
BRANCH   8  12
HETATM   12  C10 UNK     1      14.036   7.085  32.310  1.00  0.00     0.182 C 
HETATM   13  O5  UNK     1      13.701   7.009  31.136  1.00  0.00    -0.646 OA
BRANCH  12  14
HETATM   14  O4  UNK     1      13.237   7.022  33.388  1.00  0.00    -0.772 OA
HETATM   15  H8  UNK     1      12.950   7.910  33.690  1.00  0.00     0.167 HD
ENDBRANCH  12  14
ENDBRANCH   8  12
BRANCH   5  16
HETATM   16  O2  UNK     1      19.818   8.467  34.845  1.00  0.00    -0.353 OA
HETATM   17  C11 UNK     1      20.513   9.667  34.507  1.00  0.00     0.210 C 
ENDBRANCH   5  16
TORSDOF 3
ENDMDL
MODEL 3
REMARK VINA RESULT:      -6.7     24.022     25.927
REMARK  3 active torsions:
REMARK  status: ('A' for Active; 'I' for Inactive)
REMARK    1  A    between atoms: C3_8  and  O2_2 
REMARK    2  A    between atoms: C10_15  and  O4_4 
REMARK    3  A    between atoms: C10_15  and  C6_11 
ROOT
HETATM    1  O1  UNK     1      11.235   7.192   9.496  1.00  0.00    -0.271 OA
HETATM    2  O3  UNK     1      12.985   7.437  10.944  1.00  0.00    -0.259 OA
HETATM    3  C1  UNK     1      11.641   6.340   7.256  1.00  0.00     0.002 A 
HETATM    4  C2  UNK     1      10.762   6.815   8.225  1.00  0.00     0.123 A 
HETATM    5  C3  UNK     1       9.396   6.934   7.980  1.00  0.00     0.102 A 
HETATM    6  C4  UNK     1      13.056   6.242   7.578  1.00  0.00     0.039 A 
HETATM    7  C5  UNK     1      11.134   5.976   6.006  1.00  0.00     0.014 A 
HETATM    8  C6  UNK     1      13.499   6.601   8.788  1.00  0.00     0.114 A 
HETATM    9  C7  UNK     1       8.899   6.570   6.731  1.00  0.00     0.040 A 
HETATM   10  C8  UNK     1       9.766   6.091   5.745  1.00  0.00     0.004 A 
HETATM   11  C9  UNK     1      12.583   7.107   9.834  1.00  0.00     0.305 A 
ENDROOT
BRANCH   8  12
HETATM   12  C10 UNK     1      14.942   6.464   9.017  1.00  0.00     0.182 C 
HETATM   13  O5  UNK     1      15.555   5.428   8.802  1.00  0.00    -0.646 OA
BRANCH  12  14
HETATM   14  O4  UNK     1      15.444   7.624   9.476  1.00  0.00    -0.772 OA
HETATM   15  H8  UNK     1      14.968   8.402   9.116  1.00  0.00     0.167 HD
ENDBRANCH  12  14
ENDBRANCH   8  12
BRANCH   5  16
HETATM   16  O2  UNK     1       8.548   7.400   8.935  1.00  0.00    -0.353 OA
HETATM   17  C11 UNK     1       7.732   6.439   9.605  1.00  0.00     0.210 C 
ENDBRANCH   5  16
TORSDOF 3
ENDMDL
MODEL 4
REMARK VINA RESULT:      -6.7     12.232     14.850
REMARK  3 active torsions:
REMARK  status: ('A' for Active; 'I' for Inactive)
REMARK    1  A    between atoms: C3_8  and  O2_2 
REMARK    2  A    between atoms: C10_15  and  O4_4 
REMARK    3  A    between atoms: C10_15  and  C6_11 
ROOT
HETATM    1  O1  UNK     1      19.296   1.706  17.110  1.00  0.00    -0.271 OA
HETATM    2  O3  UNK     1      19.142   0.904  14.976  1.00  0.00    -0.259 OA
HETATM    3  C1  UNK     1      19.165   0.163  18.984  1.00  0.00     0.002 A 
HETATM    4  C2  UNK     1      19.306   1.458  18.496  1.00  0.00     0.123 A 
HETATM    5  C3  UNK     1      19.460   2.550  19.348  1.00  0.00     0.102 A 
HETATM    6  C4  UNK     1      19.007  -0.931  18.039  1.00  0.00     0.039 A 
HETATM    7  C5  UNK     1      19.180  -0.043  20.366  1.00  0.00     0.014 A 
HETATM    8  C6  UNK     1      19.000  -0.691  16.723  1.00  0.00     0.114 A 
HETATM    9  C7  UNK     1      19.473   2.337  20.724  1.00  0.00     0.040 A 
HETATM   10  C8  UNK     1      19.333   1.043  21.233  1.00  0.00     0.004 A 
HETATM   11  C9  UNK     1      19.149   0.679  16.181  1.00  0.00     0.305 A 
ENDROOT
BRANCH   8  12
HETATM   12  C10 UNK     1      18.835  -1.859  15.850  1.00  0.00     0.182 C 
HETATM   13  O5  UNK     1      17.816  -2.534  15.828  1.00  0.00    -0.646 OA
BRANCH  12  14
HETATM   14  O4  UNK     1      19.946  -2.040  15.115  1.00  0.00    -0.772 OA
HETATM   15  H8  UNK     1      19.956  -1.474  14.314  1.00  0.00     0.167 HD
ENDBRANCH  12  14
ENDBRANCH   8  12
BRANCH   5  16
HETATM   16  O2  UNK     1      19.596   3.811  18.858  1.00  0.00    -0.353 OA
HETATM   17  C11 UNK     1      20.919   4.248  18.546  1.00  0.00     0.210 C 
ENDBRANCH   5  16
TORSDOF 3
ENDMDL
MODEL 5
REMARK VINA RESULT:      -6.6      7.013      8.661
REMARK  3 active torsions:
REMARK  status: ('A' for Active; 'I' for Inactive)
REMARK    1  A    between atoms: C3_8  and  O2_2 
REMARK    2  A    between atoms: C10_15  and  O4_4 
REMARK    3  A    between atoms: C10_15  and  C6_11 
ROOT
HETATM    1  O1  UNK     1      16.198   6.343  32.060  1.00  0.00    -0.271 OA
HETATM    2  O3  UNK     1      13.965   6.818  31.964  1.00  0.00    -0.259 OA
HETATM    3  C1  UNK     1      17.679   7.793  33.331  1.00  0.00     0.002 A 
HETATM    4  C2  UNK     1      17.484   6.673  32.529  1.00  0.00     0.123 A 
HETATM    5  C3  UNK     1      18.540   5.841  32.161  1.00  0.00     0.102 A 
HETATM    6  C4  UNK     1      16.532   8.618  33.676  1.00  0.00     0.039 A 
HETATM    7  C5  UNK     1      18.970   8.087  33.776  1.00  0.00     0.014 A 
HETATM    8  C6  UNK     1      15.312   8.300  33.229  1.00  0.00     0.114 A 
HETATM    9  C7  UNK     1      19.824   6.142  32.609  1.00  0.00     0.040 A 
HETATM   10  C8  UNK     1      20.039   7.263  33.415  1.00  0.00     0.004 A 
HETATM   11  C9  UNK     1      15.081   7.113  32.376  1.00  0.00     0.305 A 
ENDROOT
BRANCH   8  12
HETATM   12  C10 UNK     1      14.220   9.193  33.632  1.00  0.00     0.182 C 
HETATM   13  O5  UNK     1      14.138   9.681  34.750  1.00  0.00    -0.646 OA
BRANCH  12  14
HETATM   14  O4  UNK     1      13.374   9.374  32.602  1.00  0.00    -0.772 OA
HETATM   15  H8  UNK     1      12.455   9.117  32.828  1.00  0.00     0.167 HD
ENDBRANCH  12  14
ENDBRANCH   8  12
BRANCH   5  16
HETATM   16  O2  UNK     1      18.336   4.750  31.377  1.00  0.00    -0.353 OA
HETATM   17  C11 UNK     1      19.100   4.660  30.175  1.00  0.00     0.210 C 
ENDBRANCH   5  16
TORSDOF 3
ENDMDL
MODEL 6
REMARK VINA RESULT:      -6.6     13.694     16.409
REMARK  3 active torsions:
REMARK  status: ('A' for Active; 'I' for Inactive)
REMARK    1  A    between atoms: C3_8  and  O2_2 
REMARK    2  A    between atoms: C10_15  and  O4_4 
REMARK    3  A    between atoms: C10_15  and  C6_11 
ROOT
HETATM    1  O1  UNK     1      19.249   0.822  14.863  1.00  0.00    -0.271 OA
HETATM    2  O3  UNK     1      19.503   2.931  15.704  1.00  0.00    -0.259 OA
HETATM    3  C1  UNK     1      18.829  -1.031  16.379  1.00  0.00     0.002 A 
HETATM    4  C2  UNK     1      19.016  -0.548  15.088  1.00  0.00     0.123 A 
HETATM    5  C3  UNK     1      18.980  -1.390  13.978  1.00  0.00     0.102 A 
HETATM    6  C4  UNK     1      18.879  -0.097  17.494  1.00  0.00     0.039 A 
HETATM    7  C5  UNK     1      18.600  -2.397  16.562  1.00  0.00     0.014 A 
HETATM    8  C6  UNK     1      19.100   1.204  17.274  1.00  0.00     0.114 A 
HETATM    9  C7  UNK     1      18.753  -2.750  14.169  1.00  0.00     0.040 A 
HETATM   10  C8  UNK     1      18.563  -3.254  15.458  1.00  0.00     0.004 A 
HETATM   11  C9  UNK     1      19.300   1.740  15.909  1.00  0.00     0.305 A 
ENDROOT
BRANCH   8  12
HETATM   12  C10 UNK     1      19.132   2.065  18.462  1.00  0.00     0.182 C 
HETATM   13  O5  UNK     1      19.630   1.718  19.522  1.00  0.00    -0.646 OA
BRANCH  12  14
HETATM   14  O4  UNK     1      18.550   3.246  18.186  1.00  0.00    -0.772 OA
HETATM   15  H8  UNK     1      18.058   3.605  18.954  1.00  0.00     0.167 HD
ENDBRANCH  12  14
ENDBRANCH   8  12
BRANCH   5  16
HETATM   16  O2  UNK     1      19.165  -0.904  12.722  1.00  0.00    -0.353 OA
HETATM   17  C11 UNK     1      20.189  -1.511  11.934  1.00  0.00     0.210 C 
ENDBRANCH   5  16
TORSDOF 3
ENDMDL
MODEL 7
REMARK VINA RESULT:      -6.6      2.279      5.397
REMARK  3 active torsions:
REMARK  status: ('A' for Active; 'I' for Inactive)
REMARK    1  A    between atoms: C3_8  and  O2_2 
REMARK    2  A    between atoms: C10_15  and  O4_4 
REMARK    3  A    between atoms: C10_15  and  C6_11 
ROOT
HETATM    1  O1  UNK     1      18.943   0.355  32.385  1.00  0.00    -0.271 OA
HETATM    2  O3  UNK     1      19.569  -1.581  31.345  1.00  0.00    -0.259 OA
HETATM    3  C1  UNK     1      18.773   2.408  31.095  1.00  0.00     0.002 A 
HETATM    4  C2  UNK     1      18.666   1.733  32.306  1.00  0.00     0.123 A 
HETATM    5  C3  UNK     1      18.285   2.385  33.478  1.00  0.00     0.102 A 
HETATM    6  C4  UNK     1      19.178   1.667  29.910  1.00  0.00     0.039 A 
HETATM    7  C5  UNK     1      18.490   3.776  31.057  1.00  0.00     0.014 A 
HETATM    8  C6  UNK     1      19.439   0.358  29.990  1.00  0.00     0.114 A 
HETATM    9  C7  UNK     1      18.005   3.748  33.432  1.00  0.00     0.040 A 
HETATM   10  C8  UNK     1      18.107   4.443  32.224  1.00  0.00     0.004 A 
HETATM   11  C9  UNK     1      19.330  -0.381  31.268  1.00  0.00     0.305 A 
ENDROOT
BRANCH   8  12
HETATM   12  C10 UNK     1      19.839  -0.301  28.741  1.00  0.00     0.182 C 
HETATM   13  O5  UNK     1      20.990  -0.639  28.506  1.00  0.00    -0.646 OA
BRANCH  12  14
HETATM   14  O4  UNK     1      18.766  -0.463  27.947  1.00  0.00    -0.772 OA
HETATM   15  H8  UNK     1      18.109   0.255  28.060  1.00  0.00     0.167 HD
ENDBRANCH  12  14
ENDBRANCH   8  12
BRANCH   5  16
HETATM   16  O2  UNK     1      18.184   1.712  34.655  1.00  0.00    -0.353 OA
HETATM   17  C11 UNK     1      19.034   2.136  35.721  1.00  0.00     0.210 C 
ENDBRANCH   5  16
TORSDOF 3
ENDMDL
MODEL 8
REMARK VINA RESULT:      -6.6      3.790      5.553
REMARK  3 active torsions:
REMARK  status: ('A' for Active; 'I' for Inactive)
REMARK    1  A    between atoms: C3_8  and  O2_2 
REMARK    2  A    between atoms: C10_15  and  O4_4 
REMARK    3  A    between atoms: C10_15  and  C6_11 
ROOT
HETATM    1  O1  UNK     1      19.609  -1.108  34.695  1.00  0.00    -0.271 OA
HETATM    2  O3  UNK     1      20.720  -2.939  33.899  1.00  0.00    -0.259 OA
HETATM    3  C1  UNK     1      18.598  -1.185  36.905  1.00  0.00     0.002 A 
HETATM    4  C2  UNK     1      18.876  -0.495  35.728  1.00  0.00     0.123 A 
HETATM    5  C3  UNK     1      18.445   0.815  35.528  1.00  0.00     0.102 A 
HETATM    6  C4  UNK     1      19.077  -2.551  37.048  1.00  0.00     0.039 A 
HETATM    7  C5  UNK     1      17.868  -0.543  37.907  1.00  0.00     0.014 A 
HETATM    8  C6  UNK     1      19.774  -3.129  36.063  1.00  0.00     0.114 A 
HETATM    9  C7  UNK     1      17.717   1.448  36.533  1.00  0.00     0.040 A 
HETATM   10  C8  UNK     1      17.429   0.771  37.720  1.00  0.00     0.004 A 
HETATM   11  C9  UNK     1      20.082  -2.413  34.804  1.00  0.00     0.305 A 
ENDROOT
BRANCH   8  12
HETATM   12  C10 UNK     1      20.214  -4.508  36.302  1.00  0.00     0.182 C 
HETATM   13  O5  UNK     1      21.096  -4.796  37.098  1.00  0.00    -0.646 OA
BRANCH  12  14
HETATM   14  O4  UNK     1      19.506  -5.354  35.533  1.00  0.00    -0.772 OA
HETATM   15  H8  UNK     1      20.079  -5.995  35.063  1.00  0.00     0.167 HD
ENDBRANCH  12  14
ENDBRANCH   8  12
BRANCH   5  16
HETATM   16  O2  UNK     1      18.723   1.478  34.374  1.00  0.00    -0.353 OA
HETATM   17  C11 UNK     1      18.328   2.847  34.299  1.00  0.00     0.210 C 
ENDBRANCH   5  16
TORSDOF 3
ENDMDL
MODEL 9
REMARK VINA RESULT:      -6.6     30.489     32.625
REMARK  3 active torsions:
REMARK  status: ('A' for Active; 'I' for Inactive)
REMARK    1  A    between atoms: C3_8  and  O2_2 
REMARK    2  A    between atoms: C10_15  and  O4_4 
REMARK    3  A    between atoms: C10_15  and  C6_11 
ROOT
HETATM    1  O1  UNK     1      48.239   3.567  19.264  1.00  0.00    -0.271 OA
HETATM    2  O3  UNK     1      46.701   1.915  19.618  1.00  0.00    -0.259 OA
HETATM    3  C1  UNK     1      48.055   4.974  17.289  1.00  0.00     0.002 A 
HETATM    4  C2  UNK     1      48.713   4.625  18.465  1.00  0.00     0.123 A 
HETATM    5  C3  UNK     1      49.853   5.301  18.896  1.00  0.00     0.102 A 
HETATM    6  C4  UNK     1      46.871   4.225  16.898  1.00  0.00     0.039 A 
HETATM    7  C5  UNK     1      48.556   6.030  16.524  1.00  0.00     0.014 A 
HETATM    8  C6  UNK     1      46.424   3.221  17.661  1.00  0.00     0.114 A 
HETATM    9  C7  UNK     1      50.346   6.352  18.127  1.00  0.00     0.040 A 
HETATM   10  C8  UNK     1      49.699   6.717  16.943  1.00  0.00     0.004 A 
HETATM   11  C9  UNK     1      47.106   2.834  18.916  1.00  0.00     0.305 A 
ENDROOT
BRANCH   8  12
HETATM   12  C10 UNK     1      45.223   2.528  17.182  1.00  0.00     0.182 C 
HETATM   13  O5  UNK     1      45.146   1.311  17.099  1.00  0.00    -0.646 OA
BRANCH  12  14
HETATM   14  O4  UNK     1      44.269   3.425  16.875  1.00  0.00    -0.772 OA
HETATM   15  H8  UNK     1      44.405   3.821  15.988  1.00  0.00     0.167 HD
ENDBRANCH  12  14
ENDBRANCH   8  12
BRANCH   5  16
HETATM   16  O2  UNK     1      50.485   4.950  20.047  1.00  0.00    -0.353 OA
HETATM   17  C11 UNK     1      50.593   5.949  21.061  1.00  0.00     0.210 C 
ENDBRANCH   5  16
TORSDOF 3
ENDMDL
MODEL 10
REMARK VINA RESULT:      -6.5      7.676     10.182
REMARK  3 active torsions:
REMARK  status: ('A' for Active; 'I' for Inactive)
REMARK    1  A    between atoms: C3_8  and  O2_2 
REMARK    2  A    between atoms: C10_15  and  O4_4 
REMARK    3  A    between atoms: C10_15  and  C6_11 
ROOT
HETATM    1  O1  UNK     1      20.621  -8.353  35.354  1.00  0.00    -0.271 OA
HETATM    2  O3  UNK     1      20.741  -6.400  34.175  1.00  0.00    -0.259 OA
HETATM    3  C1  UNK     1      19.620  -8.359  37.569  1.00  0.00     0.002 A 
HETATM    4  C2  UNK     1      20.236  -9.037  36.522  1.00  0.00     0.123 A 
HETATM    5  C3  UNK     1      20.494 -10.406  36.587  1.00  0.00     0.102 A 
HETATM    6  C4  UNK     1      19.380  -6.930  37.436  1.00  0.00     0.039 A 
HETATM    7  C5  UNK     1      19.252  -9.072  38.712  1.00  0.00     0.014 A 
HETATM    8  C6  UNK     1      19.747  -6.285  36.323  1.00  0.00     0.114 A 
HETATM    9  C7  UNK     1      20.125 -11.109  37.731  1.00  0.00     0.040 A 
HETATM   10  C8  UNK     1      19.505 -10.444  38.792  1.00  0.00     0.004 A 
HETATM   11  C9  UNK     1      20.403  -6.987  35.196  1.00  0.00     0.305 A 
ENDROOT
BRANCH   8  12
HETATM   12  C10 UNK     1      19.463  -4.846  36.283  1.00  0.00     0.182 C 
HETATM   13  O5  UNK     1      20.306  -4.009  35.992  1.00  0.00    -0.646 OA
BRANCH  12  14
HETATM   14  O4  UNK     1      18.176  -4.625  36.601  1.00  0.00    -0.772 OA
HETATM   15  H8  UNK     1      18.012  -4.706  37.564  1.00  0.00     0.167 HD
ENDBRANCH  12  14
ENDBRANCH   8  12
BRANCH   5  16
HETATM   16  O2  UNK     1      21.098 -11.057  35.558  1.00  0.00    -0.353 OA
HETATM   17  C11 UNK     1      22.517 -11.190  35.615  1.00  0.00     0.210 C 
ENDBRANCH   5  16
TORSDOF 3
ENDMDL
