MODEL 1
REMARK VINA RESULT:     -10.1      0.000      0.000
REMARK  9 active torsions:
REMARK  status: ('A' for Active; 'I' for Inactive)
REMARK    1  A    between atoms: C12_22  and  O2_2 
REMARK    2  A    between atoms: C6_16  and  O2_2 
REMARK    3  A    between atoms: C19_29  and  O4_4 
REMARK    4  A    between atoms: C20_30  and  O4_4 
REMARK       I    between atoms: C19_29  and  N1_9 
REMARK    5  A    between atoms: C8_18  and  N1_9 
REMARK    6  A    between atoms: C18_28  and  N2_10 
REMARK    7  A    between atoms: C3_13  and  C5_15 
REMARK    8  A    between atoms: C12_22  and  C8_18 
REMARK    9  A    between atoms: C20_30  and  C21_31 
ROOT
HETATM    1  O1  UNK     1      18.041   3.807  33.447  1.00  0.00    -0.321 OA
HETATM    2  O3  UNK     1      18.540   6.604  30.519  1.00  0.00    -0.286 OA
HETATM    3  C1  UNK     1      18.464   4.329  31.115  1.00  0.00     0.049 A 
HETATM    4  C2  UNK     1      18.296   3.417  32.158  1.00  0.00     0.091 A 
HETATM    5  C3  UNK     1      18.071   6.150  32.809  1.00  0.00     0.048 A 
HETATM    6  C4  UNK     1      18.369   5.772  31.401  1.00  0.00     0.197 A 
HETATM    7  C6  UNK     1      18.644   1.591  30.619  1.00  0.00     0.082 A 
HETATM    8  C7  UNK     1      18.386   2.047  31.911  1.00  0.00     0.075 A 
HETATM    9  C9  UNK     1      18.724   3.873  29.819  1.00  0.00     0.021 A 
HETATM   10  C10 UNK     1      17.934   5.154  33.697  1.00  0.00     0.159 A 
HETATM   11  C11 UNK     1      18.812   2.502  29.575  1.00  0.00     0.038 A 
ENDROOT
BRANCH   7  12
HETATM   12  O2  UNK     1      18.732   0.256  30.374  1.00  0.00    -0.277 OA
BRANCH  12  13
HETATM   13  C12 UNK     1      20.019  -0.194  30.038  1.00  0.00     0.286 C 
HETATM   14  O5  UNK     1      20.643   0.167  29.045  1.00  0.00    -0.263 OA
BRANCH  13  15
HETATM   15  C8  UNK     1      20.581  -1.186  31.049  1.00  0.00     0.183 C 
HETATM   16  C15 UNK     1      20.593  -2.588  30.461  1.00  0.00     0.043 C 
BRANCH  15  17
HETATM   17  N1  UNK     1      19.846  -1.168  32.287  1.00  0.00    -0.323 N 
HETATM   18  C19 UNK     1      20.279  -1.778  33.448  1.00  0.00     0.361 C 
HETATM   19  O6  UNK     1      21.327  -2.403  33.579  1.00  0.00    -0.238 OA
HETATM   20  H11 UNK     1      18.948  -0.693  32.310  1.00  0.00     0.165 HD
BRANCH  18  21
HETATM   21  O4  UNK     1      19.363  -1.584  34.444  1.00  0.00    -0.299 OA
BRANCH  21  22
HETATM   22  C20 UNK     1      18.137  -0.956  34.050  1.00  0.00     0.219 C 
BRANCH  22  23
HETATM   23  C21 UNK     1      17.665  -0.064  35.160  1.00  0.00    -0.034 A 
HETATM   24  C22 UNK     1      16.332  -0.104  35.569  1.00  0.00     0.009 A 
HETATM   25  C24 UNK     1      15.893   0.726  36.601  1.00  0.00     0.001 A 
HETATM   26  C26 UNK     1      16.788   1.595  37.225  1.00  0.00     0.000 A 
HETATM   27  C25 UNK     1      18.121   1.635  36.817  1.00  0.00     0.001 A 
HETATM   28  C23 UNK     1      18.560   0.805  35.785  1.00  0.00     0.009 A 
ENDBRANCH  22  23
ENDBRANCH  21  22
ENDBRANCH  18  21
ENDBRANCH  15  17
ENDBRANCH  13  15
ENDBRANCH  12  13
ENDBRANCH   7  12
BRANCH   5  29
HETATM   29  C5  UNK     1      17.911   7.555  33.222  1.00  0.00    -0.020 A 
HETATM   30  C13 UNK     1      19.008   8.267  33.708  1.00  0.00     0.015 A 
HETATM   31  C16 UNK     1      18.857   9.597  34.101  1.00  0.00     0.037 A 
HETATM   32  C18 UNK     1      17.610  10.214  34.007  1.00  0.00     0.102 A 
HETATM   33  C17 UNK     1      16.514   9.502  33.521  1.00  0.00     0.037 A 
HETATM   34  C14 UNK     1      16.665   8.172  33.128  1.00  0.00     0.015 A 
BRANCH  32  35
HETATM   35  N2  UNK     1      17.457  11.568  34.407  1.00  0.00    -0.116 N 
HETATM   36  O7  UNK     1      16.582  11.855  35.260  1.00  0.00    -0.532 OA
HETATM   37  O8  UNK     1      18.202  12.440  33.898  1.00  0.00    -0.532 OA
ENDBRANCH  32  35
ENDBRANCH   5  29
TORSDOF 9
ENDMDL
MODEL 2
REMARK VINA RESULT:      -9.8      3.678     10.675
REMARK  9 active torsions:
REMARK  status: ('A' for Active; 'I' for Inactive)
REMARK    1  A    between atoms: C12_22  and  O2_2 
REMARK    2  A    between atoms: C6_16  and  O2_2 
REMARK    3  A    between atoms: C19_29  and  O4_4 
REMARK    4  A    between atoms: C20_30  and  O4_4 
REMARK       I    between atoms: C19_29  and  N1_9 
REMARK    5  A    between atoms: C8_18  and  N1_9 
REMARK    6  A    between atoms: C18_28  and  N2_10 
REMARK    7  A    between atoms: C3_13  and  C5_15 
REMARK    8  A    between atoms: C12_22  and  C8_18 
REMARK    9  A    between atoms: C20_30  and  C21_31 
ROOT
HETATM    1  O1  UNK     1      19.713  -1.572  33.885  1.00  0.00    -0.321 OA
HETATM    2  O3  UNK     1      18.731  -2.041  37.817  1.00  0.00    -0.286 OA
HETATM    3  C1  UNK     1      18.618  -0.717  35.874  1.00  0.00     0.049 A 
HETATM    4  C2  UNK     1      18.991  -0.605  34.535  1.00  0.00     0.091 A 
HETATM    5  C3  UNK     1      19.778  -2.952  35.883  1.00  0.00     0.048 A 
HETATM    6  C4  UNK     1      19.013  -1.919  36.632  1.00  0.00     0.197 A 
HETATM    7  C6  UNK     1      17.897   1.543  34.409  1.00  0.00     0.082 A 
HETATM    8  C7  UNK     1      18.631   0.525  33.800  1.00  0.00     0.075 A 
HETATM    9  C9  UNK     1      17.882   0.302  36.486  1.00  0.00     0.021 A 
HETATM   10  C10 UNK     1      20.057  -2.697  34.596  1.00  0.00     0.159 A 
HETATM   11  C11 UNK     1      17.523   1.431  35.749  1.00  0.00     0.038 A 
ENDROOT
BRANCH   7  12
HETATM   12  O2  UNK     1      17.544   2.646  33.696  1.00  0.00    -0.277 OA
BRANCH  12  13
HETATM   13  C12 UNK     1      18.375   3.760  33.892  1.00  0.00     0.286 C 
HETATM   14  O5  UNK     1      19.052   3.953  34.897  1.00  0.00    -0.263 OA
BRANCH  13  15
HETATM   15  C8  UNK     1      18.363   4.722  32.710  1.00  0.00     0.183 C 
HETATM   16  C15 UNK     1      17.246   5.740  32.871  1.00  0.00     0.043 C 
BRANCH  15  17
HETATM   17  N1  UNK     1      18.233   4.030  31.454  1.00  0.00    -0.323 N 
HETATM   18  C19 UNK     1      19.027   4.281  30.351  1.00  0.00     0.361 C 
HETATM   19  O6  UNK     1      19.929   5.110  30.295  1.00  0.00    -0.238 OA
HETATM   20  H11 UNK     1      17.509   3.324  31.363  1.00  0.00     0.165 HD
BRANCH  18  21
HETATM   21  O4  UNK     1      18.658   3.465  29.319  1.00  0.00    -0.299 OA
BRANCH  21  22
HETATM   22  C20 UNK     1      17.961   2.268  29.686  1.00  0.00     0.219 C 
BRANCH  22  23
HETATM   23  C21 UNK     1      18.898   1.102  29.571  1.00  0.00    -0.034 A 
HETATM   24  C22 UNK     1      18.908   0.328  28.411  1.00  0.00     0.009 A 
HETATM   25  C24 UNK     1      19.778  -0.758  28.304  1.00  0.00     0.001 A 
HETATM   26  C26 UNK     1      20.639  -1.068  29.357  1.00  0.00     0.000 A 
HETATM   27  C25 UNK     1      20.630  -0.293  30.517  1.00  0.00     0.001 A 
HETATM   28  C23 UNK     1      19.759   0.792  30.624  1.00  0.00     0.009 A 
ENDBRANCH  22  23
ENDBRANCH  21  22
ENDBRANCH  18  21
ENDBRANCH  15  17
ENDBRANCH  13  15
ENDBRANCH  12  13
ENDBRANCH   7  12
BRANCH   5  29
HETATM   29  C5  UNK     1      20.201  -4.216  36.509  1.00  0.00    -0.020 A 
HETATM   30  C13 UNK     1      19.718  -5.431  36.022  1.00  0.00     0.015 A 
HETATM   31  C16 UNK     1      20.117  -6.628  36.616  1.00  0.00     0.037 A 
HETATM   32  C18 UNK     1      20.998  -6.611  37.696  1.00  0.00     0.102 A 
HETATM   33  C17 UNK     1      21.481  -5.396  38.183  1.00  0.00     0.037 A 
HETATM   34  C14 UNK     1      21.082  -4.199  37.589  1.00  0.00     0.015 A 
BRANCH  32  35
HETATM   35  N2  UNK     1      21.404  -7.830  38.300  1.00  0.00    -0.116 N 
HETATM   36  O7  UNK     1      20.656  -8.365  39.153  1.00  0.00    -0.532 OA
HETATM   37  O8  UNK     1      22.500  -8.341  37.961  1.00  0.00    -0.532 OA
ENDBRANCH  32  35
ENDBRANCH   5  29
TORSDOF 9
ENDMDL
MODEL 3
REMARK VINA RESULT:      -9.7      2.177      3.662
REMARK  9 active torsions:
REMARK  status: ('A' for Active; 'I' for Inactive)
REMARK    1  A    between atoms: C12_22  and  O2_2 
REMARK    2  A    between atoms: C6_16  and  O2_2 
REMARK    3  A    between atoms: C19_29  and  O4_4 
REMARK    4  A    between atoms: C20_30  and  O4_4 
REMARK       I    between atoms: C19_29  and  N1_9 
REMARK    5  A    between atoms: C8_18  and  N1_9 
REMARK    6  A    between atoms: C18_28  and  N2_10 
REMARK    7  A    between atoms: C3_13  and  C5_15 
REMARK    8  A    between atoms: C12_22  and  C8_18 
REMARK    9  A    between atoms: C20_30  and  C21_31 
ROOT
HETATM    1  O1  UNK     1      16.729   7.989  31.384  1.00  0.00    -0.321 OA
HETATM    2  O3  UNK     1      17.067   7.709  35.440  1.00  0.00    -0.286 OA
HETATM    3  C1  UNK     1      17.522   6.774  33.329  1.00  0.00     0.049 A 
HETATM    4  C2  UNK     1      17.367   6.916  31.950  1.00  0.00     0.091 A 
HETATM    5  C3  UNK     1      16.311   8.969  33.567  1.00  0.00     0.048 A 
HETATM    6  C4  UNK     1      16.978   7.812  34.223  1.00  0.00     0.197 A 
HETATM    7  C6  UNK     1      18.529   4.829  31.603  1.00  0.00     0.082 A 
HETATM    8  C7  UNK     1      17.870   5.944  31.085  1.00  0.00     0.075 A 
HETATM    9  C9  UNK     1      18.182   5.657  33.850  1.00  0.00     0.021 A 
HETATM   10  C10 UNK     1      16.245   8.960  32.227  1.00  0.00     0.159 A 
HETATM   11  C11 UNK     1      18.685   4.686  32.983  1.00  0.00     0.038 A 
ENDROOT
BRANCH   7  12
HETATM   12  O2  UNK     1      19.022   3.879  30.763  1.00  0.00    -0.277 OA
BRANCH  12  13
HETATM   13  C12 UNK     1      18.243   2.714  30.676  1.00  0.00     0.286 C 
HETATM   14  O5  UNK     1      17.020   2.688  30.775  1.00  0.00    -0.263 OA
BRANCH  13  15
HETATM   15  C8  UNK     1      19.076   1.462  30.435  1.00  0.00     0.183 C 
HETATM   16  C15 UNK     1      18.985   1.041  28.976  1.00  0.00     0.043 C 
BRANCH  15  17
HETATM   17  N1  UNK     1      18.680   0.377  31.295  1.00  0.00    -0.323 N 
HETATM   18  C19 UNK     1      19.557  -0.561  31.803  1.00  0.00     0.361 C 
HETATM   19  O6  UNK     1      20.766  -0.596  31.596  1.00  0.00    -0.238 OA
HETATM   20  H11 UNK     1      17.697   0.283  31.534  1.00  0.00     0.165 HD
BRANCH  18  21
HETATM   21  O4  UNK     1      18.878  -1.457  32.581  1.00  0.00    -0.299 OA
BRANCH  21  22
HETATM   22  C20 UNK     1      19.274  -1.516  33.956  1.00  0.00     0.219 C 
BRANCH  22  23
HETATM   23  C21 UNK     1      18.291  -0.741  34.783  1.00  0.00    -0.034 A 
HETATM   24  C22 UNK     1      18.734   0.012  35.869  1.00  0.00     0.009 A 
HETATM   25  C24 UNK     1      17.820   0.732  36.639  1.00  0.00     0.001 A 
HETATM   26  C26 UNK     1      16.462   0.700  36.320  1.00  0.00     0.000 A 
HETATM   27  C25 UNK     1      16.019  -0.053  35.233  1.00  0.00     0.001 A 
HETATM   28  C23 UNK     1      16.933  -0.774  34.464  1.00  0.00     0.009 A 
ENDBRANCH  22  23
ENDBRANCH  21  22
ENDBRANCH  18  21
ENDBRANCH  15  17
ENDBRANCH  13  15
ENDBRANCH  12  13
ENDBRANCH   7  12
BRANCH   5  29
HETATM   29  C5  UNK     1      15.759  10.093  34.341  1.00  0.00    -0.020 A 
HETATM   30  C13 UNK     1      14.479  10.001  34.887  1.00  0.00     0.015 A 
HETATM   31  C16 UNK     1      13.955  11.067  35.619  1.00  0.00     0.037 A 
HETATM   32  C18 UNK     1      14.711  12.223  35.806  1.00  0.00     0.102 A 
HETATM   33  C17 UNK     1      15.991  12.315  35.260  1.00  0.00     0.037 A 
HETATM   34  C14 UNK     1      16.515  11.250  34.528  1.00  0.00     0.015 A 
BRANCH  32  35
HETATM   35  N2  UNK     1      14.177  13.307  36.552  1.00  0.00    -0.116 N 
HETATM   36  O7  UNK     1      14.799  14.397  36.570  1.00  0.00    -0.532 OA
HETATM   37  O8  UNK     1      13.097  13.146  37.169  1.00  0.00    -0.532 OA
ENDBRANCH  32  35
ENDBRANCH   5  29
TORSDOF 9
ENDMDL
MODEL 4
REMARK VINA RESULT:      -9.6      2.118      2.967
REMARK  9 active torsions:
REMARK  status: ('A' for Active; 'I' for Inactive)
REMARK    1  A    between atoms: C12_22  and  O2_2 
REMARK    2  A    between atoms: C6_16  and  O2_2 
REMARK    3  A    between atoms: C19_29  and  O4_4 
REMARK    4  A    between atoms: C20_30  and  O4_4 
REMARK       I    between atoms: C19_29  and  N1_9 
REMARK    5  A    between atoms: C8_18  and  N1_9 
REMARK    6  A    between atoms: C18_28  and  N2_10 
REMARK    7  A    between atoms: C3_13  and  C5_15 
REMARK    8  A    between atoms: C12_22  and  C8_18 
REMARK    9  A    between atoms: C20_30  and  C21_31 
ROOT
HETATM    1  O1  UNK     1      17.141   5.782  33.745  1.00  0.00    -0.321 OA
HETATM    2  O3  UNK     1      16.390   8.738  31.034  1.00  0.00    -0.286 OA
HETATM    3  C1  UNK     1      17.358   6.640  31.485  1.00  0.00     0.049 A 
HETATM    4  C2  UNK     1      17.595   5.667  32.456  1.00  0.00     0.091 A 
HETATM    5  C3  UNK     1      16.102   7.922  33.252  1.00  0.00     0.048 A 
HETATM    6  C4  UNK     1      16.593   7.847  31.849  1.00  0.00     0.197 A 
HETATM    7  C6  UNK     1      18.807   4.348  30.839  1.00  0.00     0.082 A 
HETATM    8  C7  UNK     1      18.319   4.520  32.135  1.00  0.00     0.075 A 
HETATM    9  C9  UNK     1      17.846   6.470  30.187  1.00  0.00     0.021 A 
HETATM   10  C10 UNK     1      16.411   6.901  34.066  1.00  0.00     0.159 A 
HETATM   11  C11 UNK     1      18.570   5.321  29.867  1.00  0.00     0.038 A 
ENDROOT
BRANCH   7  12
HETATM   12  O2  UNK     1      19.514   3.229  30.522  1.00  0.00    -0.277 OA
BRANCH  12  13
HETATM   13  C12 UNK     1      18.728   2.127  30.149  1.00  0.00     0.286 C 
HETATM   14  O5  UNK     1      17.580   2.205  29.724  1.00  0.00    -0.263 OA
BRANCH  13  15
HETATM   15  C8  UNK     1      19.455   0.799  30.317  1.00  0.00     0.183 C 
HETATM   16  C15 UNK     1      19.492   0.047  28.996  1.00  0.00     0.043 C 
BRANCH  15  17
HETATM   17  N1  UNK     1      18.856  -0.017  31.341  1.00  0.00    -0.323 N 
HETATM   18  C19 UNK     1      19.541  -0.978  32.059  1.00  0.00     0.361 C 
HETATM   19  O6  UNK     1      20.728  -1.259  31.924  1.00  0.00    -0.238 OA
HETATM   20  H11 UNK     1      17.868   0.107  31.542  1.00  0.00     0.165 HD
BRANCH  18  21
HETATM   21  O4  UNK     1      18.699  -1.578  32.952  1.00  0.00    -0.299 OA
BRANCH  21  22
HETATM   22  C20 UNK     1      19.108  -1.534  34.324  1.00  0.00     0.219 C 
BRANCH  22  23
HETATM   23  C21 UNK     1      18.077  -0.790  35.119  1.00  0.00    -0.034 A 
HETATM   24  C22 UNK     1      18.381  -0.330  36.400  1.00  0.00     0.009 A 
HETATM   25  C24 UNK     1      17.421   0.361  37.140  1.00  0.00     0.001 A 
HETATM   26  C26 UNK     1      16.157   0.593  36.598  1.00  0.00     0.000 A 
HETATM   27  C25 UNK     1      15.852   0.133  35.317  1.00  0.00     0.001 A 
HETATM   28  C23 UNK     1      16.812  -0.559  34.577  1.00  0.00     0.009 A 
ENDBRANCH  22  23
ENDBRANCH  21  22
ENDBRANCH  18  21
ENDBRANCH  15  17
ENDBRANCH  13  15
ENDBRANCH  12  13
ENDBRANCH   7  12
BRANCH   5  29
HETATM   29  C5  UNK     1      15.294   9.053  33.736  1.00  0.00    -0.020 A 
HETATM   30  C13 UNK     1      15.642   9.702  34.921  1.00  0.00     0.015 A 
HETATM   31  C16 UNK     1      14.876  10.773  35.381  1.00  0.00     0.037 A 
HETATM   32  C18 UNK     1      13.762  11.195  34.656  1.00  0.00     0.102 A 
HETATM   33  C17 UNK     1      13.413  10.546  33.471  1.00  0.00     0.037 A 
HETATM   34  C14 UNK     1      14.180   9.475  33.012  1.00  0.00     0.015 A 
BRANCH  32  35
HETATM   35  N2  UNK     1      12.982  12.286  35.124  1.00  0.00    -0.116 N 
HETATM   36  O7  UNK     1      13.548  13.211  35.755  1.00  0.00    -0.532 OA
HETATM   37  O8  UNK     1      11.749  12.295  34.892  1.00  0.00    -0.532 OA
ENDBRANCH  32  35
ENDBRANCH   5  29
TORSDOF 9
ENDMDL
MODEL 5
REMARK VINA RESULT:      -9.5      2.667      4.248
REMARK  9 active torsions:
REMARK  status: ('A' for Active; 'I' for Inactive)
REMARK    1  A    between atoms: C12_22  and  O2_2 
REMARK    2  A    between atoms: C6_16  and  O2_2 
REMARK    3  A    between atoms: C19_29  and  O4_4 
REMARK    4  A    between atoms: C20_30  and  O4_4 
REMARK       I    between atoms: C19_29  and  N1_9 
REMARK    5  A    between atoms: C8_18  and  N1_9 
REMARK    6  A    between atoms: C18_28  and  N2_10 
REMARK    7  A    between atoms: C3_13  and  C5_15 
REMARK    8  A    between atoms: C12_22  and  C8_18 
REMARK    9  A    between atoms: C20_30  and  C21_31 
ROOT
HETATM    1  O1  UNK     1      15.348   6.584  32.599  1.00  0.00    -0.321 OA
HETATM    2  O3  UNK     1      17.350   9.843  34.019  1.00  0.00    -0.286 OA
HETATM    3  C1  UNK     1      17.454   7.709  33.032  1.00  0.00     0.049 A 
HETATM    4  C2  UNK     1      16.719   6.617  32.571  1.00  0.00     0.091 A 
HETATM    5  C3  UNK     1      15.253   8.808  33.570  1.00  0.00     0.048 A 
HETATM    6  C4  UNK     1      16.740   8.878  33.577  1.00  0.00     0.197 A 
HETATM    7  C6  UNK     1      18.767   5.476  32.002  1.00  0.00     0.082 A 
HETATM    8  C7  UNK     1      17.374   5.499  32.055  1.00  0.00     0.075 A 
HETATM    9  C9  UNK     1      18.851   7.687  32.980  1.00  0.00     0.021 A 
HETATM   10  C10 UNK     1      14.693   7.688  33.089  1.00  0.00     0.159 A 
HETATM   11  C11 UNK     1      19.504   6.567  32.463  1.00  0.00     0.038 A 
ENDROOT
BRANCH   7  12
HETATM   12  O2  UNK     1      19.410   4.387  31.499  1.00  0.00    -0.277 OA
BRANCH  12  13
HETATM   13  C12 UNK     1      19.001   4.009  30.210  1.00  0.00     0.286 C 
HETATM   14  O5  UNK     1      18.765   4.796  29.299  1.00  0.00    -0.263 OA
BRANCH  13  15
HETATM   15  C8  UNK     1      18.882   2.499  30.046  1.00  0.00     0.183 C 
HETATM   16  C15 UNK     1      17.901   2.165  28.934  1.00  0.00     0.043 C 
BRANCH  15  17
HETATM   17  N1  UNK     1      18.489   1.854  31.272  1.00  0.00    -0.323 N 
HETATM   18  C19 UNK     1      19.123   0.744  31.795  1.00  0.00     0.361 C 
HETATM   19  O6  UNK     1      20.087   0.171  31.298  1.00  0.00    -0.238 OA
HETATM   20  H11 UNK     1      17.690   2.224  31.779  1.00  0.00     0.165 HD
BRANCH  18  21
HETATM   21  O4  UNK     1      18.516   0.370  32.961  1.00  0.00    -0.299 OA
BRANCH  21  22
HETATM   22  C20 UNK     1      18.229   1.428  33.884  1.00  0.00     0.219 C 
BRANCH  22  23
HETATM   23  C21 UNK     1      18.069   0.850  35.258  1.00  0.00    -0.034 A 
HETATM   24  C22 UNK     1      17.735   1.678  36.329  1.00  0.00     0.009 A 
HETATM   25  C24 UNK     1      17.588   1.140  37.608  1.00  0.00     0.001 A 
HETATM   26  C26 UNK     1      17.772  -0.227  37.815  1.00  0.00     0.000 A 
HETATM   27  C25 UNK     1      18.106  -1.056  36.744  1.00  0.00     0.001 A 
HETATM   28  C23 UNK     1      18.254  -0.518  35.465  1.00  0.00     0.009 A 
ENDBRANCH  22  23
ENDBRANCH  21  22
ENDBRANCH  18  21
ENDBRANCH  15  17
ENDBRANCH  13  15
ENDBRANCH  12  13
ENDBRANCH   7  12
BRANCH   5  29
HETATM   29  C5  UNK     1      14.418   9.922  34.049  1.00  0.00    -0.020 A 
HETATM   30  C13 UNK     1      13.592  10.607  33.159  1.00  0.00     0.015 A 
HETATM   31  C16 UNK     1      12.802  11.663  33.612  1.00  0.00     0.037 A 
HETATM   32  C18 UNK     1      12.838  12.034  34.956  1.00  0.00     0.102 A 
HETATM   33  C17 UNK     1      13.665  11.349  35.846  1.00  0.00     0.037 A 
HETATM   34  C14 UNK     1      14.454  10.293  35.393  1.00  0.00     0.015 A 
BRANCH  32  35
HETATM   35  N2  UNK     1      12.033  13.109  35.417  1.00  0.00    -0.116 N 
HETATM   36  O7  UNK     1      12.558  14.238  35.573  1.00  0.00    -0.532 OA
HETATM   37  O8  UNK     1      10.818  12.901  35.653  1.00  0.00    -0.532 OA
ENDBRANCH  32  35
ENDBRANCH   5  29
TORSDOF 9
ENDMDL
MODEL 6
REMARK VINA RESULT:      -9.4      3.026      3.747
REMARK  9 active torsions:
REMARK  status: ('A' for Active; 'I' for Inactive)
REMARK    1  A    between atoms: C12_22  and  O2_2 
REMARK    2  A    between atoms: C6_16  and  O2_2 
REMARK    3  A    between atoms: C19_29  and  O4_4 
REMARK    4  A    between atoms: C20_30  and  O4_4 
REMARK       I    between atoms: C19_29  and  N1_9 
REMARK    5  A    between atoms: C8_18  and  N1_9 
REMARK    6  A    between atoms: C18_28  and  N2_10 
REMARK    7  A    between atoms: C3_13  and  C5_15 
REMARK    8  A    between atoms: C12_22  and  C8_18 
REMARK    9  A    between atoms: C20_30  and  C21_31 
ROOT
HETATM    1  O1  UNK     1      18.218   3.390  33.998  1.00  0.00    -0.321 OA
HETATM    2  O3  UNK     1      18.373   5.917  30.798  1.00  0.00    -0.286 OA
HETATM    3  C1  UNK     1      18.485   3.709  31.607  1.00  0.00     0.049 A 
HETATM    4  C2  UNK     1      18.433   2.894  32.738  1.00  0.00     0.091 A 
HETATM    5  C3  UNK     1      18.053   5.657  33.143  1.00  0.00     0.048 A 
HETATM    6  C4  UNK     1      18.305   5.164  31.762  1.00  0.00     0.197 A 
HETATM    7  C6  UNK     1      18.828   0.953  31.359  1.00  0.00     0.082 A 
HETATM    8  C7  UNK     1      18.605   1.515  32.616  1.00  0.00     0.075 A 
HETATM    9  C9  UNK     1      18.709   3.148  30.347  1.00  0.00     0.021 A 
HETATM   10  C10 UNK     1      18.030   4.745  34.127  1.00  0.00     0.159 A 
HETATM   11  C11 UNK     1      18.879   1.768  30.227  1.00  0.00     0.038 A 
ENDROOT
BRANCH   7  12
HETATM   12  O2  UNK     1      18.995  -0.391  31.235  1.00  0.00    -0.277 OA
BRANCH  12  13
HETATM   13  C12 UNK     1      18.739  -1.123  32.405  1.00  0.00     0.286 C 
HETATM   14  O5  UNK     1      17.625  -1.285  32.893  1.00  0.00    -0.263 OA
BRANCH  13  15
HETATM   15  C8  UNK     1      20.002  -1.715  33.020  1.00  0.00     0.183 C 
HETATM   16  C15 UNK     1      20.774  -2.508  31.977  1.00  0.00     0.043 C 
BRANCH  15  17
HETATM   17  N1  UNK     1      19.708  -2.541  34.162  1.00  0.00    -0.323 N 
HETATM   18  C19 UNK     1      20.365  -2.443  35.373  1.00  0.00     0.361 C 
HETATM   19  O6  UNK     1      21.268  -1.654  35.633  1.00  0.00    -0.238 OA
HETATM   20  H11 UNK     1      18.985  -3.249  34.074  1.00  0.00     0.165 HD
BRANCH  18  21
HETATM   21  O4  UNK     1      19.860  -3.360  36.251  1.00  0.00    -0.299 OA
BRANCH  21  22
HETATM   22  C20 UNK     1      19.761  -4.703  35.763  1.00  0.00     0.219 C 
BRANCH  22  23
HETATM   23  C21 UNK     1      19.807  -5.651  36.924  1.00  0.00    -0.034 A 
HETATM   24  C22 UNK     1      20.757  -5.477  37.930  1.00  0.00     0.009 A 
HETATM   25  C24 UNK     1      20.800  -6.359  39.010  1.00  0.00     0.001 A 
HETATM   26  C26 UNK     1      19.892  -7.415  39.084  1.00  0.00     0.000 A 
HETATM   27  C25 UNK     1      18.941  -7.590  38.079  1.00  0.00     0.001 A 
HETATM   28  C23 UNK     1      18.899  -6.708  36.998  1.00  0.00     0.009 A 
ENDBRANCH  22  23
ENDBRANCH  21  22
ENDBRANCH  18  21
ENDBRANCH  15  17
ENDBRANCH  13  15
ENDBRANCH  12  13
ENDBRANCH   7  12
BRANCH   5  29
HETATM   29  C5  UNK     1      17.818   7.082  33.432  1.00  0.00    -0.020 A 
HETATM   30  C13 UNK     1      18.899   7.936  33.652  1.00  0.00     0.015 A 
HETATM   31  C16 UNK     1      18.677   9.285  33.927  1.00  0.00     0.037 A 
HETATM   32  C18 UNK     1      17.375   9.780  33.982  1.00  0.00     0.102 A 
HETATM   33  C17 UNK     1      16.294   8.927  33.762  1.00  0.00     0.037 A 
HETATM   34  C14 UNK     1      16.516   7.577  33.486  1.00  0.00     0.015 A 
BRANCH  32  35
HETATM   35  N2  UNK     1      17.149  11.154  34.262  1.00  0.00    -0.116 N 
HETATM   36  O7  UNK     1      16.302  11.466  35.133  1.00  0.00    -0.532 OA
HETATM   37  O8  UNK     1      17.805  12.018  33.631  1.00  0.00    -0.532 OA
ENDBRANCH  32  35
ENDBRANCH   5  29
TORSDOF 9
ENDMDL
MODEL 7
REMARK VINA RESULT:      -9.4      1.333      1.735
REMARK  9 active torsions:
REMARK  status: ('A' for Active; 'I' for Inactive)
REMARK    1  A    between atoms: C12_22  and  O2_2 
REMARK    2  A    between atoms: C6_16  and  O2_2 
REMARK    3  A    between atoms: C19_29  and  O4_4 
REMARK    4  A    between atoms: C20_30  and  O4_4 
REMARK       I    between atoms: C19_29  and  N1_9 
REMARK    5  A    between atoms: C8_18  and  N1_9 
REMARK    6  A    between atoms: C18_28  and  N2_10 
REMARK    7  A    between atoms: C3_13  and  C5_15 
REMARK    8  A    between atoms: C12_22  and  C8_18 
REMARK    9  A    between atoms: C20_30  and  C21_31 
ROOT
HETATM    1  O1  UNK     1      18.233   3.377  33.900  1.00  0.00    -0.321 OA
HETATM    2  O3  UNK     1      18.420   5.894  30.693  1.00  0.00    -0.286 OA
HETATM    3  C1  UNK     1      18.552   3.692  31.514  1.00  0.00     0.049 A 
HETATM    4  C2  UNK     1      18.488   2.880  32.647  1.00  0.00     0.091 A 
HETATM    5  C3  UNK     1      18.049   5.638  33.031  1.00  0.00     0.048 A 
HETATM    6  C4  UNK     1      18.342   5.144  31.658  1.00  0.00     0.197 A 
HETATM    7  C6  UNK     1      18.950   0.942  31.286  1.00  0.00     0.082 A 
HETATM    8  C7  UNK     1      18.687   1.504  32.535  1.00  0.00     0.075 A 
HETATM    9  C9  UNK     1      18.816   3.130  30.262  1.00  0.00     0.021 A 
HETATM   10  C10 UNK     1      18.019   4.729  34.017  1.00  0.00     0.159 A 
HETATM   11  C11 UNK     1      19.014   1.753  30.152  1.00  0.00     0.038 A 
ENDROOT
BRANCH   7  12
HETATM   12  O2  UNK     1      19.144  -0.400  31.172  1.00  0.00    -0.277 OA
BRANCH  12  13
HETATM   13  C12 UNK     1      18.777  -1.143  32.306  1.00  0.00     0.286 C 
HETATM   14  O5  UNK     1      17.620  -1.394  32.625  1.00  0.00    -0.263 OA
BRANCH  13  15
HETATM   15  C8  UNK     1      19.978  -1.622  33.112  1.00  0.00     0.183 C 
HETATM   16  C15 UNK     1      20.673  -2.767  32.392  1.00  0.00     0.043 C 
BRANCH  15  17
HETATM   17  N1  UNK     1      19.606  -2.021  34.445  1.00  0.00    -0.323 N 
HETATM   18  C19 UNK     1      20.461  -1.971  35.529  1.00  0.00     0.361 C 
HETATM   19  O6  UNK     1      21.626  -1.587  35.504  1.00  0.00    -0.238 OA
HETATM   20  H11 UNK     1      18.666  -2.374  34.600  1.00  0.00     0.165 HD
BRANCH  18  21
HETATM   21  O4  UNK     1      19.815  -2.415  36.649  1.00  0.00    -0.299 OA
BRANCH  21  22
HETATM   22  C20 UNK     1      18.388  -2.502  36.554  1.00  0.00     0.219 C 
BRANCH  22  23
HETATM   23  C21 UNK     1      17.797  -1.144  36.790  1.00  0.00    -0.034 A 
HETATM   24  C22 UNK     1      18.163  -0.409  37.917  1.00  0.00     0.009 A 
HETATM   25  C24 UNK     1      17.612   0.854  38.136  1.00  0.00     0.001 A 
HETATM   26  C26 UNK     1      16.696   1.382  37.227  1.00  0.00     0.000 A 
HETATM   27  C25 UNK     1      16.330   0.648  36.098  1.00  0.00     0.001 A 
HETATM   28  C23 UNK     1      16.880  -0.616  35.880  1.00  0.00     0.009 A 
ENDBRANCH  22  23
ENDBRANCH  21  22
ENDBRANCH  18  21
ENDBRANCH  15  17
ENDBRANCH  13  15
ENDBRANCH  12  13
ENDBRANCH   7  12
BRANCH   5  29
HETATM   29  C5  UNK     1      17.782   7.059  33.308  1.00  0.00    -0.020 A 
HETATM   30  C13 UNK     1      18.810   7.887  33.760  1.00  0.00     0.015 A 
HETATM   31  C16 UNK     1      18.557   9.233  34.024  1.00  0.00     0.037 A 
HETATM   32  C18 UNK     1      17.277   9.751  33.835  1.00  0.00     0.102 A 
HETATM   33  C17 UNK     1      16.248   8.924  33.383  1.00  0.00     0.037 A 
HETATM   34  C14 UNK     1      16.502   7.578  33.119  1.00  0.00     0.015 A 
BRANCH  32  35
HETATM   35  N2  UNK     1      17.020  11.122  34.104  1.00  0.00    -0.116 N 
HETATM   36  O7  UNK     1      16.036  11.427  34.819  1.00  0.00    -0.532 OA
HETATM   37  O8  UNK     1      17.786  11.990  33.619  1.00  0.00    -0.532 OA
ENDBRANCH  32  35
ENDBRANCH   5  29
TORSDOF 9
ENDMDL
MODEL 8
REMARK VINA RESULT:      -9.4      2.079      3.597
REMARK  9 active torsions:
REMARK  status: ('A' for Active; 'I' for Inactive)
REMARK    1  A    between atoms: C12_22  and  O2_2 
REMARK    2  A    between atoms: C6_16  and  O2_2 
REMARK    3  A    between atoms: C19_29  and  O4_4 
REMARK    4  A    between atoms: C20_30  and  O4_4 
REMARK       I    between atoms: C19_29  and  N1_9 
REMARK    5  A    between atoms: C8_18  and  N1_9 
REMARK    6  A    between atoms: C18_28  and  N2_10 
REMARK    7  A    between atoms: C3_13  and  C5_15 
REMARK    8  A    between atoms: C12_22  and  C8_18 
REMARK    9  A    between atoms: C20_30  and  C21_31 
ROOT
HETATM    1  O1  UNK     1      15.923   7.529  32.009  1.00  0.00    -0.321 OA
HETATM    2  O3  UNK     1      18.787   9.199  34.389  1.00  0.00    -0.286 OA
HETATM    3  C1  UNK     1      18.199   7.515  32.852  1.00  0.00     0.049 A 
HETATM    4  C2  UNK     1      17.179   6.980  32.066  1.00  0.00     0.091 A 
HETATM    5  C3  UNK     1      16.559   9.292  33.556  1.00  0.00     0.048 A 
HETATM    6  C4  UNK     1      17.927   8.716  33.662  1.00  0.00     0.197 A 
HETATM    7  C6  UNK     1      18.670   5.238  31.313  1.00  0.00     0.082 A 
HETATM    8  C7  UNK     1      17.412   5.842  31.295  1.00  0.00     0.075 A 
HETATM    9  C9  UNK     1      19.460   6.912  32.872  1.00  0.00     0.021 A 
HETATM   10  C10 UNK     1      15.689   8.661  32.752  1.00  0.00     0.159 A 
HETATM   11  C11 UNK     1      19.692   5.773  32.100  1.00  0.00     0.038 A 
ENDROOT
BRANCH   7  12
HETATM   12  O2  UNK     1      18.902   4.128  30.562  1.00  0.00    -0.277 OA
BRANCH  12  13
HETATM   13  C12 UNK     1      18.476   2.926  31.149  1.00  0.00     0.286 C 
HETATM   14  O5  UNK     1      17.856   2.850  32.205  1.00  0.00    -0.263 OA
BRANCH  13  15
HETATM   15  C8  UNK     1      18.857   1.700  30.328  1.00  0.00     0.183 C 
HETATM   16  C15 UNK     1      18.138   1.718  28.988  1.00  0.00     0.043 C 
BRANCH  15  17
HETATM   17  N1  UNK     1      18.578   0.474  31.030  1.00  0.00    -0.323 N 
HETATM   18  C19 UNK     1      19.554  -0.364  31.532  1.00  0.00     0.361 C 
HETATM   19  O6  UNK     1      20.764  -0.182  31.451  1.00  0.00    -0.238 OA
HETATM   20  H11 UNK     1      17.608   0.197  31.154  1.00  0.00     0.165 HD
BRANCH  18  21
HETATM   21  O4  UNK     1      18.972  -1.441  32.141  1.00  0.00    -0.299 OA
BRANCH  21  22
HETATM   22  C20 UNK     1      19.358  -1.675  33.500  1.00  0.00     0.219 C 
BRANCH  22  23
HETATM   23  C21 UNK     1      18.458  -0.889  34.408  1.00  0.00    -0.034 A 
HETATM   24  C22 UNK     1      17.078  -0.910  34.210  1.00  0.00     0.009 A 
HETATM   25  C24 UNK     1      16.241  -0.179  35.054  1.00  0.00     0.001 A 
HETATM   26  C26 UNK     1      16.785   0.571  36.096  1.00  0.00     0.000 A 
HETATM   27  C25 UNK     1      18.166   0.592  36.295  1.00  0.00     0.001 A 
HETATM   28  C23 UNK     1      19.003  -0.139  35.451  1.00  0.00     0.009 A 
ENDBRANCH  22  23
ENDBRANCH  21  22
ENDBRANCH  18  21
ENDBRANCH  15  17
ENDBRANCH  13  15
ENDBRANCH  12  13
ENDBRANCH   7  12
BRANCH   5  29
HETATM   29  C5  UNK     1      16.167  10.512  34.281  1.00  0.00    -0.020 A 
HETATM   30  C13 UNK     1      15.068  10.489  35.140  1.00  0.00     0.015 A 
HETATM   31  C16 UNK     1      14.696  11.646  35.825  1.00  0.00     0.037 A 
HETATM   32  C18 UNK     1      15.422  12.823  35.652  1.00  0.00     0.102 A 
HETATM   33  C17 UNK     1      16.520  12.846  34.793  1.00  0.00     0.037 A 
HETATM   34  C14 UNK     1      16.893  11.690  34.108  1.00  0.00     0.015 A 
BRANCH  32  35
HETATM   35  N2  UNK     1      15.042  14.000  36.351  1.00  0.00    -0.116 N 
HETATM   36  O7  UNK     1      15.050  13.992  37.605  1.00  0.00    -0.532 OA
HETATM   37  O8  UNK     1      14.712  15.017  35.694  1.00  0.00    -0.532 OA
ENDBRANCH  32  35
ENDBRANCH   5  29
TORSDOF 9
ENDMDL
MODEL 9
REMARK VINA RESULT:      -9.2     13.627     16.138
REMARK  9 active torsions:
REMARK  status: ('A' for Active; 'I' for Inactive)
REMARK    1  A    between atoms: C12_22  and  O2_2 
REMARK    2  A    between atoms: C6_16  and  O2_2 
REMARK    3  A    between atoms: C19_29  and  O4_4 
REMARK    4  A    between atoms: C20_30  and  O4_4 
REMARK       I    between atoms: C19_29  and  N1_9 
REMARK    5  A    between atoms: C8_18  and  N1_9 
REMARK    6  A    between atoms: C18_28  and  N2_10 
REMARK    7  A    between atoms: C3_13  and  C5_15 
REMARK    8  A    between atoms: C12_22  and  C8_18 
REMARK    9  A    between atoms: C20_30  and  C21_31 
ROOT
HETATM    1  O1  UNK     1      25.867  -5.188  38.822  1.00  0.00    -0.321 OA
HETATM    2  O3  UNK     1      25.975  -9.253  38.483  1.00  0.00    -0.286 OA
HETATM    3  C1  UNK     1      27.167  -7.230  38.657  1.00  0.00     0.049 A 
HETATM    4  C2  UNK     1      27.070  -5.843  38.762  1.00  0.00     0.091 A 
HETATM    5  C3  UNK     1      24.650  -7.286  38.694  1.00  0.00     0.048 A 
HETATM    6  C4  UNK     1      25.933  -8.035  38.605  1.00  0.00     0.197 A 
HETATM    7  C6  UNK     1      29.478  -5.673  38.750  1.00  0.00     0.082 A 
HETATM    8  C7  UNK     1      28.225  -5.062  38.808  1.00  0.00     0.075 A 
HETATM    9  C9  UNK     1      28.422  -7.844  38.598  1.00  0.00     0.021 A 
HETATM   10  C10 UNK     1      24.724  -5.950  38.794  1.00  0.00     0.159 A 
HETATM   11  C11 UNK     1      29.576  -7.061  38.646  1.00  0.00     0.038 A 
ENDROOT
BRANCH   7  12
HETATM   12  O2  UNK     1      30.607  -4.914  38.796  1.00  0.00    -0.277 OA
BRANCH  12  13
HETATM   13  C12 UNK     1      30.922  -4.262  37.594  1.00  0.00     0.286 C 
HETATM   14  O5  UNK     1      30.697  -3.077  37.367  1.00  0.00    -0.263 OA
BRANCH  13  15
HETATM   15  C8  UNK     1      31.592  -5.181  36.580  1.00  0.00     0.183 C 
HETATM   16  C15 UNK     1      33.040  -4.769  36.371  1.00  0.00     0.043 C 
BRANCH  15  17
HETATM   17  N1  UNK     1      30.890  -5.199  35.323  1.00  0.00    -0.323 N 
HETATM   18  C19 UNK     1      30.338  -6.337  34.766  1.00  0.00     0.361 C 
HETATM   19  O6  UNK     1      30.371  -7.461  35.257  1.00  0.00    -0.238 OA
HETATM   20  H11 UNK     1      30.803  -4.330  34.804  1.00  0.00     0.165 HD
BRANCH  18  21
HETATM   21  O4  UNK     1      29.743  -6.028  33.575  1.00  0.00    -0.299 OA
BRANCH  21  22
HETATM   22  C20 UNK     1      28.331  -6.261  33.503  1.00  0.00     0.219 C 
BRANCH  22  23
HETATM   23  C21 UNK     1      28.029  -7.064  32.273  1.00  0.00    -0.034 A 
HETATM   24  C22 UNK     1      28.702  -8.263  32.040  1.00  0.00     0.009 A 
HETATM   25  C24 UNK     1      28.422  -9.009  30.895  1.00  0.00     0.001 A 
HETATM   26  C26 UNK     1      27.466  -8.558  29.985  1.00  0.00     0.000 A 
HETATM   27  C25 UNK     1      26.792  -7.359  30.218  1.00  0.00     0.001 A 
HETATM   28  C23 UNK     1      27.073  -6.612  31.363  1.00  0.00     0.009 A 
ENDBRANCH  22  23
ENDBRANCH  21  22
ENDBRANCH  18  21
ENDBRANCH  15  17
ENDBRANCH  13  15
ENDBRANCH  12  13
ENDBRANCH   7  12
BRANCH   5  29
HETATM   29  C5  UNK     1      23.346  -7.970  38.693  1.00  0.00    -0.020 A 
HETATM   30  C13 UNK     1      22.822  -8.469  37.500  1.00  0.00     0.015 A 
HETATM   31  C16 UNK     1      21.586  -9.115  37.498  1.00  0.00     0.037 A 
HETATM   32  C18 UNK     1      20.875  -9.263  38.689  1.00  0.00     0.102 A 
HETATM   33  C17 UNK     1      21.399  -8.765  39.881  1.00  0.00     0.037 A 
HETATM   34  C14 UNK     1      22.635  -8.118  39.883  1.00  0.00     0.015 A 
BRANCH  32  35
HETATM   35  N2  UNK     1      19.617  -9.922  38.686  1.00  0.00    -0.116 N 
HETATM   36  O7  UNK     1      18.744  -9.564  37.858  1.00  0.00    -0.532 OA
HETATM   37  O8  UNK     1      19.413 -10.846  39.511  1.00  0.00    -0.532 OA
ENDBRANCH  32  35
ENDBRANCH   5  29
TORSDOF 9
ENDMDL
MODEL 10
REMARK VINA RESULT:      -9.2      8.177     12.294
REMARK  9 active torsions:
REMARK  status: ('A' for Active; 'I' for Inactive)
REMARK    1  A    between atoms: C12_22  and  O2_2 
REMARK    2  A    between atoms: C6_16  and  O2_2 
REMARK    3  A    between atoms: C19_29  and  O4_4 
REMARK    4  A    between atoms: C20_30  and  O4_4 
REMARK       I    between atoms: C19_29  and  N1_9 
REMARK    5  A    between atoms: C8_18  and  N1_9 
REMARK    6  A    between atoms: C18_28  and  N2_10 
REMARK    7  A    between atoms: C3_13  and  C5_15 
REMARK    8  A    between atoms: C12_22  and  C8_18 
REMARK    9  A    between atoms: C20_30  and  C21_31 
ROOT
HETATM    1  O1  UNK     1      21.948  -5.627  37.239  1.00  0.00    -0.321 OA
HETATM    2  O3  UNK     1      17.971  -5.435  36.345  1.00  0.00    -0.286 OA
HETATM    3  C1  UNK     1      19.877  -6.771  36.696  1.00  0.00     0.049 A 
HETATM    4  C2  UNK     1      21.240  -6.775  36.995  1.00  0.00     0.091 A 
HETATM    5  C3  UNK     1      19.962  -4.264  36.925  1.00  0.00     0.048 A 
HETATM    6  C4  UNK     1      19.160  -5.484  36.634  1.00  0.00     0.197 A 
HETATM    7  C6  UNK     1      21.272  -9.182  36.816  1.00  0.00     0.082 A 
HETATM    8  C7  UNK     1      21.939  -7.981  37.055  1.00  0.00     0.075 A 
HETATM    9  C9  UNK     1      19.207  -7.973  36.455  1.00  0.00     0.021 A 
HETATM   10  C10 UNK     1      21.264  -4.436  37.198  1.00  0.00     0.159 A 
HETATM   11  C11 UNK     1      19.908  -9.178  36.517  1.00  0.00     0.038 A 
ENDROOT
BRANCH   7  12
HETATM   12  O2  UNK     1      21.950 -10.360  36.874  1.00  0.00    -0.277 OA
BRANCH  12  13
HETATM   13  C12 UNK     1      22.548 -10.751  35.666  1.00  0.00     0.286 C 
HETATM   14  O5  UNK     1      21.948 -10.877  34.603  1.00  0.00    -0.263 OA
BRANCH  13  15
HETATM   15  C8  UNK     1      24.045 -11.002  35.801  1.00  0.00     0.183 C 
HETATM   16  C15 UNK     1      24.312 -12.480  36.042  1.00  0.00     0.043 C 
BRANCH  15  17
HETATM   17  N1  UNK     1      24.631 -10.209  36.850  1.00  0.00    -0.323 N 
HETATM   18  C19 UNK     1      25.971  -9.878  36.907  1.00  0.00     0.361 C 
HETATM   19  O6  UNK     1      26.824 -10.207  36.089  1.00  0.00    -0.238 OA
HETATM   20  H11 UNK     1      24.032  -9.883  37.603  1.00  0.00     0.165 HD
BRANCH  18  21
HETATM   21  O4  UNK     1      26.215  -9.122  38.019  1.00  0.00    -0.299 OA
BRANCH  21  22
HETATM   22  C20 UNK     1      27.407  -9.445  38.745  1.00  0.00     0.219 C 
BRANCH  22  23
HETATM   23  C21 UNK     1      28.346  -8.277  38.689  1.00  0.00    -0.034 A 
HETATM   24  C22 UNK     1      27.952  -7.039  39.193  1.00  0.00     0.009 A 
HETATM   25  C24 UNK     1      28.826  -5.953  39.140  1.00  0.00     0.001 A 
HETATM   26  C26 UNK     1      30.095  -6.106  38.583  1.00  0.00     0.000 A 
HETATM   27  C25 UNK     1      30.491  -7.345  38.078  1.00  0.00     0.001 A 
HETATM   28  C23 UNK     1      29.616  -8.431  38.131  1.00  0.00     0.009 A 
ENDBRANCH  22  23
ENDBRANCH  21  22
ENDBRANCH  18  21
ENDBRANCH  15  17
ENDBRANCH  13  15
ENDBRANCH  12  13
ENDBRANCH   7  12
BRANCH   5  29
HETATM   29  C5  UNK     1      19.360  -2.920  36.934  1.00  0.00    -0.020 A 
HETATM   30  C13 UNK     1      18.769  -2.430  38.098  1.00  0.00     0.015 A 
HETATM   31  C16 UNK     1      18.197  -1.157  38.107  1.00  0.00     0.037 A 
HETATM   32  C18 UNK     1      18.218  -0.375  36.952  1.00  0.00     0.102 A 
HETATM   33  C17 UNK     1      18.810  -0.866  35.788  1.00  0.00     0.037 A 
HETATM   34  C14 UNK     1      19.381  -2.138  35.780  1.00  0.00     0.015 A 
BRANCH  32  35
HETATM   35  N2  UNK     1      17.638   0.920  36.962  1.00  0.00    -0.116 N 
HETATM   36  O7  UNK     1      16.489   1.076  36.481  1.00  0.00    -0.532 OA
HETATM   37  O8  UNK     1      18.288   1.874  37.454  1.00  0.00    -0.532 OA
ENDBRANCH  32  35
ENDBRANCH   5  29
TORSDOF 9
ENDMDL
