MODEL 1
REMARK VINA RESULT:      -7.7      0.000      0.000
REMARK  4 active torsions:
REMARK  status: ('A' for Active; 'I' for Inactive)
REMARK    1  A    between atoms: C9_16  and  O3_3 
REMARK    2  A    between atoms: C12_19  and  O5_5 
REMARK    3  A    between atoms: C7_14  and  N1_6 
REMARK    4  A    between atoms: C1_8  and  C3_10 
ROOT
HETATM    1  O1  UNK     1      20.890  -2.095  17.543  1.00  0.00    -0.291 OA
HETATM    2  O2  UNK     1      23.020  -5.379  16.064  1.00  0.00    -0.274 OA
HETATM    3  O4  UNK     1      21.258  -5.922  14.723  1.00  0.00    -0.259 OA
HETATM    4  N2  UNK     1      16.405  -2.180  15.788  1.00  0.00    -0.191 NA
HETATM    5  C1  UNK     1      19.643  -3.665  15.489  1.00  0.00     0.111 C 
HETATM    6  C2  UNK     1      21.017  -3.966  16.054  1.00  0.00     0.066 A 
HETATM    7  C4  UNK     1      21.550  -3.187  17.008  1.00  0.00     0.104 A 
HETATM    8  C5  UNK     1      18.917  -2.583  16.284  1.00  0.00     0.086 C 
HETATM    9  C6  UNK     1      22.885  -3.448  17.539  1.00  0.00     0.033 A 
HETATM   10  C7  UNK     1      19.550  -1.864  17.237  1.00  0.00     0.159 C 
HETATM   11  C8  UNK     1      21.746  -5.160  15.552  1.00  0.00     0.298 A 
HETATM   12  C10 UNK     1      23.588  -4.543  17.044  1.00  0.00     0.092 A 
HETATM   13  C13 UNK     1      23.500  -2.657  18.517  1.00  0.00     0.017 A 
HETATM   14  C15 UNK     1      24.870  -4.864  17.490  1.00  0.00     0.038 A 
HETATM   15  C17 UNK     1      17.529  -2.361  16.010  1.00  0.00     0.100 C 
HETATM   16  C18 UNK     1      24.784  -2.965  18.975  1.00  0.00     0.001 A 
HETATM   17  C19 UNK     1      25.469  -4.068  18.461  1.00  0.00     0.003 A 
ENDROOT
BRANCH   5  18
HETATM   18  C3  UNK     1      19.744  -3.264  14.045  1.00  0.00    -0.008 A 
HETATM   19  C11 UNK     1      20.658  -2.281  13.683  1.00  0.00     0.011 A 
HETATM   20  C14 UNK     1      20.766  -1.895  12.347  1.00  0.00     0.003 A 
HETATM   21  C16 UNK     1      19.959  -2.495  11.381  1.00  0.00     0.039 A 
HETATM   22  C12 UNK     1      19.043  -3.481  11.751  1.00  0.00     0.102 A 
HETATM   23  C9  UNK     1      18.936  -3.866  13.088  1.00  0.00     0.108 A 
BRANCH  22  24
HETATM   24  O5  UNK     1      18.260  -4.059  10.798  1.00  0.00    -0.353 OA
HETATM   25  C21 UNK     1      18.909  -4.501   9.607  1.00  0.00     0.210 C 
ENDBRANCH  22  24
BRANCH  23  26
HETATM   26  O3  UNK     1      18.040  -4.831  13.445  1.00  0.00    -0.353 OA
HETATM   27  C20 UNK     1      18.357  -6.173  13.083  1.00  0.00     0.210 C 
ENDBRANCH  23  26
ENDBRANCH   5  18
BRANCH  10  28
HETATM   28  N1  UNK     1      18.980  -0.869  17.983  1.00  0.00    -0.379 N 
HETATM   29  H8  UNK     1      18.825   0.035  17.554  1.00  0.00     0.158 HD
HETATM   30  H9  UNK     1      18.712  -1.027  18.945  1.00  0.00     0.158 HD
ENDBRANCH  10  28
TORSDOF 4
ENDMDL
MODEL 2
REMARK VINA RESULT:      -7.5     21.767     24.524
REMARK  4 active torsions:
REMARK  status: ('A' for Active; 'I' for Inactive)
REMARK    1  A    between atoms: C9_16  and  O3_3 
REMARK    2  A    between atoms: C12_19  and  O5_5 
REMARK    3  A    between atoms: C7_14  and  N1_6 
REMARK    4  A    between atoms: C1_8  and  C3_10 
ROOT
HETATM    1  O1  UNK     1      29.218  -5.887  38.983  1.00  0.00    -0.291 OA
HETATM    2  O2  UNK     1      28.806  -9.077  36.307  1.00  0.00    -0.274 OA
HETATM    3  O4  UNK     1      30.056  -7.953  34.768  1.00  0.00    -0.259 OA
HETATM    4  N2  UNK     1      31.470  -2.241  36.783  1.00  0.00    -0.191 NA
HETATM    5  C1  UNK     1      30.587  -5.690  36.468  1.00  0.00     0.111 C 
HETATM    6  C2  UNK     1      29.735  -6.879  36.865  1.00  0.00     0.066 A 
HETATM    7  C4  UNK     1      29.128  -6.916  38.061  1.00  0.00     0.104 A 
HETATM    8  C5  UNK     1      30.453  -4.530  37.449  1.00  0.00     0.086 C 
HETATM    9  C6  UNK     1      28.329  -8.068  38.469  1.00  0.00     0.033 A 
HETATM   10  C7  UNK     1      29.805  -4.674  38.627  1.00  0.00     0.159 C 
HETATM   11  C8  UNK     1      29.561  -7.986  35.890  1.00  0.00     0.298 A 
HETATM   12  C10 UNK     1      28.194  -9.125  37.574  1.00  0.00     0.092 A 
HETATM   13  C13 UNK     1      27.692  -8.170  39.712  1.00  0.00     0.017 A 
HETATM   14  C15 UNK     1      27.455 -10.267  37.881  1.00  0.00     0.038 A 
HETATM   15  C17 UNK     1      31.015  -3.265  37.081  1.00  0.00     0.100 C 
HETATM   16  C18 UNK     1      26.946  -9.308  40.036  1.00  0.00     0.001 A 
HETATM   17  C19 UNK     1      26.828 -10.355  39.121  1.00  0.00     0.003 A 
ENDROOT
BRANCH   5  18
HETATM   18  C3  UNK     1      32.029  -6.094  36.342  1.00  0.00    -0.008 A 
HETATM   19  C11 UNK     1      32.609  -6.841  37.362  1.00  0.00     0.011 A 
HETATM   20  C14 UNK     1      33.946  -7.225  37.262  1.00  0.00     0.003 A 
HETATM   21  C16 UNK     1      34.695  -6.861  36.143  1.00  0.00     0.039 A 
HETATM   22  C12 UNK     1      34.106  -6.112  35.123  1.00  0.00     0.102 A 
HETATM   23  C9  UNK     1      32.769  -5.728  35.224  1.00  0.00     0.108 A 
BRANCH  22  24
HETATM   24  O5  UNK     1      34.848  -5.763  34.036  1.00  0.00    -0.353 OA
HETATM   25  C21 UNK     1      35.387  -6.825  33.251  1.00  0.00     0.210 C 
ENDBRANCH  22  24
BRANCH  23  26
HETATM   26  O3  UNK     1      32.197  -4.997  34.224  1.00  0.00    -0.353 OA
HETATM   27  C20 UNK     1      31.627  -5.722  33.137  1.00  0.00     0.210 C 
ENDBRANCH  23  26
ENDBRANCH   5  18
BRANCH  10  28
HETATM   28  N1  UNK     1      29.652  -3.692  39.568  1.00  0.00    -0.379 N 
HETATM   29  H8  UNK     1      28.833  -3.100  39.526  1.00  0.00     0.158 HD
HETATM   30  H9  UNK     1      30.341  -3.557  40.296  1.00  0.00     0.158 HD
ENDBRANCH  10  28
TORSDOF 4
ENDMDL
MODEL 3
REMARK VINA RESULT:      -7.5     19.007     23.384
REMARK  4 active torsions:
REMARK  status: ('A' for Active; 'I' for Inactive)
REMARK    1  A    between atoms: C9_16  and  O3_3 
REMARK    2  A    between atoms: C12_19  and  O5_5 
REMARK    3  A    between atoms: C7_14  and  N1_6 
REMARK    4  A    between atoms: C1_8  and  C3_10 
ROOT
HETATM    1  O1  UNK     1      31.170  -5.639  34.032  1.00  0.00    -0.291 OA
HETATM    2  O2  UNK     1      28.047  -8.254  33.077  1.00  0.00    -0.274 OA
HETATM    3  O4  UNK     1      28.429  -9.418  35.000  1.00  0.00    -0.259 OA
HETATM    4  N2  UNK     1      33.424  -7.220  37.984  1.00  0.00    -0.191 NA
HETATM    5  C1  UNK     1      30.532  -7.688  35.937  1.00  0.00     0.111 C 
HETATM    6  C2  UNK     1      29.800  -7.512  34.620  1.00  0.00     0.066 A 
HETATM    7  C4  UNK     1      30.140  -6.527  33.776  1.00  0.00     0.104 A 
HETATM    8  C5  UNK     1      31.773  -6.806  36.029  1.00  0.00     0.086 C 
HETATM    9  C6  UNK     1      29.424  -6.327  32.519  1.00  0.00     0.033 A 
HETATM   10  C7  UNK     1      32.027  -5.847  35.111  1.00  0.00     0.159 C 
HETATM   11  C8  UNK     1      28.721  -8.473  34.273  1.00  0.00     0.298 A 
HETATM   12  C10 UNK     1      28.387  -7.201  32.207  1.00  0.00     0.092 A 
HETATM   13  C13 UNK     1      29.720  -5.303  31.611  1.00  0.00     0.017 A 
HETATM   14  C15 UNK     1      27.646  -7.083  31.031  1.00  0.00     0.038 A 
HETATM   15  C17 UNK     1      32.685  -7.035  37.109  1.00  0.00     0.100 C 
HETATM   16  C18 UNK     1      28.987  -5.170  30.427  1.00  0.00     0.001 A 
HETATM   17  C19 UNK     1      27.951  -6.060  30.138  1.00  0.00     0.003 A 
ENDROOT
BRANCH   5  18
HETATM   18  C3  UNK     1      29.613  -7.407  37.091  1.00  0.00    -0.008 A 
HETATM   19  C11 UNK     1      29.119  -6.118  37.259  1.00  0.00     0.011 A 
HETATM   20  C14 UNK     1      28.264  -5.838  38.325  1.00  0.00     0.003 A 
HETATM   21  C16 UNK     1      27.909  -6.850  39.218  1.00  0.00     0.039 A 
HETATM   22  C12 UNK     1      28.408  -8.141  39.044  1.00  0.00     0.102 A 
HETATM   23  C9  UNK     1      29.263  -8.420  37.977  1.00  0.00     0.108 A 
BRANCH  22  24
HETATM   24  O5  UNK     1      28.053  -9.120  39.922  1.00  0.00    -0.353 OA
HETATM   25  C21 UNK     1      26.797  -9.759  39.707  1.00  0.00     0.210 C 
ENDBRANCH  22  24
BRANCH  23  26
HETATM   26  O3  UNK     1      29.748  -9.684  37.810  1.00  0.00    -0.353 OA
HETATM   27  C20 UNK     1      30.957 -10.007  38.492  1.00  0.00     0.210 C 
ENDBRANCH  23  26
ENDBRANCH   5  18
BRANCH  10  28
HETATM   28  N1  UNK     1      33.106  -5.006  35.127  1.00  0.00    -0.379 N 
HETATM   29  H8  UNK     1      33.971  -5.314  34.702  1.00  0.00     0.158 HD
HETATM   30  H9  UNK     1      33.046  -4.091  35.553  1.00  0.00     0.158 HD
ENDBRANCH  10  28
TORSDOF 4
ENDMDL
MODEL 4
REMARK VINA RESULT:      -7.5     20.357     23.510
REMARK  4 active torsions:
REMARK  status: ('A' for Active; 'I' for Inactive)
REMARK    1  A    between atoms: C9_16  and  O3_3 
REMARK    2  A    between atoms: C12_19  and  O5_5 
REMARK    3  A    between atoms: C7_14  and  N1_6 
REMARK    4  A    between atoms: C1_8  and  C3_10 
ROOT
HETATM    1  O1  UNK     1      27.925  -6.958  35.384  1.00  0.00    -0.291 OA
HETATM    2  O2  UNK     1      30.259  -9.505  37.744  1.00  0.00    -0.274 OA
HETATM    3  O4  UNK     1      31.987  -9.291  36.272  1.00  0.00    -0.259 OA
HETATM    4  N2  UNK     1      30.299  -5.924  31.323  1.00  0.00    -0.191 NA
HETATM    5  C1  UNK     1      30.631  -7.424  34.550  1.00  0.00     0.111 C 
HETATM    6  C2  UNK     1      30.018  -8.049  35.788  1.00  0.00     0.066 A 
HETATM    7  C4  UNK     1      28.748  -7.783  36.131  1.00  0.00     0.104 A 
HETATM    8  C5  UNK     1      29.593  -6.710  33.690  1.00  0.00     0.086 C 
HETATM    9  C6  UNK     1      28.155  -8.354  37.336  1.00  0.00     0.033 A 
HETATM   10  C7  UNK     1      28.331  -6.506  34.130  1.00  0.00     0.159 C 
HETATM   11  C8  UNK     1      30.843  -8.985  36.594  1.00  0.00     0.298 A 
HETATM   12  C10 UNK     1      28.936  -9.201  38.116  1.00  0.00     0.092 A 
HETATM   13  C13 UNK     1      26.844  -8.094  37.754  1.00  0.00     0.017 A 
HETATM   14  C15 UNK     1      28.453  -9.787  39.287  1.00  0.00     0.038 A 
HETATM   15  C17 UNK     1      29.983  -6.276  32.382  1.00  0.00     0.100 C 
HETATM   16  C18 UNK     1      26.344  -8.674  38.925  1.00  0.00     0.001 A 
HETATM   17  C19 UNK     1      27.149  -9.519  39.690  1.00  0.00     0.003 A 
ENDROOT
BRANCH   5  18
HETATM   18  C3  UNK     1      31.729  -6.471  34.930  1.00  0.00    -0.008 A 
HETATM   19  C11 UNK     1      31.430  -5.398  35.763  1.00  0.00     0.011 A 
HETATM   20  C14 UNK     1      32.436  -4.504  36.127  1.00  0.00     0.003 A 
HETATM   21  C16 UNK     1      33.736  -4.687  35.655  1.00  0.00     0.039 A 
HETATM   22  C12 UNK     1      34.029  -5.766  34.820  1.00  0.00     0.102 A 
HETATM   23  C9  UNK     1      33.022  -6.661  34.457  1.00  0.00     0.108 A 
BRANCH  22  24
HETATM   24  O5  UNK     1      35.303  -5.935  34.367  1.00  0.00    -0.353 OA
HETATM   25  C21 UNK     1      36.187  -6.697  35.186  1.00  0.00     0.210 C 
ENDBRANCH  22  24
BRANCH  23  26
HETATM   26  O3  UNK     1      33.314  -7.714  33.641  1.00  0.00    -0.353 OA
HETATM   27  C20 UNK     1      33.459  -7.434  32.251  1.00  0.00     0.210 C 
ENDBRANCH  23  26
ENDBRANCH   5  18
BRANCH  10  28
HETATM   28  N1  UNK     1      27.346  -5.865  33.431  1.00  0.00    -0.379 N 
HETATM   29  H8  UNK     1      26.385  -5.978  33.726  1.00  0.00     0.158 HD
HETATM   30  H9  UNK     1      27.568  -5.284  32.633  1.00  0.00     0.158 HD
ENDBRANCH  10  28
TORSDOF 4
ENDMDL
MODEL 5
REMARK VINA RESULT:      -7.3     18.035     21.832
REMARK  4 active torsions:
REMARK  status: ('A' for Active; 'I' for Inactive)
REMARK    1  A    between atoms: C9_16  and  O3_3 
REMARK    2  A    between atoms: C12_19  and  O5_5 
REMARK    3  A    between atoms: C7_14  and  N1_6 
REMARK    4  A    between atoms: C1_8  and  C3_10 
ROOT
HETATM    1  O1  UNK     1      28.509  -7.891  36.278  1.00  0.00    -0.291 OA
HETATM    2  O2  UNK     1      31.368  -4.835  36.258  1.00  0.00    -0.274 OA
HETATM    3  O4  UNK     1      32.280  -5.697  34.354  1.00  0.00    -0.259 OA
HETATM    4  N2  UNK     1      29.507 -11.033  32.767  1.00  0.00    -0.191 NA
HETATM    5  C1  UNK     1      30.352  -7.817  34.079  1.00  0.00     0.111 C 
HETATM    6  C2  UNK     1      30.366  -6.815  35.216  1.00  0.00     0.066 A 
HETATM    7  C4  UNK     1      29.470  -6.897  36.212  1.00  0.00     0.104 A 
HETATM    8  C5  UNK     1      29.405  -8.983  34.350  1.00  0.00     0.086 C 
HETATM    9  C6  UNK     1      29.454  -5.920  37.297  1.00  0.00     0.033 A 
HETATM   10  C7  UNK     1      28.548  -8.968  35.395  1.00  0.00     0.159 C 
HETATM   11  C8  UNK     1      31.413  -5.760  35.220  1.00  0.00     0.298 A 
HETATM   12  C10 UNK     1      30.408  -4.908  37.285  1.00  0.00     0.092 A 
HETATM   13  C13 UNK     1      28.529  -5.944  38.348  1.00  0.00     0.017 A 
HETATM   14  C15 UNK     1      30.464  -3.929  38.278  1.00  0.00     0.038 A 
HETATM   15  C17 UNK     1      29.462 -10.116  33.476  1.00  0.00     0.100 C 
HETATM   16  C18 UNK     1      28.571  -4.971  39.352  1.00  0.00     0.001 A 
HETATM   17  C19 UNK     1      29.538  -3.964  39.316  1.00  0.00     0.003 A 
ENDROOT
BRANCH   5  18
HETATM   18  C3  UNK     1      29.983  -7.143  32.788  1.00  0.00    -0.008 A 
HETATM   19  C11 UNK     1      28.744  -6.522  32.684  1.00  0.00     0.011 A 
HETATM   20  C14 UNK     1      28.385  -5.891  31.493  1.00  0.00     0.003 A 
HETATM   21  C16 UNK     1      29.268  -5.885  30.413  1.00  0.00     0.039 A 
HETATM   22  C12 UNK     1      30.510  -6.511  30.524  1.00  0.00     0.102 A 
HETATM   23  C9  UNK     1      30.868  -7.142  31.716  1.00  0.00     0.108 A 
BRANCH  22  24
HETATM   24  O5  UNK     1      31.363  -6.499  29.462  1.00  0.00    -0.353 OA
HETATM   25  C21 UNK     1      31.085  -7.405  28.397  1.00  0.00     0.210 C 
ENDBRANCH  22  24
BRANCH  23  26
HETATM   26  O3  UNK     1      32.084  -7.752  31.820  1.00  0.00    -0.353 OA
HETATM   27  C20 UNK     1      32.181  -9.088  31.333  1.00  0.00     0.210 C 
ENDBRANCH  23  26
ENDBRANCH   5  18
BRANCH  10  28
HETATM   28  N1  UNK     1      27.659  -9.961  35.700  1.00  0.00    -0.379 N 
HETATM   29  H8  UNK     1      27.412 -10.115  36.669  1.00  0.00     0.158 HD
HETATM   30  H9  UNK     1      27.250 -10.535  34.975  1.00  0.00     0.158 HD
ENDBRANCH  10  28
TORSDOF 4
ENDMDL
MODEL 6
REMARK VINA RESULT:      -7.3     13.494     15.615
REMARK  4 active torsions:
REMARK  status: ('A' for Active; 'I' for Inactive)
REMARK    1  A    between atoms: C9_16  and  O3_3 
REMARK    2  A    between atoms: C12_19  and  O5_5 
REMARK    3  A    between atoms: C7_14  and  N1_6 
REMARK    4  A    between atoms: C1_8  and  C3_10 
ROOT
HETATM    1  O1  UNK     1      13.393   9.942   9.745  1.00  0.00    -0.291 OA
HETATM    2  O2  UNK     1      14.387   5.907  10.237  1.00  0.00    -0.274 OA
HETATM    3  O4  UNK     1      12.175   5.378  10.393  1.00  0.00    -0.259 OA
HETATM    4  N2  UNK     1       8.644  10.497  10.326  1.00  0.00    -0.191 NA
HETATM    5  C1  UNK     1      11.233   8.062   9.950  1.00  0.00     0.111 C 
HETATM    6  C2  UNK     1      12.696   7.666  10.011  1.00  0.00     0.066 A 
HETATM    7  C4  UNK     1      13.660   8.592   9.898  1.00  0.00     0.104 A 
HETATM    8  C5  UNK     1      11.043   9.575   9.994  1.00  0.00     0.086 C 
HETATM    9  C6  UNK     1      15.072   8.221   9.925  1.00  0.00     0.033 A 
HETATM   10  C7  UNK     1      12.092  10.422   9.884  1.00  0.00     0.159 C 
HETATM   11  C8  UNK     1      13.036   6.236  10.229  1.00  0.00     0.298 A 
HETATM   12  C10 UNK     1      15.396   6.878  10.090  1.00  0.00     0.092 A 
HETATM   13  C13 UNK     1      16.119   9.141   9.789  1.00  0.00     0.017 A 
HETATM   14  C15 UNK     1      16.718   6.432  10.122  1.00  0.00     0.038 A 
HETATM   15  C17 UNK     1       9.718  10.085  10.177  1.00  0.00     0.100 C 
HETATM   16  C18 UNK     1      17.450   8.711   9.820  1.00  0.00     0.001 A 
HETATM   17  C19 UNK     1      17.748   7.358   9.985  1.00  0.00     0.003 A 
ENDROOT
BRANCH   5  18
HETATM   18  C3  UNK     1      10.586   7.497   8.719  1.00  0.00    -0.008 A 
HETATM   19  C11 UNK     1      11.213   7.667   7.490  1.00  0.00     0.011 A 
HETATM   20  C14 UNK     1      10.627   7.149   6.335  1.00  0.00     0.003 A 
HETATM   21  C16 UNK     1       9.415   6.462   6.417  1.00  0.00     0.039 A 
HETATM   22  C12 UNK     1       8.790   6.294   7.654  1.00  0.00     0.102 A 
HETATM   23  C9  UNK     1       9.378   6.813   8.808  1.00  0.00     0.108 A 
BRANCH  22  24
HETATM   24  O5  UNK     1       7.608   5.622   7.720  1.00  0.00    -0.353 OA
HETATM   25  C21 UNK     1       7.606   4.382   8.425  1.00  0.00     0.210 C 
ENDBRANCH  22  24
BRANCH  23  26
HETATM   26  O3  UNK     1       8.764   6.646  10.014  1.00  0.00    -0.353 OA
HETATM   27  C20 UNK     1       7.553   7.367  10.229  1.00  0.00     0.210 C 
ENDBRANCH  23  26
ENDBRANCH   5  18
BRANCH  10  28
HETATM   28  N1  UNK     1      12.008  11.787   9.898  1.00  0.00    -0.379 N 
HETATM   29  H8  UNK     1      11.696  12.248  10.744  1.00  0.00     0.158 HD
HETATM   30  H9  UNK     1      12.254  12.332   9.083  1.00  0.00     0.158 HD
ENDBRANCH  10  28
TORSDOF 4
ENDMDL
MODEL 7
REMARK VINA RESULT:      -7.3     19.127     22.960
REMARK  4 active torsions:
REMARK  status: ('A' for Active; 'I' for Inactive)
REMARK    1  A    between atoms: C9_16  and  O3_3 
REMARK    2  A    between atoms: C12_19  and  O5_5 
REMARK    3  A    between atoms: C7_14  and  N1_6 
REMARK    4  A    between atoms: C1_8  and  C3_10 
ROOT
HETATM    1  O1  UNK     1      30.710  -6.806  38.017  1.00  0.00    -0.291 OA
HETATM    2  O2  UNK     1      27.131  -7.538  35.976  1.00  0.00    -0.274 OA
HETATM    3  O4  UNK     1      27.958  -6.475  34.137  1.00  0.00    -0.259 OA
HETATM    4  N2  UNK     1      33.551  -4.016  35.306  1.00  0.00    -0.191 NA
HETATM    5  C1  UNK     1      30.551  -5.960  35.279  1.00  0.00     0.111 C 
HETATM    6  C2  UNK     1      29.415  -6.650  36.009  1.00  0.00     0.066 A 
HETATM    7  C4  UNK     1      29.555  -7.031  37.287  1.00  0.00     0.104 A 
HETATM    8  C5  UNK     1      31.688  -5.571  36.218  1.00  0.00     0.086 C 
HETATM    9  C6  UNK     1      28.480  -7.723  37.992  1.00  0.00     0.033 A 
HETATM   10  C7  UNK     1      31.724  -6.002  37.499  1.00  0.00     0.159 C 
HETATM   11  C8  UNK     1      28.134  -6.865  35.287  1.00  0.00     0.298 A 
HETATM   12  C10 UNK     1      27.292  -7.962  37.309  1.00  0.00     0.092 A 
HETATM   13  C13 UNK     1      28.579  -8.163  39.318  1.00  0.00     0.017 A 
HETATM   14  C15 UNK     1      26.214  -8.621  37.902  1.00  0.00     0.038 A 
HETATM   15  C17 UNK     1      32.717  -4.712  35.715  1.00  0.00     0.100 C 
HETATM   16  C18 UNK     1      27.508  -8.824  39.928  1.00  0.00     0.001 A 
HETATM   17  C19 UNK     1      26.327  -9.053  39.219  1.00  0.00     0.003 A 
ENDROOT
BRANCH   5  18
HETATM   18  C3  UNK     1      31.072  -6.832  34.172  1.00  0.00    -0.008 A 
HETATM   19  C11 UNK     1      31.468  -8.131  34.469  1.00  0.00     0.011 A 
HETATM   20  C14 UNK     1      31.953  -8.955  33.454  1.00  0.00     0.003 A 
HETATM   21  C16 UNK     1      32.041  -8.474  32.147  1.00  0.00     0.039 A 
HETATM   22  C12 UNK     1      31.642  -7.169  31.856  1.00  0.00     0.102 A 
HETATM   23  C9  UNK     1      31.156  -6.346  32.872  1.00  0.00     0.108 A 
BRANCH  22  24
HETATM   24  O5  UNK     1      31.732  -6.712  30.576  1.00  0.00    -0.353 OA
HETATM   25  C21 UNK     1      31.067  -7.471  29.569  1.00  0.00     0.210 C 
ENDBRANCH  22  24
BRANCH  23  26
HETATM   26  O3  UNK     1      30.766  -5.071  32.582  1.00  0.00    -0.353 OA
HETATM   27  C20 UNK     1      29.558  -4.917  31.841  1.00  0.00     0.210 C 
ENDBRANCH  23  26
ENDBRANCH   5  18
BRANCH  10  28
HETATM   28  N1  UNK     1      32.711  -5.714  38.401  1.00  0.00    -0.379 N 
HETATM   29  H8  UNK     1      33.637  -6.092  38.248  1.00  0.00     0.158 HD
HETATM   30  H9  UNK     1      32.526  -5.133  39.208  1.00  0.00     0.158 HD
ENDBRANCH  10  28
TORSDOF 4
ENDMDL
MODEL 8
REMARK VINA RESULT:      -7.3     17.510     21.647
REMARK  4 active torsions:
REMARK  status: ('A' for Active; 'I' for Inactive)
REMARK    1  A    between atoms: C9_16  and  O3_3 
REMARK    2  A    between atoms: C12_19  and  O5_5 
REMARK    3  A    between atoms: C7_14  and  N1_6 
REMARK    4  A    between atoms: C1_8  and  C3_10 
ROOT
HETATM    1  O1  UNK     1      34.759  -7.460  33.565  1.00  0.00    -0.291 OA
HETATM    2  O2  UNK     1      31.220  -5.703  34.942  1.00  0.00    -0.274 OA
HETATM    3  O4  UNK     1      30.314  -5.888  32.858  1.00  0.00    -0.259 OA
HETATM    4  N2  UNK     1      34.482  -8.081  28.796  1.00  0.00    -0.191 NA
HETATM    5  C1  UNK     1      32.587  -7.226  31.703  1.00  0.00     0.111 C 
HETATM    6  C2  UNK     1      32.512  -6.750  33.141  1.00  0.00     0.066 A 
HETATM    7  C4  UNK     1      33.560  -6.897  33.966  1.00  0.00     0.104 A 
HETATM    8  C5  UNK     1      34.002  -7.632  31.303  1.00  0.00     0.086 C 
HETATM    9  C6  UNK     1      33.491  -6.470  35.360  1.00  0.00     0.033 A 
HETATM   10  C7  UNK     1      34.991  -7.737  32.219  1.00  0.00     0.159 C 
HETATM   11  C8  UNK     1      31.265  -6.088  33.606  1.00  0.00     0.298 A 
HETATM   12  C10 UNK     1      32.312  -5.885  35.812  1.00  0.00     0.092 A 
HETATM   13  C13 UNK     1      34.544  -6.620  36.271  1.00  0.00     0.017 A 
HETATM   14  C15 UNK     1      32.155  -5.453  37.129  1.00  0.00     0.038 A 
HETATM   15  C17 UNK     1      34.267  -7.880  29.918  1.00  0.00     0.100 C 
HETATM   16  C18 UNK     1      34.404  -6.192  37.595  1.00  0.00     0.001 A 
HETATM   17  C19 UNK     1      33.210  -5.609  38.023  1.00  0.00     0.003 A 
ENDROOT
BRANCH   5  18
HETATM   18  C3  UNK     1      31.639  -8.369  31.478  1.00  0.00    -0.008 A 
HETATM   19  C11 UNK     1      31.821  -9.545  32.197  1.00  0.00     0.011 A 
HETATM   20  C14 UNK     1      30.951 -10.618  32.001  1.00  0.00     0.003 A 
HETATM   21  C16 UNK     1      29.904 -10.508  31.086  1.00  0.00     0.039 A 
HETATM   22  C12 UNK     1      29.727  -9.325  30.368  1.00  0.00     0.102 A 
HETATM   23  C9  UNK     1      30.598  -8.252  30.565  1.00  0.00     0.108 A 
BRANCH  22  24
HETATM   24  O5  UNK     1      28.701  -9.230  29.477  1.00  0.00    -0.353 OA
HETATM   25  C21 UNK     1      28.773 -10.053  28.315  1.00  0.00     0.210 C 
ENDBRANCH  22  24
BRANCH  23  26
HETATM   26  O3  UNK     1      30.421  -7.098  29.860  1.00  0.00    -0.353 OA
HETATM   27  C20 UNK     1      31.029  -7.026  28.573  1.00  0.00     0.210 C 
ENDBRANCH  23  26
ENDBRANCH   5  18
BRANCH  10  28
HETATM   28  N1  UNK     1      36.280  -8.108  31.948  1.00  0.00    -0.379 N 
HETATM   29  H8  UNK     1      36.538  -8.311  30.991  1.00  0.00     0.158 HD
HETATM   30  H9  UNK     1      36.968  -8.178  32.686  1.00  0.00     0.158 HD
ENDBRANCH  10  28
TORSDOF 4
ENDMDL
MODEL 9
REMARK VINA RESULT:      -7.3     19.376     22.882
REMARK  4 active torsions:
REMARK  status: ('A' for Active; 'I' for Inactive)
REMARK    1  A    between atoms: C9_16  and  O3_3 
REMARK    2  A    between atoms: C12_19  and  O5_5 
REMARK    3  A    between atoms: C7_14  and  N1_6 
REMARK    4  A    between atoms: C1_8  and  C3_10 
ROOT
HETATM    1  O1  UNK     1      34.712  -7.266  35.499  1.00  0.00    -0.291 OA
HETATM    2  O2  UNK     1      30.980  -5.611  34.581  1.00  0.00    -0.274 OA
HETATM    3  O4  UNK     1      31.220  -6.266  32.410  1.00  0.00    -0.259 OA
HETATM    4  N2  UNK     1      36.820  -8.795  31.446  1.00  0.00    -0.191 NA
HETATM    5  C1  UNK     1      33.747  -7.585  32.814  1.00  0.00     0.111 C 
HETATM    6  C2  UNK     1      32.978  -6.855  33.899  1.00  0.00     0.066 A 
HETATM    7  C4  UNK     1      33.479  -6.749  35.139  1.00  0.00     0.104 A 
HETATM    8  C5  UNK     1      35.169  -7.928  33.247  1.00  0.00     0.086 C 
HETATM    9  C6  UNK     1      32.736  -6.076  36.200  1.00  0.00     0.033 A 
HETATM   10  C7  UNK     1      35.575  -7.768  34.527  1.00  0.00     0.159 C 
HETATM   11  C8  UNK     1      31.674  -6.235  33.550  1.00  0.00     0.298 A 
HETATM   12  C10 UNK     1      31.496  -5.526  35.888  1.00  0.00     0.092 A 
HETATM   13  C13 UNK     1      33.199  -5.955  37.516  1.00  0.00     0.017 A 
HETATM   14  C15 UNK     1      30.715  -4.870  36.840  1.00  0.00     0.038 A 
HETATM   15  C17 UNK     1      36.081  -8.407  32.253  1.00  0.00     0.100 C 
HETATM   16  C18 UNK     1      32.429  -5.300  38.482  1.00  0.00     0.001 A 
HETATM   17  C19 UNK     1      31.188  -4.758  38.143  1.00  0.00     0.003 A 
ENDROOT
BRANCH   5  18
HETATM   18  C3  UNK     1      33.019  -8.832  32.401  1.00  0.00    -0.008 A 
HETATM   19  C11 UNK     1      32.527  -9.681  33.386  1.00  0.00     0.011 A 
HETATM   20  C14 UNK     1      31.848 -10.844  33.021  1.00  0.00     0.003 A 
HETATM   21  C16 UNK     1      31.666 -11.150  31.672  1.00  0.00     0.039 A 
HETATM   22  C12 UNK     1      32.162 -10.293  30.689  1.00  0.00     0.102 A 
HETATM   23  C9  UNK     1      32.841  -9.130  31.055  1.00  0.00     0.108 A 
BRANCH  22  24
HETATM   24  O5  UNK     1      31.976 -10.603  29.375  1.00  0.00    -0.353 OA
HETATM   25  C21 UNK     1      30.630 -10.716  28.920  1.00  0.00     0.210 C 
ENDBRANCH  22  24
BRANCH  23  26
HETATM   26  O3  UNK     1      33.323  -8.296  30.090  1.00  0.00    -0.353 OA
HETATM   27  C20 UNK     1      32.396  -7.389  29.497  1.00  0.00     0.210 C 
ENDBRANCH  23  26
ENDBRANCH   5  18
BRANCH  10  28
HETATM   28  N1  UNK     1      36.824  -8.065  35.001  1.00  0.00    -0.379 N 
HETATM   29  H8  UNK     1      37.572  -8.226  34.338  1.00  0.00     0.158 HD
HETATM   30  H9  UNK     1      37.004  -8.123  35.994  1.00  0.00     0.158 HD
ENDBRANCH  10  28
TORSDOF 4
ENDMDL
MODEL 10
REMARK VINA RESULT:      -7.3     18.415     22.392
REMARK  4 active torsions:
REMARK  status: ('A' for Active; 'I' for Inactive)
REMARK    1  A    between atoms: C9_16  and  O3_3 
REMARK    2  A    between atoms: C12_19  and  O5_5 
REMARK    3  A    between atoms: C7_14  and  N1_6 
REMARK    4  A    between atoms: C1_8  and  C3_10 
ROOT
HETATM    1  O1  UNK     1      31.076  -8.719  36.851  1.00  0.00    -0.291 OA
HETATM    2  O2  UNK     1      27.072  -7.584  36.421  1.00  0.00    -0.274 OA
HETATM    3  O4  UNK     1      27.593  -6.457  34.509  1.00  0.00    -0.259 OA
HETATM    4  N2  UNK     1      33.726  -6.536  33.473  1.00  0.00    -0.191 NA
HETATM    5  C1  UNK     1      30.373  -7.207  34.515  1.00  0.00     0.111 C 
HETATM    6  C2  UNK     1      29.376  -7.608  35.584  1.00  0.00     0.066 A 
HETATM    7  C4  UNK     1      29.765  -8.325  36.649  1.00  0.00     0.104 A 
HETATM    8  C5  UNK     1      31.812  -7.502  34.929  1.00  0.00     0.086 C 
HETATM    9  C6  UNK     1      28.809  -8.743  37.670  1.00  0.00     0.033 A 
HETATM   10  C7  UNK     1      32.093  -8.227  36.035  1.00  0.00     0.159 C 
HETATM   11  C8  UNK     1      27.965  -7.162  35.442  1.00  0.00     0.298 A 
HETATM   12  C10 UNK     1      27.480  -8.361  37.522  1.00  0.00     0.092 A 
HETATM   13  C13 UNK     1      29.155  -9.510  38.790  1.00  0.00     0.017 A 
HETATM   14  C15 UNK     1      26.497  -8.720  38.446  1.00  0.00     0.038 A 
HETATM   15  C17 UNK     1      32.869  -6.968  34.125  1.00  0.00     0.100 C 
HETATM   16  C18 UNK     1      28.183  -9.878  39.726  1.00  0.00     0.001 A 
HETATM   17  C19 UNK     1      26.855  -9.483  39.553  1.00  0.00     0.003 A 
ENDROOT
BRANCH   5  18
HETATM   18  C3  UNK     1      30.059  -7.896  33.218  1.00  0.00    -0.008 A 
HETATM   19  C11 UNK     1      29.746  -9.251  33.234  1.00  0.00     0.011 A 
HETATM   20  C14 UNK     1      29.451  -9.907  32.039  1.00  0.00     0.003 A 
HETATM   21  C16 UNK     1      29.473  -9.205  30.834  1.00  0.00     0.039 A 
HETATM   22  C12 UNK     1      29.788  -7.846  30.825  1.00  0.00     0.102 A 
HETATM   23  C9  UNK     1      30.083  -7.190  32.021  1.00  0.00     0.108 A 
BRANCH  22  24
HETATM   24  O5  UNK     1      29.805  -7.171  29.641  1.00  0.00    -0.353 OA
HETATM   25  C21 UNK     1      30.954  -7.343  28.814  1.00  0.00     0.210 C 
ENDBRANCH  22  24
BRANCH  23  26
HETATM   26  O3  UNK     1      30.390  -5.861  32.006  1.00  0.00    -0.353 OA
HETATM   27  C20 UNK     1      29.301  -4.947  31.895  1.00  0.00     0.210 C 
ENDBRANCH  23  26
ENDBRANCH   5  18
BRANCH  10  28
HETATM   28  N1  UNK     1      33.350  -8.548  36.468  1.00  0.00    -0.379 N 
HETATM   29  H8  UNK     1      34.113  -8.538  35.803  1.00  0.00     0.158 HD
HETATM   30  H9  UNK     1      33.522  -8.791  37.435  1.00  0.00     0.158 HD
ENDBRANCH  10  28
TORSDOF 4
ENDMDL
