MODEL 1
REMARK VINA RESULT:      -9.1      0.000      0.000
REMARK  4 active torsions:
REMARK  status: ('A' for Active; 'I' for Inactive)
REMARK    1  A    between atoms: C9_14  and  O3_3 
REMARK    2  A    between atoms: C1_6  and  N1_5 
REMARK    3  A    between atoms: C1_6  and  C4_9 
REMARK    4  A    between atoms: C13_18  and  C15_20 
ROOT
HETATM    1  O2  UNK     1      10.736   4.634   9.657  1.00  0.00    -0.320 OA
HETATM    2  O4  UNK     1       7.278   6.231   8.195  1.00  0.00    -0.286 OA
HETATM    3  C4  UNK     1      11.987   5.559   7.879  1.00  0.00     0.038 A 
HETATM    4  C7  UNK     1      10.753   5.375   8.503  1.00  0.00     0.100 A 
HETATM    5  C8  UNK     1       9.601   5.934   7.952  1.00  0.00     0.050 A 
HETATM    6  C9  UNK     1      12.066   6.304   6.703  1.00  0.00     0.076 A 
HETATM    7  C10 UNK     1       9.678   6.682   6.773  1.00  0.00     0.021 A 
HETATM    8  C11 UNK     1      10.913   6.864   6.151  1.00  0.00     0.038 A 
HETATM    9  C12 UNK     1       8.308   5.731   8.630  1.00  0.00     0.197 A 
HETATM   10  C13 UNK     1       8.332   4.905   9.868  1.00  0.00     0.048 A 
HETATM   11  C14 UNK     1       9.523   4.433  10.268  1.00  0.00     0.159 A 
ENDROOT
BRANCH   3  12
HETATM   12  C1  UNK     1      13.226   4.962   8.464  1.00  0.00     0.317 C 
BRANCH  12  13
HETATM   13  N1  UNK     1      14.064   6.022   9.022  1.00  0.00     0.097 N 
HETATM   14  C2  UNK     1      13.304   6.840   9.975  1.00  0.00     0.299 C 
HETATM   15  C5  UNK     1      14.202   7.931  10.553  1.00  0.00     0.198 C 
HETATM   16  O1  UNK     1      15.341   7.350  11.191  1.00  0.00    -0.388 OA
HETATM   17  C6  UNK     1      16.104   6.579  10.263  1.00  0.00     0.198 C 
HETATM   18  C3  UNK     1      15.251   5.456   9.677  1.00  0.00     0.299 C 
ENDBRANCH  12  13
ENDBRANCH   3  12
BRANCH   6  19
HETATM   19  O3  UNK     1      13.261   6.495   6.079  1.00  0.00    -0.360 OA
HETATM   20  H14 UNK     1      13.870   5.779   6.332  1.00  0.00     0.217 HD
ENDBRANCH   6  19
BRANCH  10  21
HETATM   21  C15 UNK     1       7.106   4.592  10.620  1.00  0.00    -0.020 A 
HETATM   22  C16 UNK     1       6.367   3.448  10.315  1.00  0.00     0.012 A 
HETATM   23  C18 UNK     1       5.206   3.153  11.029  1.00  0.00     0.001 A 
HETATM   24  C20 UNK     1       4.781   4.001  12.052  1.00  0.00     0.000 A 
HETATM   25  C19 UNK     1       5.518   5.146  12.358  1.00  0.00     0.001 A 
HETATM   26  C17 UNK     1       6.678   5.441  11.644  1.00  0.00     0.012 A 
ENDBRANCH  10  21
TORSDOF 4
ENDMDL
MODEL 2
REMARK VINA RESULT:      -8.7     23.524     25.618
REMARK  4 active torsions:
REMARK  status: ('A' for Active; 'I' for Inactive)
REMARK    1  A    between atoms: C9_14  and  O3_3 
REMARK    2  A    between atoms: C1_6  and  N1_5 
REMARK    3  A    between atoms: C1_6  and  C4_9 
REMARK    4  A    between atoms: C13_18  and  C15_20 
ROOT
HETATM    1  O2  UNK     1      18.467   4.302  33.823  1.00  0.00    -0.320 OA
HETATM    2  O4  UNK     1      18.257   0.404  32.633  1.00  0.00    -0.286 OA
HETATM    3  C4  UNK     1      18.713   5.034  31.591  1.00  0.00     0.038 A 
HETATM    4  C7  UNK     1      18.560   3.981  32.492  1.00  0.00     0.100 A 
HETATM    5  C8  UNK     1      18.506   2.667  32.031  1.00  0.00     0.050 A 
HETATM    6  C9  UNK     1      18.813   4.769  30.225  1.00  0.00     0.076 A 
HETATM    7  C10 UNK     1      18.605   2.399  30.662  1.00  0.00     0.021 A 
HETATM    8  C11 UNK     1      18.760   3.453  29.762  1.00  0.00     0.038 A 
HETATM    9  C12 UNK     1      18.339   1.570  33.001  1.00  0.00     0.197 A 
HETATM   10  C13 UNK     1      18.262   1.961  34.435  1.00  0.00     0.048 A 
HETATM   11  C14 UNK     1      18.332   3.271  34.719  1.00  0.00     0.159 A 
ENDROOT
BRANCH   3  12
HETATM   12  C1  UNK     1      18.772   6.445  32.078  1.00  0.00     0.317 C 
BRANCH  12  13
HETATM   13  N1  UNK     1      17.435   6.882  32.474  1.00  0.00     0.097 N 
HETATM   14  C2  UNK     1      17.489   7.669  33.714  1.00  0.00     0.299 C 
HETATM   15  C5  UNK     1      16.085   8.124  34.101  1.00  0.00     0.198 C 
HETATM   16  O1  UNK     1      15.505   8.894  33.047  1.00  0.00    -0.388 OA
HETATM   17  C6  UNK     1      15.418   8.127  31.845  1.00  0.00     0.198 C 
HETATM   18  C3  UNK     1      16.806   7.671  31.405  1.00  0.00     0.299 C 
ENDBRANCH  12  13
ENDBRANCH   3  12
BRANCH   6  19
HETATM   19  O3  UNK     1      18.963   5.782  29.328  1.00  0.00    -0.360 OA
HETATM   20  H14 UNK     1      18.527   5.537  28.494  1.00  0.00     0.217 HD
ENDBRANCH   6  19
BRANCH  10  21
HETATM   21  C15 UNK     1      18.134   0.962  35.510  1.00  0.00    -0.020 A 
HETATM   22  C16 UNK     1      18.834  -0.243  35.434  1.00  0.00     0.012 A 
HETATM   23  C18 UNK     1      18.712  -1.188  36.453  1.00  0.00     0.001 A 
HETATM   24  C20 UNK     1      17.891  -0.929  37.551  1.00  0.00     0.000 A 
HETATM   25  C19 UNK     1      17.191   0.275  37.628  1.00  0.00     0.001 A 
HETATM   26  C17 UNK     1      17.312   1.219  36.609  1.00  0.00     0.012 A 
ENDBRANCH  10  21
TORSDOF 4
ENDMDL
MODEL 3
REMARK VINA RESULT:      -8.7      3.276      5.779
REMARK  4 active torsions:
REMARK  status: ('A' for Active; 'I' for Inactive)
REMARK    1  A    between atoms: C9_14  and  O3_3 
REMARK    2  A    between atoms: C1_6  and  N1_5 
REMARK    3  A    between atoms: C1_6  and  C4_9 
REMARK    4  A    between atoms: C13_18  and  C15_20 
ROOT
HETATM    1  O2  UNK     1      13.717   8.720   9.092  1.00  0.00    -0.320 OA
HETATM    2  O4  UNK     1      12.809   4.906   7.963  1.00  0.00    -0.286 OA
HETATM    3  C4  UNK     1      15.861   8.058   9.830  1.00  0.00     0.038 A 
HETATM    4  C7  UNK     1      14.631   7.713   9.269  1.00  0.00     0.100 A 
HETATM    5  C8  UNK     1      14.371   6.390   8.912  1.00  0.00     0.050 A 
HETATM    6  C9  UNK     1      16.831   7.075  10.033  1.00  0.00     0.076 A 
HETATM    7  C10 UNK     1      15.341   5.405   9.115  1.00  0.00     0.021 A 
HETATM    8  C11 UNK     1      16.570   5.751   9.677  1.00  0.00     0.038 A 
HETATM    9  C12 UNK     1      13.066   6.050   8.317  1.00  0.00     0.197 A 
HETATM   10  C13 UNK     1      12.097   7.169   8.162  1.00  0.00     0.048 A 
HETATM   11  C14 UNK     1      12.497   8.388   8.557  1.00  0.00     0.159 A 
ENDROOT
BRANCH   3  12
HETATM   12  C1  UNK     1      16.148   9.473  10.214  1.00  0.00     0.317 C 
BRANCH  12  13
HETATM   13  N1  UNK     1      16.732  10.181   9.077  1.00  0.00     0.097 N 
HETATM   14  C2  UNK     1      15.825  11.231   8.595  1.00  0.00     0.299 C 
HETATM   15  C5  UNK     1      16.461  11.964   7.417  1.00  0.00     0.198 C 
HETATM   16  O1  UNK     1      17.716  12.527   7.801  1.00  0.00    -0.388 OA
HETATM   17  C6  UNK     1      18.616  11.509   8.241  1.00  0.00     0.198 C 
HETATM   18  C3  UNK     1      18.031  10.764   9.439  1.00  0.00     0.299 C 
ENDBRANCH  12  13
ENDBRANCH   3  12
BRANCH   6  19
HETATM   19  O3  UNK     1      18.037   7.391  10.579  1.00  0.00    -0.360 OA
HETATM   20  H14 UNK     1      18.735   7.238   9.918  1.00  0.00     0.217 HD
ENDBRANCH   6  19
BRANCH  10  21
HETATM   21  C15 UNK     1      10.745   6.959   7.617  1.00  0.00    -0.020 A 
HETATM   22  C16 UNK     1       9.632   7.027   8.457  1.00  0.00     0.012 A 
HETATM   23  C18 UNK     1       8.352   6.830   7.940  1.00  0.00     0.001 A 
HETATM   24  C20 UNK     1       8.182   6.564   6.581  1.00  0.00     0.000 A 
HETATM   25  C19 UNK     1       9.293   6.495   5.740  1.00  0.00     0.001 A 
HETATM   26  C17 UNK     1      10.572   6.693   6.257  1.00  0.00     0.012 A 
ENDBRANCH  10  21
TORSDOF 4
ENDMDL
MODEL 4
REMARK VINA RESULT:      -8.6     26.403     28.699
REMARK  4 active torsions:
REMARK  status: ('A' for Active; 'I' for Inactive)
REMARK    1  A    between atoms: C9_14  and  O3_3 
REMARK    2  A    between atoms: C1_6  and  N1_5 
REMARK    3  A    between atoms: C1_6  and  C4_9 
REMARK    4  A    between atoms: C13_18  and  C15_20 
ROOT
HETATM    1  O2  UNK     1      20.475  -2.721  34.472  1.00  0.00    -0.320 OA
HETATM    2  O4  UNK     1      17.981   0.202  33.098  1.00  0.00    -0.286 OA
HETATM    3  C4  UNK     1      19.674  -2.453  36.679  1.00  0.00     0.038 A 
HETATM    4  C7  UNK     1      19.637  -2.066  35.339  1.00  0.00     0.100 A 
HETATM    5  C8  UNK     1      18.773  -1.052  34.927  1.00  0.00     0.050 A 
HETATM    6  C9  UNK     1      18.844  -1.823  37.606  1.00  0.00     0.076 A 
HETATM    7  C10 UNK     1      17.940  -0.420  35.854  1.00  0.00     0.021 A 
HETATM    8  C11 UNK     1      17.979  -0.808  37.194  1.00  0.00     0.038 A 
HETATM    9  C12 UNK     1      18.747  -0.663  33.506  1.00  0.00     0.197 A 
HETATM   10  C13 UNK     1      19.686  -1.385  32.604  1.00  0.00     0.048 A 
HETATM   11  C14 UNK     1      20.458  -2.335  33.155  1.00  0.00     0.159 A 
ENDROOT
BRANCH   3  12
HETATM   12  C1  UNK     1      20.597  -3.539  37.127  1.00  0.00     0.317 C 
BRANCH  12  13
HETATM   13  N1  UNK     1      19.852  -4.789  37.267  1.00  0.00     0.097 N 
HETATM   14  C2  UNK     1      19.826  -5.525  35.997  1.00  0.00     0.299 C 
HETATM   15  C5  UNK     1      19.055  -6.831  36.170  1.00  0.00     0.198 C 
HETATM   16  O1  UNK     1      19.651  -7.627  37.195  1.00  0.00    -0.388 OA
HETATM   17  C6  UNK     1      19.651  -6.931  38.443  1.00  0.00     0.198 C 
HETATM   18  C3  UNK     1      20.436  -5.627  38.323  1.00  0.00     0.299 C 
ENDBRANCH  12  13
ENDBRANCH   3  12
BRANCH   6  19
HETATM   19  O3  UNK     1      18.864  -2.186  38.918  1.00  0.00    -0.360 OA
HETATM   20  H14 UNK     1      19.736  -1.971  39.294  1.00  0.00     0.217 HD
ENDBRANCH   6  19
BRANCH  10  21
HETATM   21  C15 UNK     1      19.790  -1.067  31.170  1.00  0.00    -0.020 A 
HETATM   22  C16 UNK     1      19.556   0.234  30.721  1.00  0.00     0.012 A 
HETATM   23  C18 UNK     1      19.656   0.534  29.363  1.00  0.00     0.001 A 
HETATM   24  C20 UNK     1      19.990  -0.467  28.450  1.00  0.00     0.000 A 
HETATM   25  C19 UNK     1      20.223  -1.768  28.896  1.00  0.00     0.001 A 
HETATM   26  C17 UNK     1      20.123  -2.067  30.254  1.00  0.00     0.012 A 
ENDBRANCH  10  21
TORSDOF 4
ENDMDL
MODEL 5
REMARK VINA RESULT:      -8.5      2.169      7.476
REMARK  4 active torsions:
REMARK  status: ('A' for Active; 'I' for Inactive)
REMARK    1  A    between atoms: C9_14  and  O3_3 
REMARK    2  A    between atoms: C1_6  and  N1_5 
REMARK    3  A    between atoms: C1_6  and  C4_9 
REMARK    4  A    between atoms: C13_18  and  C15_20 
ROOT
HETATM    1  O2  UNK     1      10.981   7.554   9.681  1.00  0.00    -0.320 OA
HETATM    2  O4  UNK     1      13.681   6.885   6.696  1.00  0.00    -0.286 OA
HETATM    3  C4  UNK     1       9.171   7.151   8.218  1.00  0.00     0.038 A 
HETATM    4  C7  UNK     1      10.548   7.239   8.418  1.00  0.00     0.100 A 
HETATM    5  C8  UNK     1      11.425   7.012   7.358  1.00  0.00     0.050 A 
HETATM    6  C9  UNK     1       8.672   6.834   6.954  1.00  0.00     0.076 A 
HETATM    7  C10 UNK     1      10.928   6.694   6.091  1.00  0.00     0.021 A 
HETATM    8  C11 UNK     1       9.549   6.607   5.893  1.00  0.00     0.038 A 
HETATM    9  C12 UNK     1      12.877   7.107   7.593  1.00  0.00     0.197 A 
HETATM   10  C13 UNK     1      13.302   7.470   8.973  1.00  0.00     0.048 A 
HETATM   11  C14 UNK     1      12.335   7.660   9.883  1.00  0.00     0.159 A 
ENDROOT
BRANCH   3  12
HETATM   12  C1  UNK     1       8.225   7.393   9.349  1.00  0.00     0.317 C 
BRANCH  12  13
HETATM   13  N1  UNK     1       7.410   6.200   9.570  1.00  0.00     0.097 N 
HETATM   14  C2  UNK     1       8.238   5.082  10.040  1.00  0.00     0.299 C 
HETATM   15  C5  UNK     1       7.364   3.853  10.276  1.00  0.00     0.198 C 
HETATM   16  O1  UNK     1       6.339   4.148  11.225  1.00  0.00    -0.388 OA
HETATM   17  C6  UNK     1       5.508   5.213  10.761  1.00  0.00     0.198 C 
HETATM   18  C3  UNK     1       6.337   6.474  10.536  1.00  0.00     0.299 C 
ENDBRANCH  12  13
ENDBRANCH   3  12
BRANCH   6  19
HETATM   19  O3  UNK     1       7.331   6.742   6.738  1.00  0.00    -0.360 OA
HETATM   20  H14 UNK     1       6.985   5.964   7.209  1.00  0.00     0.217 HD
ENDBRANCH   6  19
BRANCH  10  21
HETATM   21  C15 UNK     1      14.720   7.636   9.333  1.00  0.00    -0.020 A 
HETATM   22  C16 UNK     1      15.297   8.907   9.346  1.00  0.00     0.012 A 
HETATM   23  C18 UNK     1      16.640   9.062   9.688  1.00  0.00     0.001 A 
HETATM   24  C20 UNK     1      17.409   7.947  10.021  1.00  0.00     0.000 A 
HETATM   25  C19 UNK     1      16.835   6.676  10.008  1.00  0.00     0.001 A 
HETATM   26  C17 UNK     1      15.492   6.520   9.665  1.00  0.00     0.012 A 
ENDBRANCH  10  21
TORSDOF 4
ENDMDL
MODEL 6
REMARK VINA RESULT:      -8.2     23.775     25.840
REMARK  4 active torsions:
REMARK  status: ('A' for Active; 'I' for Inactive)
REMARK    1  A    between atoms: C9_14  and  O3_3 
REMARK    2  A    between atoms: C1_6  and  N1_5 
REMARK    3  A    between atoms: C1_6  and  C4_9 
REMARK    4  A    between atoms: C13_18  and  C15_20 
ROOT
HETATM    1  O2  UNK     1      18.013   2.813  33.435  1.00  0.00    -0.320 OA
HETATM    2  O4  UNK     1      19.131  -1.028  32.629  1.00  0.00    -0.286 OA
HETATM    3  C4  UNK     1      18.304   3.437  31.175  1.00  0.00     0.038 A 
HETATM    4  C7  UNK     1      18.363   2.450  32.159  1.00  0.00     0.100 A 
HETATM    5  C8  UNK     1      18.763   1.156  31.829  1.00  0.00     0.050 A 
HETATM    6  C9  UNK     1      18.648   3.126  29.859  1.00  0.00     0.076 A 
HETATM    7  C10 UNK     1      19.107   0.842  30.511  1.00  0.00     0.021 A 
HETATM    8  C11 UNK     1      19.049   1.831  29.529  1.00  0.00     0.038 A 
HETATM    9  C12 UNK     1      18.813   0.128  32.884  1.00  0.00     0.197 A 
HETATM   10  C13 UNK     1      18.445   0.570  34.257  1.00  0.00     0.048 A 
HETATM   11  C14 UNK     1      18.084   1.853  34.413  1.00  0.00     0.159 A 
ENDROOT
BRANCH   3  12
HETATM   12  C1  UNK     1      17.876   4.826  31.521  1.00  0.00     0.317 C 
BRANCH  12  13
HETATM   13  N1  UNK     1      18.819   5.406  32.475  1.00  0.00     0.097 N 
HETATM   14  C2  UNK     1      19.970   5.994  31.779  1.00  0.00     0.299 C 
HETATM   15  C5  UNK     1      20.934   6.604  32.794  1.00  0.00     0.198 C 
HETATM   16  O1  UNK     1      20.267   7.594  33.579  1.00  0.00    -0.388 OA
HETATM   17  C6  UNK     1      19.164   7.023  34.286  1.00  0.00     0.198 C 
HETATM   18  C3  UNK     1      18.159   6.423  33.306  1.00  0.00     0.299 C 
ENDBRANCH  12  13
ENDBRANCH   3  12
BRANCH   6  19
HETATM   19  O3  UNK     1      18.597   4.075  28.884  1.00  0.00    -0.360 OA
HETATM   20  H14 UNK     1      19.491   4.207  28.522  1.00  0.00     0.217 HD
ENDBRANCH   6  19
BRANCH  10  21
HETATM   21  C15 UNK     1      18.491  -0.346  35.409  1.00  0.00    -0.020 A 
HETATM   22  C16 UNK     1      19.395  -1.410  35.425  1.00  0.00     0.012 A 
HETATM   23  C18 UNK     1      19.437  -2.276  36.517  1.00  0.00     0.001 A 
HETATM   24  C20 UNK     1      18.576  -2.081  37.597  1.00  0.00     0.000 A 
HETATM   25  C19 UNK     1      17.671  -1.019  37.582  1.00  0.00     0.001 A 
HETATM   26  C17 UNK     1      17.628  -0.153  36.490  1.00  0.00     0.012 A 
ENDBRANCH  10  21
TORSDOF 4
ENDMDL
MODEL 7
REMARK VINA RESULT:      -8.1      2.955      8.558
REMARK  4 active torsions:
REMARK  status: ('A' for Active; 'I' for Inactive)
REMARK    1  A    between atoms: C9_14  and  O3_3 
REMARK    2  A    between atoms: C1_6  and  N1_5 
REMARK    3  A    between atoms: C1_6  and  C4_9 
REMARK    4  A    between atoms: C13_18  and  C15_20 
ROOT
HETATM    1  O2  UNK     1      13.918   8.564   8.188  1.00  0.00    -0.320 OA
HETATM    2  O4  UNK     1      16.748   7.788  11.023  1.00  0.00    -0.286 OA
HETATM    3  C4  UNK     1      13.180   6.320   8.222  1.00  0.00     0.038 A 
HETATM    4  C7  UNK     1      14.051   7.299   8.701  1.00  0.00     0.100 A 
HETATM    5  C8  UNK     1      15.008   6.974   9.662  1.00  0.00     0.050 A 
HETATM    6  C9  UNK     1      13.268   5.015   8.707  1.00  0.00     0.076 A 
HETATM    7  C10 UNK     1      15.097   5.667  10.150  1.00  0.00     0.021 A 
HETATM    8  C11 UNK     1      14.225   4.690   9.669  1.00  0.00     0.038 A 
HETATM    9  C12 UNK     1      15.915   8.025  10.158  1.00  0.00     0.197 A 
HETATM   10  C13 UNK     1      15.749   9.379   9.560  1.00  0.00     0.048 A 
HETATM   11  C14 UNK     1      14.782   9.530   8.641  1.00  0.00     0.159 A 
ENDROOT
BRANCH   3  12
HETATM   12  C1  UNK     1      12.153   6.660   7.192  1.00  0.00     0.317 C 
BRANCH  12  13
HETATM   13  N1  UNK     1      10.816   6.483   7.756  1.00  0.00     0.097 N 
HETATM   14  C2  UNK     1      10.418   7.662   8.536  1.00  0.00     0.299 C 
HETATM   15  C5  UNK     1       9.016   7.459   9.103  1.00  0.00     0.198 C 
HETATM   16  O1  UNK     1       8.083   7.221   8.048  1.00  0.00    -0.388 OA
HETATM   17  C6  UNK     1       8.444   6.056   7.304  1.00  0.00     0.198 C 
HETATM   18  C3  UNK     1       9.833   6.226   6.694  1.00  0.00     0.299 C 
ENDBRANCH  12  13
ENDBRANCH   3  12
BRANCH   6  19
HETATM   19  O3  UNK     1      12.427   4.046   8.253  1.00  0.00    -0.360 OA
HETATM   20  H14 UNK     1      12.698   3.784   7.356  1.00  0.00     0.217 HD
ENDBRANCH   6  19
BRANCH  10  21
HETATM   21  C15 UNK     1      16.614  10.508   9.937  1.00  0.00    -0.020 A 
HETATM   22  C16 UNK     1      17.882  10.642   9.367  1.00  0.00     0.012 A 
HETATM   23  C18 UNK     1      18.700  11.713   9.724  1.00  0.00     0.001 A 
HETATM   24  C20 UNK     1      18.253  12.654  10.651  1.00  0.00     0.000 A 
HETATM   25  C19 UNK     1      16.987  12.522  11.222  1.00  0.00     0.001 A 
HETATM   26  C17 UNK     1      16.169  11.451  10.866  1.00  0.00     0.012 A 
ENDBRANCH  10  21
TORSDOF 4
ENDMDL
MODEL 8
REMARK VINA RESULT:      -7.7      3.259      5.504
REMARK  4 active torsions:
REMARK  status: ('A' for Active; 'I' for Inactive)
REMARK    1  A    between atoms: C9_14  and  O3_3 
REMARK    2  A    between atoms: C1_6  and  N1_5 
REMARK    3  A    between atoms: C1_6  and  C4_9 
REMARK    4  A    between atoms: C13_18  and  C15_20 
ROOT
HETATM    1  O2  UNK     1      13.738   8.675   8.921  1.00  0.00    -0.320 OA
HETATM    2  O4  UNK     1      12.683   4.832   8.045  1.00  0.00    -0.286 OA
HETATM    3  C4  UNK     1      15.845   7.977   9.731  1.00  0.00     0.038 A 
HETATM    4  C7  UNK     1      14.607   7.645   9.179  1.00  0.00     0.100 A 
HETATM    5  C8  UNK     1      14.295   6.313   8.911  1.00  0.00     0.050 A 
HETATM    6  C9  UNK     1      16.770   6.972  10.014  1.00  0.00     0.076 A 
HETATM    7  C10 UNK     1      15.221   5.305   9.193  1.00  0.00     0.021 A 
HETATM    8  C11 UNK     1      16.458   5.639   9.746  1.00  0.00     0.038 A 
HETATM    9  C12 UNK     1      12.983   5.987   8.323  1.00  0.00     0.197 A 
HETATM   10  C13 UNK     1      12.064   7.132   8.078  1.00  0.00     0.048 A 
HETATM   11  C14 UNK     1      12.511   8.357   8.394  1.00  0.00     0.159 A 
ENDROOT
BRANCH   3  12
HETATM   12  C1  UNK     1      16.186   9.402  10.021  1.00  0.00     0.317 C 
BRANCH  12  13
HETATM   13  N1  UNK     1      15.114  10.014  10.803  1.00  0.00     0.097 N 
HETATM   14  C2  UNK     1      14.965   9.341  12.100  1.00  0.00     0.299 C 
HETATM   15  C5  UNK     1      13.849  10.004  12.903  1.00  0.00     0.198 C 
HETATM   16  O1  UNK     1      14.130  11.392  13.091  1.00  0.00    -0.388 OA
HETATM   17  C6  UNK     1      14.244  12.061  11.834  1.00  0.00     0.198 C 
HETATM   18  C3  UNK     1      15.369  11.447  11.005  1.00  0.00     0.299 C 
ENDBRANCH  12  13
ENDBRANCH   3  12
BRANCH   6  19
HETATM   19  O3  UNK     1      17.983   7.275  10.552  1.00  0.00    -0.360 OA
HETATM   20  H14 UNK     1      18.432   6.450  10.809  1.00  0.00     0.217 HD
ENDBRANCH   6  19
BRANCH  10  21
HETATM   21  C15 UNK     1      10.710   6.940   7.532  1.00  0.00    -0.020 A 
HETATM   22  C16 UNK     1      10.532   6.676   6.172  1.00  0.00     0.012 A 
HETATM   23  C18 UNK     1       9.249   6.494   5.657  1.00  0.00     0.001 A 
HETATM   24  C20 UNK     1       8.140   6.575   6.500  1.00  0.00     0.000 A 
HETATM   25  C19 UNK     1       8.316   6.840   7.858  1.00  0.00     0.001 A 
HETATM   26  C17 UNK     1       9.598   7.022   8.373  1.00  0.00     0.012 A 
ENDBRANCH  10  21
TORSDOF 4
ENDMDL
MODEL 9
REMARK VINA RESULT:      -7.7     35.366     37.172
REMARK  4 active torsions:
REMARK  status: ('A' for Active; 'I' for Inactive)
REMARK    1  A    between atoms: C9_14  and  O3_3 
REMARK    2  A    between atoms: C1_6  and  N1_5 
REMARK    3  A    between atoms: C1_6  and  C4_9 
REMARK    4  A    between atoms: C13_18  and  C15_20 
ROOT
HETATM    1  O2  UNK     1      31.466  -7.669  36.951  1.00  0.00    -0.320 OA
HETATM    2  O4  UNK     1      33.173  -4.222  35.589  1.00  0.00    -0.286 OA
HETATM    3  C4  UNK     1      29.864  -6.458  38.195  1.00  0.00     0.038 A 
HETATM    4  C7  UNK     1      30.967  -6.452  37.340  1.00  0.00     0.100 A 
HETATM    5  C8  UNK     1      31.517  -5.243  36.916  1.00  0.00     0.050 A 
HETATM    6  C9  UNK     1      29.313  -5.250  38.624  1.00  0.00     0.076 A 
HETATM    7  C10 UNK     1      30.966  -4.032  37.344  1.00  0.00     0.021 A 
HETATM    8  C11 UNK     1      29.864  -4.040  38.200  1.00  0.00     0.038 A 
HETATM    9  C12 UNK     1      32.679  -5.262  36.009  1.00  0.00     0.197 A 
HETATM   10  C13 UNK     1      33.200  -6.603  35.628  1.00  0.00     0.048 A 
HETATM   11  C14 UNK     1      32.562  -7.674  36.124  1.00  0.00     0.159 A 
ENDROOT
BRANCH   3  12
HETATM   12  C1  UNK     1      29.269  -7.749  38.655  1.00  0.00     0.317 C 
BRANCH  12  13
HETATM   13  N1  UNK     1      28.149  -8.107  37.789  1.00  0.00     0.097 N 
HETATM   14  C2  UNK     1      28.485  -9.268  36.953  1.00  0.00     0.299 C 
HETATM   15  C5  UNK     1      27.297  -9.631  36.067  1.00  0.00     0.198 C 
HETATM   16  O1  UNK     1      26.148  -9.910  36.868  1.00  0.00    -0.388 OA
HETATM   17  C6  UNK     1      25.793  -8.776  37.660  1.00  0.00     0.198 C 
HETATM   18  C3  UNK     1      26.946  -8.391  38.584  1.00  0.00     0.299 C 
ENDBRANCH  12  13
ENDBRANCH   3  12
BRANCH   6  19
HETATM   19  O3  UNK     1      28.237  -5.233  39.458  1.00  0.00    -0.360 OA
HETATM   20  H14 UNK     1      27.514  -5.744  39.055  1.00  0.00     0.217 HD
ENDBRANCH   6  19
BRANCH  10  21
HETATM   21  C15 UNK     1      34.379  -6.763  34.760  1.00  0.00    -0.020 A 
HETATM   22  C16 UNK     1      35.646  -6.932  35.321  1.00  0.00     0.012 A 
HETATM   23  C18 UNK     1      36.761  -7.085  34.498  1.00  0.00     0.001 A 
HETATM   24  C20 UNK     1      36.612  -7.069  33.111  1.00  0.00     0.000 A 
HETATM   25  C19 UNK     1      35.347  -6.900  32.548  1.00  0.00     0.001 A 
HETATM   26  C17 UNK     1      34.232  -6.747  33.371  1.00  0.00     0.012 A 
ENDBRANCH  10  21
TORSDOF 4
ENDMDL
MODEL 10
REMARK VINA RESULT:      -7.7     23.185     25.454
REMARK  4 active torsions:
REMARK  status: ('A' for Active; 'I' for Inactive)
REMARK    1  A    between atoms: C9_14  and  O3_3 
REMARK    2  A    between atoms: C1_6  and  N1_5 
REMARK    3  A    between atoms: C1_6  and  C4_9 
REMARK    4  A    between atoms: C13_18  and  C15_20 
ROOT
HETATM    1  O2  UNK     1      17.683   9.655  33.679  1.00  0.00    -0.320 OA
HETATM    2  O4  UNK     1      15.057   7.066  31.933  1.00  0.00    -0.286 OA
HETATM    3  C4  UNK     1      15.935  11.134  34.260  1.00  0.00     0.038 A 
HETATM    4  C7  UNK     1      16.342   9.944  33.657  1.00  0.00     0.100 A 
HETATM    5  C8  UNK     1      15.402   9.102  33.065  1.00  0.00     0.050 A 
HETATM    6  C9  UNK     1      14.584  11.480  34.269  1.00  0.00     0.076 A 
HETATM    7  C10 UNK     1      14.047   9.447  33.073  1.00  0.00     0.021 A 
HETATM    8  C11 UNK     1      13.642  10.638  33.676  1.00  0.00     0.038 A 
HETATM    9  C12 UNK     1      15.854   7.847  32.438  1.00  0.00     0.197 A 
HETATM   10  C13 UNK     1      17.319   7.583  32.467  1.00  0.00     0.048 A 
HETATM   11  C14 UNK     1      18.096   8.495  33.073  1.00  0.00     0.159 A 
ENDROOT
BRANCH   3  12
HETATM   12  C1  UNK     1      16.937  12.042  34.897  1.00  0.00     0.317 C 
BRANCH  12  13
HETATM   13  N1  UNK     1      17.292  13.110  33.965  1.00  0.00     0.097 N 
HETATM   14  C2  UNK     1      17.178  14.424  34.611  1.00  0.00     0.299 C 
HETATM   15  C5  UNK     1      17.565  15.522  33.624  1.00  0.00     0.198 C 
HETATM   16  O1  UNK     1      18.895  15.314  33.147  1.00  0.00    -0.388 OA
HETATM   17  C6  UNK     1      19.008  14.052  32.488  1.00  0.00     0.198 C 
HETATM   18  C3  UNK     1      18.654  12.919  33.448  1.00  0.00     0.299 C 
ENDBRANCH  12  13
ENDBRANCH   3  12
BRANCH   6  19
HETATM   19  O3  UNK     1      14.165  12.637  34.852  1.00  0.00    -0.360 OA
HETATM   20  H14 UNK     1      13.199  12.603  34.969  1.00  0.00     0.217 HD
ENDBRANCH   6  19
BRANCH  10  21
HETATM   21  C15 UNK     1      17.908   6.387  31.843  1.00  0.00    -0.020 A 
HETATM   22  C16 UNK     1      17.722   5.130  32.421  1.00  0.00     0.012 A 
HETATM   23  C18 UNK     1      18.279   3.997  31.828  1.00  0.00     0.001 A 
HETATM   24  C20 UNK     1      19.023   4.118  30.654  1.00  0.00     0.000 A 
HETATM   25  C19 UNK     1      19.211   5.373  30.075  1.00  0.00     0.001 A 
HETATM   26  C17 UNK     1      18.654   6.506  30.668  1.00  0.00     0.012 A 
ENDBRANCH  10  21
TORSDOF 4
ENDMDL
