MODEL 1
REMARK VINA RESULT:     -10.1      0.000      0.000
REMARK  6 active torsions:
REMARK  status: ('A' for Active; 'I' for Inactive)
REMARK    1  A    between atoms: C11_20  and  O2_5 
REMARK    2  A    between atoms: C22_31  and  O2_5 
REMARK    3  A    between atoms: C3_12  and  N1_9 
REMARK       I    between atoms: C9_18  and  N1_9 
REMARK    4  A    between atoms: C1_10  and  C4_13 
REMARK    5  A    between atoms: C11_20  and  C2_11 
REMARK    6  A    between atoms: C6_15  and  C9_18 
ROOT
HETATM    1  S1  UNK     1      17.897  -0.530  36.942  1.00  0.00    -0.082 SA
HETATM    2  C1  UNK     1      19.364  -2.607  36.570  1.00  0.00    -0.000 A 
HETATM    3  C2  UNK     1      19.646  -1.724  35.488  1.00  0.00     0.085 A 
HETATM    4  C3  UNK     1      18.918  -0.583  35.584  1.00  0.00     0.094 A 
HETATM    5  C5  UNK     1      18.430  -2.081  37.437  1.00  0.00     0.065 A 
ENDROOT
BRANCH   4   6
HETATM    6  N1  UNK     1      18.880   0.542  34.754  1.00  0.00    -0.316 N 
HETATM    7  C9  UNK     1      17.752   1.066  34.138  1.00  0.00     0.262 C 
HETATM    8  O3  UNK     1      16.591   0.665  34.194  1.00  0.00    -0.267 OA
HETATM    9  H2  UNK     1      19.779   0.998  34.628  1.00  0.00     0.169 HD
BRANCH   7  10
HETATM   10  C6  UNK     1      18.070   2.251  33.334  1.00  0.00     0.108 A 
HETATM   11  C14 UNK     1      18.405   2.158  31.895  1.00  0.00     0.304 A 
HETATM   12  O1  UNK     1      18.687   3.354  31.239  1.00  0.00    -0.274 OA
HETATM   13  O5  UNK     1      18.433   1.083  31.304  1.00  0.00    -0.259 OA
HETATM   14  C10 UNK     1      18.658   4.593  31.908  1.00  0.00     0.089 A 
HETATM   15  C7  UNK     1      18.340   4.659  33.261  1.00  0.00     0.000 A 
HETATM   16  C16 UNK     1      18.954   5.735  31.167  1.00  0.00     0.039 A 
HETATM   17  C15 UNK     1      18.320   5.906  33.888  1.00  0.00     0.033 A 
HETATM   18  C8  UNK     1      18.040   3.426  33.974  1.00  0.00     0.037 A 
HETATM   19  C19 UNK     1      18.616   7.061  33.159  1.00  0.00     0.011 A 
HETATM   20 Br1  UNK     1      18.587   8.748  34.013  1.00  0.00    -0.051 Br
HETATM   21  C21 UNK     1      18.932   6.975  31.800  1.00  0.00     0.022 A 
ENDBRANCH   7  10
ENDBRANCH   4   6
BRANCH   3  22
HETATM   22  C11 UNK     1      20.576  -1.983  34.416  1.00  0.00     0.297 C 
HETATM   23  O4  UNK     1      21.790  -2.170  34.585  1.00  0.00    -0.259 OA
BRANCH  22  24
HETATM   24  O2  UNK     1      19.995  -2.005  33.167  1.00  0.00    -0.318 OA
BRANCH  24  25
HETATM   25  C22 UNK     1      20.838  -2.376  32.069  1.00  0.00     0.174 C 
HETATM   26  C23 UNK     1      20.143  -2.022  30.772  1.00  0.00     0.034 C 
ENDBRANCH  24  25
ENDBRANCH  22  24
ENDBRANCH   3  22
BRANCH   2  27
HETATM   27  C4  UNK     1      19.931  -3.908  36.817  1.00  0.00    -0.024 A 
HETATM   28  C12 UNK     1      19.399  -5.028  36.184  1.00  0.00     0.014 A 
HETATM   29  C17 UNK     1      19.948  -6.288  36.424  1.00  0.00     0.024 A 
HETATM   30  C20 UNK     1      21.026  -6.423  37.297  1.00  0.00     0.034 A 
HETATM   31  C18 UNK     1      21.557  -5.299  37.931  1.00  0.00     0.024 A 
HETATM   32 Cl1  UNK     1      21.703  -7.977  37.593  1.00  0.00    -0.084 Cl
HETATM   33  C13 UNK     1      21.007  -4.039  37.691  1.00  0.00     0.014 A 
ENDBRANCH   2  27
TORSDOF 6
ENDMDL
MODEL 2
REMARK VINA RESULT:      -9.1      7.326     10.609
REMARK  6 active torsions:
REMARK  status: ('A' for Active; 'I' for Inactive)
REMARK    1  A    between atoms: C11_20  and  O2_5 
REMARK    2  A    between atoms: C22_31  and  O2_5 
REMARK    3  A    between atoms: C3_12  and  N1_9 
REMARK       I    between atoms: C9_18  and  N1_9 
REMARK    4  A    between atoms: C1_10  and  C4_13 
REMARK    5  A    between atoms: C11_20  and  C2_11 
REMARK    6  A    between atoms: C6_15  and  C9_18 
ROOT
HETATM    1  S1  UNK     1      19.554   8.348  34.164  1.00  0.00    -0.082 SA
HETATM    2  C1  UNK     1      18.696   6.593  32.495  1.00  0.00    -0.000 A 
HETATM    3  C2  UNK     1      17.733   7.644  32.493  1.00  0.00     0.085 A 
HETATM    4  C3  UNK     1      18.090   8.635  33.350  1.00  0.00     0.094 A 
HETATM    5  C5  UNK     1      19.740   6.848  33.358  1.00  0.00     0.065 A 
ENDROOT
BRANCH   4   6
HETATM    6  N1  UNK     1      17.450   9.839  33.661  1.00  0.00    -0.316 N 
HETATM    7  C9  UNK     1      16.474  10.021  34.630  1.00  0.00     0.262 C 
HETATM    8  O3  UNK     1      15.986   9.188  35.393  1.00  0.00    -0.267 OA
HETATM    9  H2  UNK     1      17.770  10.634  33.115  1.00  0.00     0.169 HD
BRANCH   7  10
HETATM   10  C6  UNK     1      16.016  11.413  34.690  1.00  0.00     0.108 A 
HETATM   11  C14 UNK     1      16.961  12.553  34.692  1.00  0.00     0.304 A 
HETATM   12  O1  UNK     1      16.405  13.827  34.751  1.00  0.00    -0.274 OA
HETATM   13  O5  UNK     1      18.176  12.387  34.643  1.00  0.00    -0.259 OA
HETATM   14  C10 UNK     1      15.012  14.028  34.807  1.00  0.00     0.089 A 
HETATM   15  C7  UNK     1      14.140  12.943  34.804  1.00  0.00     0.000 A 
HETATM   16  C16 UNK     1      14.549  15.341  34.863  1.00  0.00     0.039 A 
HETATM   17  C15 UNK     1      12.766  13.184  34.861  1.00  0.00     0.033 A 
HETATM   18  C8  UNK     1      14.692  11.598  34.743  1.00  0.00     0.037 A 
HETATM   19  C19 UNK     1      12.286  14.496  34.918  1.00  0.00     0.011 A 
HETATM   20 Br1  UNK     1      10.424  14.815  34.993  1.00  0.00    -0.051 Br
HETATM   21  C21 UNK     1      13.177  15.572  34.920  1.00  0.00     0.022 A 
ENDBRANCH   7  10
ENDBRANCH   4   6
BRANCH   3  22
HETATM   22  C11 UNK     1      16.530   7.676  31.700  1.00  0.00     0.297 C 
HETATM   23  O4  UNK     1      16.323   8.494  30.792  1.00  0.00    -0.259 OA
BRANCH  22  24
HETATM   24  O2  UNK     1      15.610   6.708  32.040  1.00  0.00    -0.318 OA
BRANCH  24  25
HETATM   25  C22 UNK     1      14.238   7.115  32.106  1.00  0.00     0.174 C 
HETATM   26  C23 UNK     1      13.900   7.478  33.536  1.00  0.00     0.034 C 
ENDBRANCH  24  25
ENDBRANCH  22  24
ENDBRANCH   3  22
BRANCH   2  27
HETATM   27  C4  UNK     1      18.672   5.376  31.726  1.00  0.00    -0.024 A 
HETATM   28  C12 UNK     1      19.100   5.384  30.401  1.00  0.00     0.014 A 
HETATM   29  C17 UNK     1      19.076   4.205  29.655  1.00  0.00     0.024 A 
HETATM   30  C20 UNK     1      18.624   3.021  30.237  1.00  0.00     0.034 A 
HETATM   31  C18 UNK     1      18.195   3.016  31.565  1.00  0.00     0.024 A 
HETATM   32 Cl1  UNK     1      18.594   1.567  29.318  1.00  0.00    -0.084 Cl
HETATM   33  C13 UNK     1      18.219   4.195  32.310  1.00  0.00     0.014 A 
ENDBRANCH   2  27
TORSDOF 6
ENDMDL
MODEL 3
REMARK VINA RESULT:      -9.0      7.229     10.479
REMARK  6 active torsions:
REMARK  status: ('A' for Active; 'I' for Inactive)
REMARK    1  A    between atoms: C11_20  and  O2_5 
REMARK    2  A    between atoms: C22_31  and  O2_5 
REMARK    3  A    between atoms: C3_12  and  N1_9 
REMARK       I    between atoms: C9_18  and  N1_9 
REMARK    4  A    between atoms: C1_10  and  C4_13 
REMARK    5  A    between atoms: C11_20  and  C2_11 
REMARK    6  A    between atoms: C6_15  and  C9_18 
ROOT
HETATM    1  S1  UNK     1      19.578   8.276  34.167  1.00  0.00    -0.082 SA
HETATM    2  C1  UNK     1      18.698   6.534  32.496  1.00  0.00    -0.000 A 
HETATM    3  C2  UNK     1      17.755   7.602  32.487  1.00  0.00     0.085 A 
HETATM    4  C3  UNK     1      18.124   8.588  33.344  1.00  0.00     0.094 A 
HETATM    5  C5  UNK     1      19.741   6.772  33.365  1.00  0.00     0.065 A 
ENDROOT
BRANCH   4   6
HETATM    6  N1  UNK     1      17.504   9.804  33.649  1.00  0.00    -0.316 N 
HETATM    7  C9  UNK     1      16.526  10.005  34.612  1.00  0.00     0.262 C 
HETATM    8  O3  UNK     1      16.018   9.183  35.374  1.00  0.00    -0.267 OA
HETATM    9  H2  UNK     1      17.841  10.592  33.104  1.00  0.00     0.169 HD
BRANCH   7  10
HETATM   10  C6  UNK     1      16.092  11.405  34.668  1.00  0.00     0.108 A 
HETATM   11  C14 UNK     1      14.695  11.785  34.977  1.00  0.00     0.304 A 
HETATM   12  O1  UNK     1      14.407  13.146  35.002  1.00  0.00    -0.274 OA
HETATM   13  O5  UNK     1      13.830  10.944  35.203  1.00  0.00    -0.259 OA
HETATM   14  C10 UNK     1      15.393  14.120  34.745  1.00  0.00     0.089 A 
HETATM   15  C7  UNK     1      16.700  13.742  34.456  1.00  0.00     0.000 A 
HETATM   16  C16 UNK     1      15.009  15.458  34.793  1.00  0.00     0.039 A 
HETATM   17  C15 UNK     1      17.649  14.736  34.207  1.00  0.00     0.033 A 
HETATM   18  C8  UNK     1      17.033  12.325  34.424  1.00  0.00     0.037 A 
HETATM   19  C19 UNK     1      17.279  16.083  34.250  1.00  0.00     0.011 A 
HETATM   20 Br1  UNK     1      18.568  17.425  33.914  1.00  0.00    -0.051 Br
HETATM   21  C21 UNK     1      15.961  16.443  34.543  1.00  0.00     0.022 A 
ENDBRANCH   7  10
ENDBRANCH   4   6
BRANCH   3  22
HETATM   22  C11 UNK     1      16.557   7.655  31.687  1.00  0.00     0.297 C 
HETATM   23  O4  UNK     1      16.351   8.504  30.807  1.00  0.00    -0.259 OA
BRANCH  22  24
HETATM   24  O2  UNK     1      15.642   6.669  31.984  1.00  0.00    -0.318 OA
BRANCH  24  25
HETATM   25  C22 UNK     1      14.265   7.061  32.044  1.00  0.00     0.174 C 
HETATM   26  C23 UNK     1      13.937   7.500  33.455  1.00  0.00     0.034 C 
ENDBRANCH  24  25
ENDBRANCH  22  24
ENDBRANCH   3  22
BRANCH   2  27
HETATM   27  C4  UNK     1      18.657   5.317  31.728  1.00  0.00    -0.024 A 
HETATM   28  C12 UNK     1      19.062   5.322  30.396  1.00  0.00     0.014 A 
HETATM   29  C17 UNK     1      19.021   4.143  29.652  1.00  0.00     0.024 A 
HETATM   30  C20 UNK     1      18.575   2.961  30.243  1.00  0.00     0.034 A 
HETATM   31  C18 UNK     1      18.169   2.958  31.578  1.00  0.00     0.024 A 
HETATM   32 Cl1  UNK     1      18.525   1.507  29.326  1.00  0.00    -0.084 Cl
HETATM   33  C13 UNK     1      18.210   4.138  32.321  1.00  0.00     0.014 A 
ENDBRANCH   2  27
TORSDOF 6
ENDMDL
MODEL 4
REMARK VINA RESULT:      -9.0      7.330     10.678
REMARK  6 active torsions:
REMARK  status: ('A' for Active; 'I' for Inactive)
REMARK    1  A    between atoms: C11_20  and  O2_5 
REMARK    2  A    between atoms: C22_31  and  O2_5 
REMARK    3  A    between atoms: C3_12  and  N1_9 
REMARK       I    between atoms: C9_18  and  N1_9 
REMARK    4  A    between atoms: C1_10  and  C4_13 
REMARK    5  A    between atoms: C11_20  and  C2_11 
REMARK    6  A    between atoms: C6_15  and  C9_18 
ROOT
HETATM    1  S1  UNK     1      19.289   8.132  34.490  1.00  0.00    -0.082 SA
HETATM    2  C1  UNK     1      18.548   6.520  32.632  1.00  0.00    -0.000 A 
HETATM    3  C2  UNK     1      17.578   7.564  32.660  1.00  0.00     0.085 A 
HETATM    4  C3  UNK     1      17.874   8.481  33.616  1.00  0.00     0.094 A 
HETATM    5  C5  UNK     1      19.535   6.706  33.575  1.00  0.00     0.065 A 
ENDROOT
BRANCH   4   6
HETATM    6  N1  UNK     1      17.206   9.652  33.987  1.00  0.00    -0.316 N 
HETATM    7  C9  UNK     1      17.713  10.942  33.914  1.00  0.00     0.262 C 
HETATM    8  O3  UNK     1      18.819  11.310  33.520  1.00  0.00    -0.267 OA
HETATM    9  H2  UNK     1      16.257   9.504  34.320  1.00  0.00     0.169 HD
BRANCH   7  10
HETATM   10  C6  UNK     1      16.745  11.938  34.386  1.00  0.00     0.108 A 
HETATM   11  C14 UNK     1      16.853  13.371  34.029  1.00  0.00     0.304 A 
HETATM   12  O1  UNK     1      15.873  14.218  34.538  1.00  0.00    -0.274 OA
HETATM   13  O5  UNK     1      17.759  13.795  33.319  1.00  0.00    -0.259 OA
HETATM   14  C10 UNK     1      14.828  13.741  35.354  1.00  0.00     0.089 A 
HETATM   15  C7  UNK     1      14.745  12.390  35.677  1.00  0.00     0.000 A 
HETATM   16  C16 UNK     1      13.894  14.666  35.815  1.00  0.00     0.039 A 
HETATM   17  C15 UNK     1      13.694  11.956  36.488  1.00  0.00     0.033 A 
HETATM   18  C8  UNK     1      15.754  11.479  35.160  1.00  0.00     0.037 A 
HETATM   19  C19 UNK     1      12.749  12.872  36.960  1.00  0.00     0.011 A 
HETATM   20 Br1  UNK     1      11.327  12.277  38.056  1.00  0.00    -0.051 Br
HETATM   21  C21 UNK     1      12.849  14.224  36.623  1.00  0.00     0.022 A 
ENDBRANCH   7  10
ENDBRANCH   4   6
BRANCH   3  22
HETATM   22  C11 UNK     1      16.424   7.659  31.801  1.00  0.00     0.297 C 
HETATM   23  O4  UNK     1      16.288   8.520  30.919  1.00  0.00    -0.259 OA
BRANCH  22  24
HETATM   24  O2  UNK     1      15.466   6.699  32.044  1.00  0.00    -0.318 OA
BRANCH  24  25
HETATM   25  C22 UNK     1      14.141   7.166  32.328  1.00  0.00     0.174 C 
HETATM   26  C23 UNK     1      14.135   7.838  33.684  1.00  0.00     0.034 C 
ENDBRANCH  24  25
ENDBRANCH  22  24
ENDBRANCH   3  22
BRANCH   2  27
HETATM   27  C4  UNK     1      18.580   5.372  31.763  1.00  0.00    -0.024 A 
HETATM   28  C12 UNK     1      18.170   4.130  32.240  1.00  0.00     0.014 A 
HETATM   29  C17 UNK     1      18.203   3.017  31.399  1.00  0.00     0.024 A 
HETATM   30  C20 UNK     1      18.646   3.151  30.083  1.00  0.00     0.034 A 
HETATM   31  C18 UNK     1      19.057   4.396  29.608  1.00  0.00     0.024 A 
HETATM   32 Cl1  UNK     1      18.687   1.779  29.046  1.00  0.00    -0.084 Cl
HETATM   33  C13 UNK     1      19.025   5.509  30.450  1.00  0.00     0.014 A 
ENDBRANCH   2  27
TORSDOF 6
ENDMDL
MODEL 5
REMARK VINA RESULT:      -8.6     10.255     13.783
REMARK  6 active torsions:
REMARK  status: ('A' for Active; 'I' for Inactive)
REMARK    1  A    between atoms: C11_20  and  O2_5 
REMARK    2  A    between atoms: C22_31  and  O2_5 
REMARK    3  A    between atoms: C3_12  and  N1_9 
REMARK       I    between atoms: C9_18  and  N1_9 
REMARK    4  A    between atoms: C1_10  and  C4_13 
REMARK    5  A    between atoms: C11_20  and  C2_11 
REMARK    6  A    between atoms: C6_15  and  C9_18 
ROOT
HETATM    1  S1  UNK     1      29.611  -9.583  38.205  1.00  0.00    -0.082 SA
HETATM    2  C1  UNK     1      31.386  -8.225  36.937  1.00  0.00    -0.000 A 
HETATM    3  C2  UNK     1      30.205  -7.426  36.942  1.00  0.00     0.085 A 
HETATM    4  C3  UNK     1      29.192  -8.054  37.592  1.00  0.00     0.094 A 
HETATM    5  C5  UNK     1      31.202  -9.423  37.592  1.00  0.00     0.065 A 
ENDROOT
BRANCH   4   6
HETATM    6  N1  UNK     1      27.877  -7.644  37.834  1.00  0.00    -0.316 N 
HETATM    7  C9  UNK     1      27.200  -7.737  39.041  1.00  0.00     0.262 C 
HETATM    8  O3  UNK     1      27.603  -8.184  40.114  1.00  0.00    -0.267 OA
HETATM    9  H2  UNK     1      27.415  -7.229  37.030  1.00  0.00     0.169 HD
BRANCH   7  10
HETATM   10  C6  UNK     1      25.833  -7.213  38.943  1.00  0.00     0.108 A 
HETATM   11  C14 UNK     1      25.550  -5.762  38.871  1.00  0.00     0.304 A 
HETATM   12  O1  UNK     1      24.211  -5.390  38.779  1.00  0.00    -0.274 OA
HETATM   13  O5  UNK     1      26.446  -4.925  38.890  1.00  0.00    -0.259 OA
HETATM   14  C10 UNK     1      23.174  -6.343  38.757  1.00  0.00     0.089 A 
HETATM   15  C7  UNK     1      23.462  -7.702  38.825  1.00  0.00     0.000 A 
HETATM   16  C16 UNK     1      21.866  -5.873  38.662  1.00  0.00     0.039 A 
HETATM   17  C15 UNK     1      22.407  -8.616  38.800  1.00  0.00     0.033 A 
HETATM   18  C8  UNK     1      24.852  -8.124  38.921  1.00  0.00     0.037 A 
HETATM   19  C19 UNK     1      21.089  -8.161  38.706  1.00  0.00     0.011 A 
HETATM   20 Br1  UNK     1      19.663  -9.403  38.671  1.00  0.00    -0.051 Br
HETATM   21  C21 UNK     1      20.819  -6.791  38.637  1.00  0.00     0.022 A 
ENDBRANCH   7  10
ENDBRANCH   4   6
BRANCH   3  22
HETATM   22  C11 UNK     1      30.073  -6.122  36.342  1.00  0.00     0.297 C 
HETATM   23  O4  UNK     1      30.368  -5.870  35.164  1.00  0.00    -0.259 OA
BRANCH  22  24
HETATM   24  O2  UNK     1      29.584  -5.160  37.198  1.00  0.00    -0.318 OA
BRANCH  24  25
HETATM   25  C22 UNK     1      30.499  -4.630  38.165  1.00  0.00     0.174 C 
HETATM   26  C23 UNK     1      29.713  -4.006  39.298  1.00  0.00     0.034 C 
ENDBRANCH  24  25
ENDBRANCH  22  24
ENDBRANCH   3  22
BRANCH   2  27
HETATM   27  C4  UNK     1      32.661  -7.907  36.350  1.00  0.00    -0.024 A 
HETATM   28  C12 UNK     1      32.988  -8.401  35.090  1.00  0.00     0.014 A 
HETATM   29  C17 UNK     1      34.224  -8.094  34.522  1.00  0.00     0.024 A 
HETATM   30  C20 UNK     1      35.131  -7.293  35.216  1.00  0.00     0.034 A 
HETATM   31  C18 UNK     1      34.801  -6.799  36.478  1.00  0.00     0.024 A 
HETATM   32 Cl1  UNK     1      36.655  -6.914  34.514  1.00  0.00    -0.084 Cl
HETATM   33  C13 UNK     1      33.565  -7.107  37.046  1.00  0.00     0.014 A 
ENDBRANCH   2  27
TORSDOF 6
ENDMDL
MODEL 6
REMARK VINA RESULT:      -8.6      5.096     10.085
REMARK  6 active torsions:
REMARK  status: ('A' for Active; 'I' for Inactive)
REMARK    1  A    between atoms: C11_20  and  O2_5 
REMARK    2  A    between atoms: C22_31  and  O2_5 
REMARK    3  A    between atoms: C3_12  and  N1_9 
REMARK       I    between atoms: C9_18  and  N1_9 
REMARK    4  A    between atoms: C1_10  and  C4_13 
REMARK    5  A    between atoms: C11_20  and  C2_11 
REMARK    6  A    between atoms: C6_15  and  C9_18 
ROOT
HETATM    1  S1  UNK     1      17.625  -1.707  37.930  1.00  0.00    -0.082 SA
HETATM    2  C1  UNK     1      18.304  -0.075  36.065  1.00  0.00    -0.000 A 
HETATM    3  C2  UNK     1      18.756  -1.360  35.649  1.00  0.00     0.085 A 
HETATM    4  C3  UNK     1      18.447  -2.309  36.570  1.00  0.00     0.094 A 
HETATM    5  C5  UNK     1      17.670  -0.120  37.289  1.00  0.00     0.065 A 
ENDROOT
BRANCH   4   6
HETATM    6  N1  UNK     1      18.695  -3.685  36.572  1.00  0.00    -0.316 N 
HETATM    7  C9  UNK     1      19.837  -4.311  37.051  1.00  0.00     0.262 C 
HETATM    8  O3  UNK     1      20.836  -3.801  37.556  1.00  0.00    -0.267 OA
HETATM    9  H2  UNK     1      17.936  -4.247  36.195  1.00  0.00     0.169 HD
BRANCH   7  10
HETATM   10  C6  UNK     1      19.769  -5.768  36.897  1.00  0.00     0.108 A 
HETATM   11  C14 UNK     1      18.480  -6.498  36.888  1.00  0.00     0.304 A 
HETATM   12  O1  UNK     1      18.545  -7.880  36.734  1.00  0.00    -0.274 OA
HETATM   13  O5  UNK     1      17.406  -5.918  37.008  1.00  0.00    -0.259 OA
HETATM   14  C10 UNK     1      19.773  -8.556  36.594  1.00  0.00     0.089 A 
HETATM   15  C7  UNK     1      20.973  -7.850  36.605  1.00  0.00     0.000 A 
HETATM   16  C16 UNK     1      19.737  -9.940  36.445  1.00  0.00     0.039 A 
HETATM   17  C15 UNK     1      22.170  -8.557  36.463  1.00  0.00     0.033 A 
HETATM   18  C8  UNK     1      20.938  -6.404  36.764  1.00  0.00     0.037 A 
HETATM   19  C19 UNK     1      22.149  -9.946  36.314  1.00  0.00     0.011 A 
HETATM   20 Br1  UNK     1      23.773 -10.896  36.121  1.00  0.00    -0.051 Br
HETATM   21  C21 UNK     1      20.935 -10.636  36.304  1.00  0.00     0.022 A 
ENDBRANCH   7  10
ENDBRANCH   4   6
BRANCH   3  22
HETATM   22  C11 UNK     1      19.453  -1.646  34.419  1.00  0.00     0.297 C 
HETATM   23  O4  UNK     1      20.618  -2.064  34.368  1.00  0.00    -0.259 OA
BRANCH  22  24
HETATM   24  O2  UNK     1      18.705  -1.412  33.286  1.00  0.00    -0.318 OA
BRANCH  24  25
HETATM   25  C22 UNK     1      19.378  -1.547  32.028  1.00  0.00     0.174 C 
HETATM   26  C23 UNK     1      19.469  -0.188  31.369  1.00  0.00     0.034 C 
ENDBRANCH  24  25
ENDBRANCH  22  24
ENDBRANCH   3  22
BRANCH   2  27
HETATM   27  C4  UNK     1      18.443   1.177  35.366  1.00  0.00    -0.024 A 
HETATM   28  C12 UNK     1      19.232   2.189  35.905  1.00  0.00     0.014 A 
HETATM   29  C17 UNK     1      19.366   3.401  35.229  1.00  0.00     0.024 A 
HETATM   30  C20 UNK     1      18.709   3.598  34.014  1.00  0.00     0.034 A 
HETATM   31  C18 UNK     1      17.917   2.582  33.477  1.00  0.00     0.024 A 
HETATM   32 Cl1  UNK     1      18.874   5.093  33.180  1.00  0.00    -0.084 Cl
HETATM   33  C13 UNK     1      17.784   1.370  34.154  1.00  0.00     0.014 A 
ENDBRANCH   2  27
TORSDOF 6
ENDMDL
MODEL 7
REMARK VINA RESULT:      -8.5      1.746      2.396
REMARK  6 active torsions:
REMARK  status: ('A' for Active; 'I' for Inactive)
REMARK    1  A    between atoms: C11_20  and  O2_5 
REMARK    2  A    between atoms: C22_31  and  O2_5 
REMARK    3  A    between atoms: C3_12  and  N1_9 
REMARK       I    between atoms: C9_18  and  N1_9 
REMARK    4  A    between atoms: C1_10  and  C4_13 
REMARK    5  A    between atoms: C11_20  and  C2_11 
REMARK    6  A    between atoms: C6_15  and  C9_18 
ROOT
HETATM    1  S1  UNK     1      17.715  -2.181  37.078  1.00  0.00    -0.082 SA
HETATM    2  C1  UNK     1      19.418  -3.963  36.355  1.00  0.00    -0.000 A 
HETATM    3  C2  UNK     1      19.787  -2.766  35.677  1.00  0.00     0.085 A 
HETATM    4  C3  UNK     1      18.945  -1.748  35.988  1.00  0.00     0.094 A 
HETATM    5  C5  UNK     1      18.308  -3.785  37.152  1.00  0.00     0.065 A 
ENDROOT
BRANCH   4   6
HETATM    6  N1  UNK     1      18.933  -0.417  35.559  1.00  0.00    -0.316 N 
HETATM    7  C9  UNK     1      18.039   0.146  34.659  1.00  0.00     0.262 C 
HETATM    8  O3  UNK     1      17.102  -0.392  34.071  1.00  0.00    -0.267 OA
HETATM    9  H2  UNK     1      19.652   0.164  35.982  1.00  0.00     0.169 HD
BRANCH   7  10
HETATM   10  C6  UNK     1      18.315   1.569  34.431  1.00  0.00     0.108 A 
HETATM   11  C14 UNK     1      18.661   2.490  35.537  1.00  0.00     0.304 A 
HETATM   12  O1  UNK     1      18.902   3.817  35.194  1.00  0.00    -0.274 OA
HETATM   13  O5  UNK     1      18.733   2.107  36.701  1.00  0.00    -0.259 OA
HETATM   14  C10 UNK     1      18.822   4.267  33.862  1.00  0.00     0.089 A 
HETATM   15  C7  UNK     1      18.496   3.384  32.836  1.00  0.00     0.000 A 
HETATM   16  C16 UNK     1      19.081   5.613  33.617  1.00  0.00     0.039 A 
HETATM   17  C15 UNK     1      18.427   3.869  31.528  1.00  0.00     0.033 A 
HETATM   18  C8  UNK     1      18.239   1.990  33.163  1.00  0.00     0.037 A 
HETATM   19  C19 UNK     1      18.683   5.217  31.266  1.00  0.00     0.011 A 
HETATM   20 Br1  UNK     1      18.590   5.866  29.492  1.00  0.00    -0.051 Br
HETATM   21  C21 UNK     1      19.010   6.088  32.309  1.00  0.00     0.022 A 
ENDBRANCH   7  10
ENDBRANCH   4   6
BRANCH   3  22
HETATM   22  C11 UNK     1      20.901  -2.624  34.771  1.00  0.00     0.297 C 
HETATM   23  O4  UNK     1      21.943  -2.013  35.049  1.00  0.00    -0.259 OA
BRANCH  22  24
HETATM   24  O2  UNK     1      20.709  -3.234  33.551  1.00  0.00    -0.318 OA
BRANCH  24  25
HETATM   25  C22 UNK     1      21.009  -2.456  32.386  1.00  0.00     0.174 C 
HETATM   26  C23 UNK     1      19.783  -1.660  31.995  1.00  0.00     0.034 C 
ENDBRANCH  24  25
ENDBRANCH  22  24
ENDBRANCH   3  22
BRANCH   2  27
HETATM   27  C4  UNK     1      20.062  -5.250  36.284  1.00  0.00    -0.024 A 
HETATM   28  C12 UNK     1      20.898  -5.665  37.317  1.00  0.00     0.014 A 
HETATM   29  C17 UNK     1      21.522  -6.911  37.248  1.00  0.00     0.024 A 
HETATM   30  C20 UNK     1      21.308  -7.737  36.145  1.00  0.00     0.034 A 
HETATM   31  C18 UNK     1      20.470  -7.318  35.111  1.00  0.00     0.024 A 
HETATM   32 Cl1  UNK     1      22.077  -9.274  36.059  1.00  0.00    -0.084 Cl
HETATM   33  C13 UNK     1      19.846  -6.072  35.181  1.00  0.00     0.014 A 
ENDBRANCH   2  27
TORSDOF 6
ENDMDL
MODEL 8
REMARK VINA RESULT:      -8.5     18.599     21.511
REMARK  6 active torsions:
REMARK  status: ('A' for Active; 'I' for Inactive)
REMARK    1  A    between atoms: C11_20  and  O2_5 
REMARK    2  A    between atoms: C22_31  and  O2_5 
REMARK    3  A    between atoms: C3_12  and  N1_9 
REMARK       I    between atoms: C9_18  and  N1_9 
REMARK    4  A    between atoms: C1_10  and  C4_13 
REMARK    5  A    between atoms: C11_20  and  C2_11 
REMARK    6  A    between atoms: C6_15  and  C9_18 
ROOT
HETATM    1  S1  UNK     1      20.601  -5.632  15.074  1.00  0.00    -0.082 SA
HETATM    2  C1  UNK     1      20.377  -6.179  12.574  1.00  0.00    -0.000 A 
HETATM    3  C2  UNK     1      20.088  -4.789  12.702  1.00  0.00     0.085 A 
HETATM    4  C3  UNK     1      20.178  -4.388  13.996  1.00  0.00     0.094 A 
HETATM    5  C5  UNK     1      20.674  -6.760  13.788  1.00  0.00     0.065 A 
ENDROOT
BRANCH   4   6
HETATM    6  N1  UNK     1      19.981  -3.129  14.570  1.00  0.00    -0.316 N 
HETATM    7  C9  UNK     1      18.870  -2.726  15.298  1.00  0.00     0.262 C 
HETATM    8  O3  UNK     1      17.862  -3.371  15.580  1.00  0.00    -0.267 OA
HETATM    9  H2  UNK     1      20.754  -2.483  14.434  1.00  0.00     0.169 HD
BRANCH   7  10
HETATM   10  C6  UNK     1      18.991  -1.337  15.754  1.00  0.00     0.108 A 
HETATM   11  C14 UNK     1      19.141  -0.208  14.808  1.00  0.00     0.304 A 
HETATM   12  O1  UNK     1      19.244   1.064  15.363  1.00  0.00    -0.274 OA
HETATM   13  O5  UNK     1      19.171  -0.380  13.594  1.00  0.00    -0.259 OA
HETATM   14  C10 UNK     1      19.210   1.273  16.756  1.00  0.00     0.089 A 
HETATM   15  C7  UNK     1      19.067   0.198  17.628  1.00  0.00     0.000 A 
HETATM   16  C16 UNK     1      19.320   2.583  17.217  1.00  0.00     0.039 A 
HETATM   17  C15 UNK     1      19.037   0.446  19.002  1.00  0.00     0.033 A 
HETATM   18  C8  UNK     1      18.956  -1.144  17.079  1.00  0.00     0.037 A 
HETATM   19  C19 UNK     1      19.148   1.755  19.480  1.00  0.00     0.011 A 
HETATM   20 Br1  UNK     1      19.105   2.084  21.342  1.00  0.00    -0.051 Br
HETATM   21  C21 UNK     1      19.289   2.821  18.589  1.00  0.00     0.022 A 
ENDBRANCH   7  10
ENDBRANCH   4   6
BRANCH   3  22
HETATM   22  C11 UNK     1      19.741  -3.902  11.619  1.00  0.00     0.297 C 
HETATM   23  O4  UNK     1      18.652  -3.319  11.526  1.00  0.00    -0.259 OA
BRANCH  22  24
HETATM   24  O2  UNK     1      20.738  -3.752  10.679  1.00  0.00    -0.318 OA
BRANCH  24  25
HETATM   25  C22 UNK     1      20.331  -3.353   9.364  1.00  0.00     0.174 C 
HETATM   26  C23 UNK     1      20.181  -4.587   8.500  1.00  0.00     0.034 C 
ENDBRANCH  24  25
ENDBRANCH  22  24
ENDBRANCH   3  22
BRANCH   2  27
HETATM   27  C4  UNK     1      20.384  -6.970  11.370  1.00  0.00    -0.024 A 
HETATM   28  C12 UNK     1      19.180  -7.356  10.786  1.00  0.00     0.014 A 
HETATM   29  C17 UNK     1      19.187  -8.123   9.621  1.00  0.00     0.024 A 
HETATM   30  C20 UNK     1      20.399  -8.501   9.043  1.00  0.00     0.034 A 
HETATM   31  C18 UNK     1      21.603  -8.113   9.630  1.00  0.00     0.024 A 
HETATM   32 Cl1  UNK     1      20.407  -9.447   7.606  1.00  0.00    -0.084 Cl
HETATM   33  C13 UNK     1      21.596  -7.347  10.796  1.00  0.00     0.014 A 
ENDBRANCH   2  27
TORSDOF 6
ENDMDL
MODEL 9
REMARK VINA RESULT:      -8.3      4.982      9.976
REMARK  6 active torsions:
REMARK  status: ('A' for Active; 'I' for Inactive)
REMARK    1  A    between atoms: C11_20  and  O2_5 
REMARK    2  A    between atoms: C22_31  and  O2_5 
REMARK    3  A    between atoms: C3_12  and  N1_9 
REMARK       I    between atoms: C9_18  and  N1_9 
REMARK    4  A    between atoms: C1_10  and  C4_13 
REMARK    5  A    between atoms: C11_20  and  C2_11 
REMARK    6  A    between atoms: C6_15  and  C9_18 
ROOT
HETATM    1  S1  UNK     1      19.804  -1.293  31.289  1.00  0.00    -0.082 SA
HETATM    2  C1  UNK     1      19.023   1.105  31.782  1.00  0.00    -0.000 A 
HETATM    3  C2  UNK     1      18.792   0.361  32.975  1.00  0.00     0.085 A 
HETATM    4  C3  UNK     1      19.172  -0.934  32.826  1.00  0.00     0.094 A 
HETATM    5  C5  UNK     1      19.571   0.327  30.785  1.00  0.00     0.065 A 
ENDROOT
BRANCH   4   6
HETATM    6  N1  UNK     1      19.128  -2.002  33.727  1.00  0.00    -0.316 N 
HETATM    7  C9  UNK     1      20.186  -2.475  34.489  1.00  0.00     0.262 C 
HETATM    8  O3  UNK     1      21.346  -2.065  34.529  1.00  0.00    -0.267 OA
HETATM    9  H2  UNK     1      18.212  -2.435  33.816  1.00  0.00     0.169 HD
BRANCH   7  10
HETATM   10  C6  UNK     1      19.792  -3.611  35.329  1.00  0.00     0.108 A 
HETATM   11  C14 UNK     1      18.820  -3.470  36.437  1.00  0.00     0.304 A 
HETATM   12  O1  UNK     1      18.525  -4.622  37.161  1.00  0.00    -0.274 OA
HETATM   13  O5  UNK     1      18.297  -2.394  36.707  1.00  0.00    -0.259 OA
HETATM   14  C10 UNK     1      19.120  -5.863  36.859  1.00  0.00     0.089 A 
HETATM   15  C7  UNK     1      20.030  -5.974  35.812  1.00  0.00     0.000 A 
HETATM   16  C16 UNK     1      18.761  -6.959  37.639  1.00  0.00     0.039 A 
HETATM   17  C15 UNK     1      20.598  -7.221  35.544  1.00  0.00     0.033 A 
HETATM   18  C8  UNK     1      20.359  -4.788  35.036  1.00  0.00     0.037 A 
HETATM   19  C19 UNK     1      20.249  -8.331  36.319  1.00  0.00     0.011 A 
HETATM   20 Br1  UNK     1      21.021 -10.018  35.949  1.00  0.00    -0.051 Br
HETATM   21  C21 UNK     1      19.332  -8.200  37.365  1.00  0.00     0.022 A 
ENDBRANCH   7  10
ENDBRANCH   4   6
BRANCH   3  22
HETATM   22  C11 UNK     1      18.229   0.885  34.195  1.00  0.00     0.297 C 
HETATM   23  O4  UNK     1      18.907   1.276  35.156  1.00  0.00    -0.259 OA
BRANCH  22  24
HETATM   24  O2  UNK     1      16.851   0.918  34.205  1.00  0.00    -0.318 OA
BRANCH  24  25
HETATM   25  C22 UNK     1      16.187  -0.085  34.984  1.00  0.00     0.174 C 
HETATM   26  C23 UNK     1      15.662   0.547  36.255  1.00  0.00     0.034 C 
ENDBRANCH  24  25
ENDBRANCH  22  24
ENDBRANCH   3  22
BRANCH   2  27
HETATM   27  C4  UNK     1      18.751   2.499  31.547  1.00  0.00    -0.024 A 
HETATM   28  C12 UNK     1      18.970   3.046  30.286  1.00  0.00     0.014 A 
HETATM   29  C17 UNK     1      18.708   4.397  30.059  1.00  0.00     0.024 A 
HETATM   30  C20 UNK     1      18.227   5.198  31.095  1.00  0.00     0.034 A 
HETATM   31  C18 UNK     1      18.008   4.647  32.358  1.00  0.00     0.024 A 
HETATM   32 Cl1  UNK     1      17.903   6.864  30.815  1.00  0.00    -0.084 Cl
HETATM   33  C13 UNK     1      18.271   3.296  32.585  1.00  0.00     0.014 A 
ENDBRANCH   2  27
TORSDOF 6
ENDMDL
MODEL 10
REMARK VINA RESULT:      -8.3      7.845     11.260
REMARK  6 active torsions:
REMARK  status: ('A' for Active; 'I' for Inactive)
REMARK    1  A    between atoms: C11_20  and  O2_5 
REMARK    2  A    between atoms: C22_31  and  O2_5 
REMARK    3  A    between atoms: C3_12  and  N1_9 
REMARK       I    between atoms: C9_18  and  N1_9 
REMARK    4  A    between atoms: C1_10  and  C4_13 
REMARK    5  A    between atoms: C11_20  and  C2_11 
REMARK    6  A    between atoms: C6_15  and  C9_18 
ROOT
HETATM    1  S1  UNK     1      19.332   8.995  34.496  1.00  0.00    -0.082 SA
HETATM    2  C1  UNK     1      18.593   7.241  32.770  1.00  0.00    -0.000 A 
HETATM    3  C2  UNK     1      17.588   8.252  32.762  1.00  0.00     0.085 A 
HETATM    4  C3  UNK     1      17.879   9.239  33.648  1.00  0.00     0.094 A 
HETATM    5  C5  UNK     1      19.601   7.521  33.667  1.00  0.00     0.065 A 
ENDROOT
BRANCH   4   6
HETATM    6  N1  UNK     1      17.182  10.408  33.964  1.00  0.00    -0.316 N 
HETATM    7  C9  UNK     1      17.671  11.703  33.872  1.00  0.00     0.262 C 
HETATM    8  O3  UNK     1      18.784  12.079  33.505  1.00  0.00    -0.267 OA
HETATM    9  H2  UNK     1      16.224  10.254  34.269  1.00  0.00     0.169 HD
BRANCH   7  10
HETATM   10  C6  UNK     1      16.673  12.696  34.284  1.00  0.00     0.108 A 
HETATM   11  C14 UNK     1      15.665  12.410  35.331  1.00  0.00     0.304 A 
HETATM   12  O1  UNK     1      14.772  13.433  35.635  1.00  0.00    -0.274 OA
HETATM   13  O5  UNK     1      15.617  11.327  35.905  1.00  0.00    -0.259 OA
HETATM   14  C10 UNK     1      14.819  14.681  34.982  1.00  0.00     0.089 A 
HETATM   15  C7  UNK     1      15.774  14.929  34.002  1.00  0.00     0.000 A 
HETATM   16  C16 UNK     1      13.883  15.642  35.356  1.00  0.00     0.039 A 
HETATM   17  C15 UNK     1      15.789  16.178  33.378  1.00  0.00     0.033 A 
HETATM   18  C8  UNK     1      16.723  13.879  33.661  1.00  0.00     0.037 A 
HETATM   19  C19 UNK     1      14.856  17.153  33.741  1.00  0.00     0.011 A 
HETATM   20 Br1  UNK     1      14.882  18.844  32.893  1.00  0.00    -0.051 Br
HETATM   21  C21 UNK     1      13.905  16.886  34.728  1.00  0.00     0.022 A 
ENDBRANCH   7  10
ENDBRANCH   4   6
BRANCH   3  22
HETATM   22  C11 UNK     1      16.406   8.252  31.936  1.00  0.00     0.297 C 
HETATM   23  O4  UNK     1      16.428   8.190  30.698  1.00  0.00    -0.259 OA
BRANCH  22  24
HETATM   24  O2  UNK     1      15.228   8.329  32.647  1.00  0.00    -0.318 OA
BRANCH  24  25
HETATM   25  C22 UNK     1      14.270   7.286  32.425  1.00  0.00     0.174 C 
HETATM   26  C23 UNK     1      13.610   6.936  33.742  1.00  0.00     0.034 C 
ENDBRANCH  24  25
ENDBRANCH  22  24
ENDBRANCH   3  22
BRANCH   2  27
HETATM   27  C4  UNK     1      18.640   6.041  31.976  1.00  0.00    -0.024 A 
HETATM   28  C12 UNK     1      18.102   4.858  32.475  1.00  0.00     0.014 A 
HETATM   29  C17 UNK     1      18.149   3.694  31.707  1.00  0.00     0.024 A 
HETATM   30  C20 UNK     1      18.735   3.718  30.441  1.00  0.00     0.034 A 
HETATM   31  C18 UNK     1      19.275   4.904  29.944  1.00  0.00     0.024 A 
HETATM   32 Cl1  UNK     1      18.794   2.283  29.494  1.00  0.00    -0.084 Cl
HETATM   33  C13 UNK     1      19.228   6.068  30.713  1.00  0.00     0.014 A 
ENDBRANCH   2  27
TORSDOF 6
ENDMDL
