MODEL 1
REMARK VINA RESULT:      -7.7      0.000      0.000
REMARK  5 active torsions:
REMARK  status: ('A' for Active; 'I' for Inactive)
REMARK    1  A    between atoms: C12_20  and  O3_5 
REMARK    2  A    between atoms: C20_28  and  O3_5 
REMARK    3  A    between atoms: C7_15  and  N1_8 
REMARK    4  A    between atoms: C1_9  and  C5_13 
REMARK    5  A    between atoms: C12_20  and  C3_11 
ROOT
HETATM    1  O1  UNK     1      30.298  -5.890  33.666  1.00  0.00    -0.292 OA
HETATM    2  O2  UNK     1      29.127  -9.687  32.354  1.00  0.00    -0.274 OA
HETATM    3  O4  UNK     1      30.489 -10.649  33.910  1.00  0.00    -0.259 OA
HETATM    4  C1  UNK     1      31.352  -8.161  35.074  1.00  0.00     0.104 C 
HETATM    5  C2  UNK     1      30.405  -8.273  33.893  1.00  0.00     0.066 A 
HETATM    6  C3  UNK     1      31.853  -6.738  35.260  1.00  0.00     0.081 C 
HETATM    7  C4  UNK     1      29.938  -7.171  33.285  1.00  0.00     0.104 A 
HETATM    8  C6  UNK     1      29.001  -7.265  32.169  1.00  0.00     0.033 A 
HETATM    9  C7  UNK     1      31.328  -5.691  34.589  1.00  0.00     0.155 C 
HETATM   10  C8  UNK     1      30.031  -9.627  33.409  1.00  0.00     0.298 A 
HETATM   11  C9  UNK     1      28.615  -8.529  31.737  1.00  0.00     0.092 A 
HETATM   12  C13 UNK     1      28.464  -6.151  31.512  1.00  0.00     0.017 A 
HETATM   13  C14 UNK     1      27.721  -8.713  30.683  1.00  0.00     0.038 A 
HETATM   14  C17 UNK     1      27.566  -6.317  30.453  1.00  0.00     0.001 A 
HETATM   15  C19 UNK     1      27.194  -7.597  30.040  1.00  0.00     0.003 A 
ENDROOT
BRANCH   4  16
HETATM   16  C5  UNK     1      30.684  -8.643  36.328  1.00  0.00    -0.043 A 
HETATM   17  C10 UNK     1      29.427  -8.156  36.670  1.00  0.00     0.030 A 
HETATM   18  C15 UNK     1      28.808  -8.603  37.836  1.00  0.00     0.050 A 
HETATM   19 Br1  UNK     1      27.098  -7.941  38.302  1.00  0.00    -0.048 Br
HETATM   20  C18 UNK     1      29.449  -9.535  38.653  1.00  0.00     0.133 A 
HETATM   21  C16 UNK     1      30.710 -10.018  38.305  1.00  0.00     0.044 A 
HETATM   22  F1  UNK     1      28.867  -9.977  39.778  1.00  0.00    -0.205 F 
HETATM   23  C11 UNK     1      31.329  -9.571  37.138  1.00  0.00     0.011 A 
ENDBRANCH   4  16
BRANCH   6  24
HETATM   24  C12 UNK     1      32.974  -6.555  36.199  1.00  0.00     0.294 C 
HETATM   25  O5  UNK     1      33.992  -7.219  36.158  1.00  0.00    -0.259 OA
BRANCH  24  26
HETATM   26  O3  UNK     1      32.654  -5.558  37.056  1.00  0.00    -0.318 OA
BRANCH  26  27
HETATM   27  C20 UNK     1      32.056  -5.985  38.284  1.00  0.00     0.174 C 
HETATM   28  C21 UNK     1      30.754  -5.240  38.486  1.00  0.00     0.034 C 
ENDBRANCH  26  27
ENDBRANCH  24  26
ENDBRANCH   6  24
BRANCH   9  29
HETATM   29  N1  UNK     1      31.704  -4.382  34.704  1.00  0.00    -0.379 N 
HETATM   30  H7  UNK     1      32.588  -4.090  34.307  1.00  0.00     0.158 HD
HETATM   31  H8  UNK     1      31.112  -3.715  35.180  1.00  0.00     0.158 HD
ENDBRANCH   9  29
TORSDOF 5
ENDMDL
MODEL 2
REMARK VINA RESULT:      -7.7      5.057      8.053
REMARK  5 active torsions:
REMARK  status: ('A' for Active; 'I' for Inactive)
REMARK    1  A    between atoms: C12_20  and  O3_5 
REMARK    2  A    between atoms: C20_28  and  O3_5 
REMARK    3  A    between atoms: C7_15  and  N1_8 
REMARK    4  A    between atoms: C1_9  and  C5_13 
REMARK    5  A    between atoms: C12_20  and  C3_11 
ROOT
HETATM    1  O1  UNK     1      33.111 -11.216  30.931  1.00  0.00    -0.292 OA
HETATM    2  O2  UNK     1      35.922  -8.120  31.084  1.00  0.00    -0.274 OA
HETATM    3  O4  UNK     1      34.604  -6.851  29.722  1.00  0.00    -0.259 OA
HETATM    4  C1  UNK     1      32.467  -8.774  29.562  1.00  0.00     0.104 C 
HETATM    5  C2  UNK     1      33.761  -8.991  30.326  1.00  0.00     0.066 A 
HETATM    6  C3  UNK     1      31.681 -10.066  29.412  1.00  0.00     0.081 C 
HETATM    7  C4  UNK     1      33.997 -10.153  30.955  1.00  0.00     0.104 A 
HETATM    8  C6  UNK     1      35.223 -10.361  31.720  1.00  0.00     0.033 A 
HETATM    9  C7  UNK     1      32.005 -11.194  30.078  1.00  0.00     0.155 C 
HETATM   10  C8  UNK     1      34.770  -7.900  30.336  1.00  0.00     0.298 A 
HETATM   11  C9  UNK     1      36.154  -9.329  31.768  1.00  0.00     0.092 A 
HETATM   12  C13 UNK     1      35.512 -11.543  32.414  1.00  0.00     0.017 A 
HETATM   13  C14 UNK     1      37.348  -9.439  32.478  1.00  0.00     0.038 A 
HETATM   14  C17 UNK     1      36.705 -11.669  33.131  1.00  0.00     0.001 A 
HETATM   15  C19 UNK     1      37.622 -10.618  33.165  1.00  0.00     0.003 A 
ENDROOT
BRANCH   4  16
HETATM   16  C5  UNK     1      31.627  -7.732  30.241  1.00  0.00    -0.043 A 
HETATM   17  C10 UNK     1      31.336  -7.857  31.595  1.00  0.00     0.030 A 
HETATM   18  C15 UNK     1      30.555  -6.889  32.225  1.00  0.00     0.050 A 
HETATM   19 Br1  UNK     1      30.158  -7.058  34.066  1.00  0.00    -0.048 Br
HETATM   20  C18 UNK     1      30.068  -5.803  31.496  1.00  0.00     0.133 A 
HETATM   21  C16 UNK     1      30.363  -5.685  30.139  1.00  0.00     0.044 A 
HETATM   22  F1  UNK     1      29.316  -4.862  32.086  1.00  0.00    -0.205 F 
HETATM   23  C11 UNK     1      31.146  -6.653  29.509  1.00  0.00     0.011 A 
ENDBRANCH   4  16
BRANCH   6  24
HETATM   24  C12 UNK     1      30.549 -10.038  28.468  1.00  0.00     0.294 C 
HETATM   25  O5  UNK     1      30.682  -9.857  27.273  1.00  0.00    -0.259 OA
BRANCH  24  26
HETATM   26  O3  UNK     1      29.407 -10.244  29.166  1.00  0.00    -0.318 OA
BRANCH  26  27
HETATM   27  C20 UNK     1      28.396  -9.248  28.978  1.00  0.00     0.174 C 
HETATM   28  C21 UNK     1      27.917  -8.770  30.333  1.00  0.00     0.034 C 
ENDBRANCH  26  27
ENDBRANCH  24  26
ENDBRANCH   6  24
BRANCH   9  29
HETATM   29  N1  UNK     1      31.348 -12.391  30.015  1.00  0.00    -0.379 N 
HETATM   30  H7  UNK     1      31.889 -13.244  29.946  1.00  0.00     0.158 HD
HETATM   31  H8  UNK     1      30.338 -12.427  30.034  1.00  0.00     0.158 HD
ENDBRANCH   9  29
TORSDOF 5
ENDMDL
MODEL 3
REMARK VINA RESULT:      -7.6      1.151      1.638
REMARK  5 active torsions:
REMARK  status: ('A' for Active; 'I' for Inactive)
REMARK    1  A    between atoms: C12_20  and  O3_5 
REMARK    2  A    between atoms: C20_28  and  O3_5 
REMARK    3  A    between atoms: C7_15  and  N1_8 
REMARK    4  A    between atoms: C1_9  and  C5_13 
REMARK    5  A    between atoms: C12_20  and  C3_11 
ROOT
HETATM    1  O1  UNK     1      29.921  -5.897  34.729  1.00  0.00    -0.292 OA
HETATM    2  O2  UNK     1      29.158  -9.679  33.110  1.00  0.00    -0.274 OA
HETATM    3  O4  UNK     1      30.266 -10.651  34.850  1.00  0.00    -0.259 OA
HETATM    4  C1  UNK     1      30.806  -8.181  36.227  1.00  0.00     0.104 C 
HETATM    5  C2  UNK     1      30.086  -8.281  34.895  1.00  0.00     0.066 A 
HETATM    6  C3  UNK     1      31.205  -6.749  36.544  1.00  0.00     0.081 C 
HETATM    7  C4  UNK     1      29.687  -7.174  34.249  1.00  0.00     0.104 A 
HETATM    8  C6  UNK     1      28.965  -7.258  32.983  1.00  0.00     0.033 A 
HETATM    9  C7  UNK     1      30.763  -5.697  35.824  1.00  0.00     0.155 C 
HETATM   10  C8  UNK     1      29.860  -9.628  34.310  1.00  0.00     0.298 A 
HETATM   11  C9  UNK     1      28.715  -8.518  32.449  1.00  0.00     0.092 A 
HETATM   12  C13 UNK     1      28.506  -6.139  32.277  1.00  0.00     0.017 A 
HETATM   13  C14 UNK     1      28.027  -8.692  31.248  1.00  0.00     0.038 A 
HETATM   14  C17 UNK     1      27.815  -6.296  31.071  1.00  0.00     0.001 A 
HETATM   15  C19 UNK     1      27.575  -7.572  30.558  1.00  0.00     0.003 A 
ENDROOT
BRANCH   4  16
HETATM   16  C5  UNK     1      29.949  -8.735  37.327  1.00  0.00    -0.043 A 
HETATM   17  C10 UNK     1      28.629  -8.314  37.451  1.00  0.00     0.030 A 
HETATM   18  C15 UNK     1      27.834  -8.828  38.474  1.00  0.00     0.050 A 
HETATM   19 Br1  UNK     1      26.039  -8.256  38.643  1.00  0.00    -0.048 Br
HETATM   20  C18 UNK     1      28.363  -9.760  39.368  1.00  0.00     0.133 A 
HETATM   21  C16 UNK     1      29.688 -10.176  39.239  1.00  0.00     0.044 A 
HETATM   22  F1  UNK     1      27.613 -10.266  40.358  1.00  0.00    -0.205 F 
HETATM   23  C11 UNK     1      30.483  -9.663  38.215  1.00  0.00     0.011 A 
ENDBRANCH   4  16
BRANCH   6  24
HETATM   24  C12 UNK     1      32.136  -6.563  37.672  1.00  0.00     0.294 C 
HETATM   25  O5  UNK     1      31.839  -5.968  38.690  1.00  0.00    -0.259 OA
BRANCH  24  26
HETATM   26  O3  UNK     1      33.311  -7.158  37.357  1.00  0.00    -0.318 OA
BRANCH  26  27
HETATM   27  C20 UNK     1      34.470  -6.334  37.525  1.00  0.00     0.174 C 
HETATM   28  C21 UNK     1      34.921  -5.833  36.170  1.00  0.00     0.034 C 
ENDBRANCH  26  27
ENDBRANCH  24  26
ENDBRANCH   6  24
BRANCH   9  29
HETATM   29  N1  UNK     1      31.058  -4.381  36.046  1.00  0.00    -0.379 N 
HETATM   30  H7  UNK     1      30.343  -3.684  35.878  1.00  0.00     0.158 HD
HETATM   31  H8  UNK     1      31.974  -4.105  36.371  1.00  0.00     0.158 HD
ENDBRANCH   9  29
TORSDOF 5
ENDMDL
MODEL 4
REMARK VINA RESULT:      -7.3      2.961      4.229
REMARK  5 active torsions:
REMARK  status: ('A' for Active; 'I' for Inactive)
REMARK    1  A    between atoms: C12_20  and  O3_5 
REMARK    2  A    between atoms: C20_28  and  O3_5 
REMARK    3  A    between atoms: C7_15  and  N1_8 
REMARK    4  A    between atoms: C1_9  and  C5_13 
REMARK    5  A    between atoms: C12_20  and  C3_11 
ROOT
HETATM    1  O1  UNK     1      30.822 -10.464  33.418  1.00  0.00    -0.292 OA
HETATM    2  O2  UNK     1      28.132  -7.849  31.564  1.00  0.00    -0.274 OA
HETATM    3  O4  UNK     1      27.824  -6.758  33.542  1.00  0.00    -0.259 OA
HETATM    4  C1  UNK     1      29.726  -8.341  35.012  1.00  0.00     0.104 C 
HETATM    5  C2  UNK     1      29.379  -8.556  33.551  1.00  0.00     0.066 A 
HETATM    6  C3  UNK     1      30.520  -9.507  35.578  1.00  0.00     0.081 C 
HETATM    7  C4  UNK     1      29.935  -9.561  32.856  1.00  0.00     0.104 A 
HETATM    8  C6  UNK     1      29.634  -9.758  31.441  1.00  0.00     0.033 A 
HETATM    9  C7  UNK     1      31.030 -10.484  34.799  1.00  0.00     0.155 C 
HETATM   10  C8  UNK     1      28.390  -7.647  32.915  1.00  0.00     0.298 A 
HETATM   11  C9  UNK     1      28.739  -8.887  30.830  1.00  0.00     0.092 A 
HETATM   12  C13 UNK     1      30.201 -10.775  30.663  1.00  0.00     0.017 A 
HETATM   13  C14 UNK     1      28.398  -8.997  29.482  1.00  0.00     0.038 A 
HETATM   14  C17 UNK     1      29.869 -10.900  29.310  1.00  0.00     0.001 A 
HETATM   15  C19 UNK     1      28.970 -10.011  28.720  1.00  0.00     0.003 A 
ENDROOT
BRANCH   4  16
HETATM   16  C5  UNK     1      30.491  -7.061  35.186  1.00  0.00    -0.043 A 
HETATM   17  C10 UNK     1      30.140  -6.182  36.205  1.00  0.00     0.030 A 
HETATM   18  C15 UNK     1      30.850  -4.993  36.365  1.00  0.00     0.050 A 
HETATM   19 Br1  UNK     1      30.373  -3.797  37.750  1.00  0.00    -0.048 Br
HETATM   20  C18 UNK     1      31.906  -4.689  35.505  1.00  0.00     0.133 A 
HETATM   21  C16 UNK     1      32.251  -5.575  34.484  1.00  0.00     0.044 A 
HETATM   22  F1  UNK     1      32.600  -3.551  35.644  1.00  0.00    -0.205 F 
HETATM   23  C11 UNK     1      31.541  -6.765  34.325  1.00  0.00     0.011 A 
ENDBRANCH   4  16
BRANCH   6  24
HETATM   24  C12 UNK     1      30.684  -9.538  37.043  1.00  0.00     0.294 C 
HETATM   25  O5  UNK     1      29.756  -9.682  37.815  1.00  0.00    -0.259 OA
BRANCH  24  26
HETATM   26  O3  UNK     1      31.999  -9.385  37.327  1.00  0.00    -0.318 OA
BRANCH  26  27
HETATM   27  C20 UNK     1      32.308  -8.281  38.185  1.00  0.00     0.174 C 
HETATM   28  C21 UNK     1      33.413  -7.461  37.555  1.00  0.00     0.034 C 
ENDBRANCH  26  27
ENDBRANCH  24  26
ENDBRANCH   6  24
BRANCH   9  29
HETATM   29  N1  UNK     1      31.765 -11.556  35.218  1.00  0.00    -0.379 N 
HETATM   30  H7  UNK     1      32.752 -11.591  34.997  1.00  0.00     0.158 HD
HETATM   31  H8  UNK     1      31.333 -12.307  35.740  1.00  0.00     0.158 HD
ENDBRANCH   9  29
TORSDOF 5
ENDMDL
MODEL 5
REMARK VINA RESULT:      -7.3      3.557      5.743
REMARK  5 active torsions:
REMARK  status: ('A' for Active; 'I' for Inactive)
REMARK    1  A    between atoms: C12_20  and  O3_5 
REMARK    2  A    between atoms: C20_28  and  O3_5 
REMARK    3  A    between atoms: C7_15  and  N1_8 
REMARK    4  A    between atoms: C1_9  and  C5_13 
REMARK    5  A    between atoms: C12_20  and  C3_11 
ROOT
HETATM    1  O1  UNK     1      30.905  -7.204  38.143  1.00  0.00    -0.292 OA
HETATM    2  O2  UNK     1      27.410  -8.119  36.032  1.00  0.00    -0.274 OA
HETATM    3  O4  UNK     1      27.988  -6.618  34.416  1.00  0.00    -0.259 OA
HETATM    4  C1  UNK     1      30.511  -5.910  35.609  1.00  0.00     0.104 C 
HETATM    5  C2  UNK     1      29.524  -6.895  36.209  1.00  0.00     0.066 A 
HETATM    6  C3  UNK     1      31.591  -5.519  36.605  1.00  0.00     0.081 C 
HETATM    7  C4  UNK     1      29.773  -7.475  37.394  1.00  0.00     0.104 A 
HETATM    8  C6  UNK     1      28.847  -8.449  37.966  1.00  0.00     0.033 A 
HETATM    9  C7  UNK     1      31.755  -6.155  37.784  1.00  0.00     0.155 C 
HETATM   10  C8  UNK     1      28.267  -7.178  35.471  1.00  0.00     0.298 A 
HETATM   11  C9  UNK     1      27.687  -8.749  37.261  1.00  0.00     0.092 A 
HETATM   12  C13 UNK     1      29.066  -9.102  39.186  1.00  0.00     0.017 A 
HETATM   13  C14 UNK     1      26.751  -9.670  37.729  1.00  0.00     0.038 A 
HETATM   14  C17 UNK     1      28.137 -10.028  39.670  1.00  0.00     0.001 A 
HETATM   15  C19 UNK     1      26.981 -10.313  38.941  1.00  0.00     0.003 A 
ENDROOT
BRANCH   4  16
HETATM   16  C5  UNK     1      31.133  -6.482  34.369  1.00  0.00    -0.043 A 
HETATM   17  C10 UNK     1      31.892  -7.644  34.453  1.00  0.00     0.030 A 
HETATM   18  C15 UNK     1      32.470  -8.175  33.301  1.00  0.00     0.050 A 
HETATM   19 Br1  UNK     1      33.504  -9.755  33.413  1.00  0.00    -0.048 Br
HETATM   20  C18 UNK     1      32.286  -7.540  32.071  1.00  0.00     0.133 A 
HETATM   21  C16 UNK     1      31.525  -6.374  31.996  1.00  0.00     0.044 A 
HETATM   22  F1  UNK     1      32.834  -8.036  30.953  1.00  0.00    -0.205 F 
HETATM   23  C11 UNK     1      30.946  -5.844  33.149  1.00  0.00     0.011 A 
ENDBRANCH   4  16
BRANCH   6  24
HETATM   24  C12 UNK     1      32.444  -4.376  36.231  1.00  0.00     0.294 C 
HETATM   25  O5  UNK     1      32.035  -3.233  36.166  1.00  0.00    -0.259 OA
BRANCH  24  26
HETATM   26  O3  UNK     1      33.694  -4.838  35.994  1.00  0.00    -0.318 OA
BRANCH  26  27
HETATM   27  C20 UNK     1      34.280  -4.396  34.766  1.00  0.00     0.174 C 
HETATM   28  C21 UNK     1      34.960  -5.568  34.092  1.00  0.00     0.034 C 
ENDBRANCH  26  27
ENDBRANCH  24  26
ENDBRANCH   6  24
BRANCH   9  29
HETATM   29  N1  UNK     1      32.704  -5.882  38.728  1.00  0.00    -0.379 N 
HETATM   30  H7  UNK     1      33.075  -4.943  38.792  1.00  0.00     0.158 HD
HETATM   31  H8  UNK     1      33.034  -6.605  39.354  1.00  0.00     0.158 HD
ENDBRANCH   9  29
TORSDOF 5
ENDMDL
MODEL 6
REMARK VINA RESULT:      -7.3      3.100      4.238
REMARK  5 active torsions:
REMARK  status: ('A' for Active; 'I' for Inactive)
REMARK    1  A    between atoms: C12_20  and  O3_5 
REMARK    2  A    between atoms: C20_28  and  O3_5 
REMARK    3  A    between atoms: C7_15  and  N1_8 
REMARK    4  A    between atoms: C1_9  and  C5_13 
REMARK    5  A    between atoms: C12_20  and  C3_11 
ROOT
HETATM    1  O1  UNK     1      30.679  -9.942  33.857  1.00  0.00    -0.292 OA
HETATM    2  O2  UNK     1      27.783  -7.326  32.347  1.00  0.00    -0.274 OA
HETATM    3  O4  UNK     1      27.483  -6.450  34.430  1.00  0.00    -0.259 OA
HETATM    4  C1  UNK     1      29.522  -8.051  35.682  1.00  0.00     0.104 C 
HETATM    5  C2  UNK     1      29.137  -8.145  34.218  1.00  0.00     0.066 A 
HETATM    6  C3  UNK     1      30.399  -9.217  36.108  1.00  0.00     0.081 C 
HETATM    7  C4  UNK     1      29.723  -9.045  33.413  1.00  0.00     0.104 A 
HETATM    8  C6  UNK     1      29.385  -9.123  31.995  1.00  0.00     0.033 A 
HETATM    9  C7  UNK     1      30.935 -10.082  35.223  1.00  0.00     0.155 C 
HETATM   10  C8  UNK     1      28.076  -7.240  33.703  1.00  0.00     0.298 A 
HETATM   11  C9  UNK     1      28.422  -8.251  31.498  1.00  0.00     0.092 A 
HETATM   12  C13 UNK     1      29.981 -10.025  31.104  1.00  0.00     0.017 A 
HETATM   13  C14 UNK     1      28.041  -8.252  30.156  1.00  0.00     0.038 A 
HETATM   14  C17 UNK     1      29.610 -10.039  29.756  1.00  0.00     0.001 A 
HETATM   15  C19 UNK     1      28.642  -9.152  29.282  1.00  0.00     0.003 A 
ENDROOT
BRANCH   4  16
HETATM   16  C5  UNK     1      30.219  -6.751  35.958  1.00  0.00    -0.043 A 
HETATM   17  C10 UNK     1      31.368  -6.421  35.247  1.00  0.00     0.030 A 
HETATM   18  C15 UNK     1      32.015  -5.213  35.504  1.00  0.00     0.050 A 
HETATM   19 Br1  UNK     1      33.578  -4.764  34.538  1.00  0.00    -0.048 Br
HETATM   20  C18 UNK     1      31.510  -4.343  36.471  1.00  0.00     0.133 A 
HETATM   21  C16 UNK     1      30.359  -4.681  37.181  1.00  0.00     0.044 A 
HETATM   22  F1  UNK     1      32.120  -3.177  36.731  1.00  0.00    -0.205 F 
HETATM   23  C11 UNK     1      29.711  -5.889  36.922  1.00  0.00     0.011 A 
ENDBRANCH   4  16
BRANCH   6  24
HETATM   24  C12 UNK     1      30.616  -9.378  37.558  1.00  0.00     0.294 C 
HETATM   25  O5  UNK     1      29.717  -9.606  38.344  1.00  0.00    -0.259 OA
BRANCH  24  26
HETATM   26  O3  UNK     1      31.938  -9.231  37.810  1.00  0.00    -0.318 OA
BRANCH  26  27
HETATM   27  C20 UNK     1      32.300  -7.999  38.442  1.00  0.00     0.174 C 
HETATM   28  C21 UNK     1      33.580  -7.482  37.821  1.00  0.00     0.034 C 
ENDBRANCH  26  27
ENDBRANCH  24  26
ENDBRANCH   6  24
BRANCH   9  29
HETATM   29  N1  UNK     1      31.744 -11.145  35.514  1.00  0.00    -0.379 N 
HETATM   30  H7  UNK     1      32.689 -11.156  35.150  1.00  0.00     0.158 HD
HETATM   31  H8  UNK     1      31.407 -11.910  36.082  1.00  0.00     0.158 HD
ENDBRANCH   9  29
TORSDOF 5
ENDMDL
MODEL 7
REMARK VINA RESULT:      -7.3      3.296      6.231
REMARK  5 active torsions:
REMARK  status: ('A' for Active; 'I' for Inactive)
REMARK    1  A    between atoms: C12_20  and  O3_5 
REMARK    2  A    between atoms: C20_28  and  O3_5 
REMARK    3  A    between atoms: C7_15  and  N1_8 
REMARK    4  A    between atoms: C1_9  and  C5_13 
REMARK    5  A    between atoms: C12_20  and  C3_11 
ROOT
HETATM    1  O1  UNK     1      28.026  -6.955  35.233  1.00  0.00    -0.292 OA
HETATM    2  O2  UNK     1      30.372  -9.643  37.419  1.00  0.00    -0.274 OA
HETATM    3  O4  UNK     1      31.942  -9.623  35.765  1.00  0.00    -0.259 OA
HETATM    4  C1  UNK     1      30.577  -7.682  34.134  1.00  0.00     0.104 C 
HETATM    5  C2  UNK     1      30.048  -8.220  35.451  1.00  0.00     0.066 A 
HETATM    6  C3  UNK     1      29.509  -6.916  33.370  1.00  0.00     0.081 C 
HETATM    7  C4  UNK     1      28.850  -7.832  35.916  1.00  0.00     0.104 A 
HETATM    8  C6  UNK     1      28.345  -8.317  37.197  1.00  0.00     0.033 A 
HETATM    9  C7  UNK     1      28.323  -6.582  33.921  1.00  0.00     0.155 C 
HETATM   10  C8  UNK     1      30.872  -9.207  36.196  1.00  0.00     0.298 A 
HETATM   11  C9  UNK     1      29.129  -9.211  37.919  1.00  0.00     0.092 A 
HETATM   12  C13 UNK     1      27.115  -7.929  37.742  1.00  0.00     0.017 A 
HETATM   13  C14 UNK     1      28.728  -9.721  39.154  1.00  0.00     0.038 A 
HETATM   14  C17 UNK     1      26.697  -8.432  38.979  1.00  0.00     0.001 A 
HETATM   15  C19 UNK     1      27.504  -9.326  39.684  1.00  0.00     0.003 A 
ENDROOT
BRANCH   4  16
HETATM   16  C5  UNK     1      31.773  -6.807  34.370  1.00  0.00    -0.043 A 
HETATM   17  C10 UNK     1      32.975  -7.095  33.732  1.00  0.00     0.030 A 
HETATM   18  C15 UNK     1      34.086  -6.283  33.952  1.00  0.00     0.050 A 
HETATM   19 Br1  UNK     1      35.721  -6.676  33.086  1.00  0.00    -0.048 Br
HETATM   20  C18 UNK     1      33.989  -5.185  34.809  1.00  0.00     0.133 A 
HETATM   21  C16 UNK     1      32.781  -4.903  35.446  1.00  0.00     0.044 A 
HETATM   22  F1  UNK     1      35.047  -4.393  35.032  1.00  0.00    -0.205 F 
HETATM   23  C11 UNK     1      31.669  -5.715  35.225  1.00  0.00     0.011 A 
ENDBRANCH   4  16
BRANCH   6  24
HETATM   24  C12 UNK     1      29.821  -6.578  31.970  1.00  0.00     0.294 C 
HETATM   25  O5  UNK     1      30.041  -5.443  31.592  1.00  0.00    -0.259 OA
BRANCH  24  26
HETATM   26  O3  UNK     1      29.815  -7.720  31.244  1.00  0.00    -0.318 OA
BRANCH  26  27
HETATM   27  C20 UNK     1      28.920  -7.722  30.128  1.00  0.00     0.174 C 
HETATM   28  C21 UNK     1      27.623  -8.389  30.536  1.00  0.00     0.034 C 
ENDBRANCH  26  27
ENDBRANCH  24  26
ENDBRANCH   6  24
BRANCH   9  29
HETATM   29  N1  UNK     1      27.315  -5.885  33.316  1.00  0.00    -0.379 N 
HETATM   30  H7  UNK     1      26.356  -6.102  33.556  1.00  0.00     0.158 HD
HETATM   31  H8  UNK     1      27.521  -5.165  32.636  1.00  0.00     0.158 HD
ENDBRANCH   9  29
TORSDOF 5
ENDMDL
MODEL 8
REMARK VINA RESULT:      -7.2      3.504      5.312
REMARK  5 active torsions:
REMARK  status: ('A' for Active; 'I' for Inactive)
REMARK    1  A    between atoms: C12_20  and  O3_5 
REMARK    2  A    between atoms: C20_28  and  O3_5 
REMARK    3  A    between atoms: C7_15  and  N1_8 
REMARK    4  A    between atoms: C1_9  and  C5_13 
REMARK    5  A    between atoms: C12_20  and  C3_11 
ROOT
HETATM    1  O1  UNK     1      34.419  -5.903  34.379  1.00  0.00    -0.292 OA
HETATM    2  O2  UNK     1      33.244  -9.919  34.293  1.00  0.00    -0.274 OA
HETATM    3  O4  UNK     1      31.372  -9.400  35.485  1.00  0.00    -0.259 OA
HETATM    4  C1  UNK     1      31.894  -6.570  35.573  1.00  0.00     0.104 C 
HETATM    5  C2  UNK     1      32.809  -7.592  34.923  1.00  0.00     0.066 A 
HETATM    6  C3  UNK     1      32.577  -5.220  35.725  1.00  0.00     0.081 C 
HETATM    7  C4  UNK     1      33.973  -7.214  34.371  1.00  0.00     0.104 A 
HETATM    8  C6  UNK     1      34.846  -8.182  33.714  1.00  0.00     0.033 A 
HETATM    9  C7  UNK     1      33.760  -4.937  35.141  1.00  0.00     0.155 C 
HETATM   10  C8  UNK     1      32.401  -9.020  34.937  1.00  0.00     0.298 A 
HETATM   11  C9  UNK     1      34.451  -9.515  33.688  1.00  0.00     0.092 A 
HETATM   12  C13 UNK     1      36.059  -7.841  33.103  1.00  0.00     0.017 A 
HETATM   13  C14 UNK     1      35.219 -10.506  33.078  1.00  0.00     0.038 A 
HETATM   14  C17 UNK     1      36.842  -8.823  32.487  1.00  0.00     0.001 A 
HETATM   15  C19 UNK     1      36.422 -10.154  32.473  1.00  0.00     0.003 A 
ENDROOT
BRANCH   4  16
HETATM   16  C5  UNK     1      30.628  -6.423  34.782  1.00  0.00    -0.043 A 
HETATM   17  C10 UNK     1      30.683  -5.955  33.473  1.00  0.00     0.030 A 
HETATM   18  C15 UNK     1      29.506  -5.818  32.739  1.00  0.00     0.050 A 
HETATM   19 Br1  UNK     1      29.580  -5.180  30.960  1.00  0.00    -0.048 Br
HETATM   20  C18 UNK     1      28.280  -6.150  33.317  1.00  0.00     0.133 A 
HETATM   21  C16 UNK     1      28.232  -6.617  34.630  1.00  0.00     0.044 A 
HETATM   22  F1  UNK     1      27.138  -6.025  32.626  1.00  0.00    -0.205 F 
HETATM   23  C11 UNK     1      29.410  -6.755  35.364  1.00  0.00     0.011 A 
ENDBRANCH   4  16
BRANCH   6  24
HETATM   24  C12 UNK     1      31.891  -4.231  36.576  1.00  0.00     0.294 C 
HETATM   25  O5  UNK     1      31.812  -3.051  36.295  1.00  0.00    -0.259 OA
BRANCH  24  26
HETATM   26  O3  UNK     1      31.399  -4.872  37.662  1.00  0.00    -0.318 OA
BRANCH  26  27
HETATM   27  C20 UNK     1      30.190  -4.321  38.194  1.00  0.00     0.174 C 
HETATM   28  C21 UNK     1      29.393  -5.424  38.856  1.00  0.00     0.034 C 
ENDBRANCH  26  27
ENDBRANCH  24  26
ENDBRANCH   6  24
BRANCH   9  29
HETATM   29  N1  UNK     1      34.436  -3.751  35.212  1.00  0.00    -0.379 N 
HETATM   30  H7  UNK     1      35.278  -3.700  35.771  1.00  0.00     0.158 HD
HETATM   31  H8  UNK     1      34.101  -2.936  34.716  1.00  0.00     0.158 HD
ENDBRANCH   9  29
TORSDOF 5
ENDMDL
MODEL 9
REMARK VINA RESULT:      -7.2      3.402      6.521
REMARK  5 active torsions:
REMARK  status: ('A' for Active; 'I' for Inactive)
REMARK    1  A    between atoms: C12_20  and  O3_5 
REMARK    2  A    between atoms: C20_28  and  O3_5 
REMARK    3  A    between atoms: C7_15  and  N1_8 
REMARK    4  A    between atoms: C1_9  and  C5_13 
REMARK    5  A    between atoms: C12_20  and  C3_11 
ROOT
HETATM    1  O1  UNK     1      30.908  -8.518  36.458  1.00  0.00    -0.292 OA
HETATM    2  O2  UNK     1      31.436  -4.390  36.023  1.00  0.00    -0.274 OA
HETATM    3  O4  UNK     1      32.775  -4.748  34.213  1.00  0.00    -0.259 OA
HETATM    4  C1  UNK     1      32.466  -7.611  34.223  1.00  0.00     0.104 C 
HETATM    5  C2  UNK     1      31.836  -6.676  35.239  1.00  0.00     0.066 A 
HETATM    6  C3  UNK     1      32.375  -9.063  34.663  1.00  0.00     0.081 C 
HETATM    7  C4  UNK     1      31.108  -7.164  36.256  1.00  0.00     0.104 A 
HETATM    8  C6  UNK     1      30.469  -6.274  37.221  1.00  0.00     0.033 A 
HETATM    9  C7  UNK     1      31.625  -9.457  35.713  1.00  0.00     0.155 C 
HETATM   10  C8  UNK     1      32.067  -5.215  35.098  1.00  0.00     0.298 A 
HETATM   11  C9  UNK     1      30.648  -4.902  37.072  1.00  0.00     0.092 A 
HETATM   12  C13 UNK     1      29.681  -6.724  38.288  1.00  0.00     0.017 A 
HETATM   13  C14 UNK     1      30.071  -3.979  37.944  1.00  0.00     0.038 A 
HETATM   14  C17 UNK     1      29.095  -5.812  39.171  1.00  0.00     0.001 A 
HETATM   15  C19 UNK     1      29.289  -4.441  38.998  1.00  0.00     0.003 A 
ENDROOT
BRANCH   4  16
HETATM   16  C5  UNK     1      31.821  -7.435  32.880  1.00  0.00    -0.043 A 
HETATM   17  C10 UNK     1      30.434  -7.392  32.782  1.00  0.00     0.030 A 
HETATM   18  C15 UNK     1      29.835  -7.230  31.534  1.00  0.00     0.050 A 
HETATM   19 Br1  UNK     1      27.949  -7.172  31.400  1.00  0.00    -0.048 Br
HETATM   20  C18 UNK     1      30.626  -7.112  30.390  1.00  0.00     0.133 A 
HETATM   21  C16 UNK     1      32.015  -7.158  30.495  1.00  0.00     0.044 A 
HETATM   22  F1  UNK     1      30.067  -6.955  29.181  1.00  0.00    -0.205 F 
HETATM   23  C11 UNK     1      32.615  -7.319  31.744  1.00  0.00     0.011 A 
ENDBRANCH   4  16
BRANCH   6  24
HETATM   24  C12 UNK     1      33.181 -10.031  33.896  1.00  0.00     0.294 C 
HETATM   25  O5  UNK     1      34.383  -9.926  33.745  1.00  0.00    -0.259 OA
BRANCH  24  26
HETATM   26  O3  UNK     1      32.355 -10.996  33.429  1.00  0.00    -0.318 OA
BRANCH  26  27
HETATM   27  C20 UNK     1      32.241 -11.057  32.003  1.00  0.00     0.174 C 
HETATM   28  C21 UNK     1      30.789 -10.873  31.615  1.00  0.00     0.034 C 
ENDBRANCH  26  27
ENDBRANCH  24  26
ENDBRANCH   6  24
BRANCH   9  29
HETATM   29  N1  UNK     1      31.474 -10.737  36.167  1.00  0.00    -0.379 N 
HETATM   30  H7  UNK     1      30.971 -11.404  35.595  1.00  0.00     0.158 HD
HETATM   31  H8  UNK     1      31.855 -11.016  37.061  1.00  0.00     0.158 HD
ENDBRANCH   9  29
TORSDOF 5
ENDMDL
MODEL 10
REMARK VINA RESULT:      -7.1      1.531      1.938
REMARK  5 active torsions:
REMARK  status: ('A' for Active; 'I' for Inactive)
REMARK    1  A    between atoms: C12_20  and  O3_5 
REMARK    2  A    between atoms: C20_28  and  O3_5 
REMARK    3  A    between atoms: C7_15  and  N1_8 
REMARK    4  A    between atoms: C1_9  and  C5_13 
REMARK    5  A    between atoms: C12_20  and  C3_11 
ROOT
HETATM    1  O1  UNK     1      31.214  -5.932  33.765  1.00  0.00    -0.292 OA
HETATM    2  O2  UNK     1      29.540  -9.596  32.634  1.00  0.00    -0.274 OA
HETATM    3  O4  UNK     1      29.771 -10.365  34.768  1.00  0.00    -0.259 OA
HETATM    4  C1  UNK     1      30.826  -7.901  35.820  1.00  0.00     0.104 C 
HETATM    5  C2  UNK     1      30.458  -8.125  34.364  1.00  0.00     0.066 A 
HETATM    6  C3  UNK     1      31.630  -6.625  36.006  1.00  0.00     0.081 C 
HETATM    7  C4  UNK     1      30.655  -7.159  33.453  1.00  0.00     0.104 A 
HETATM    8  C6  UNK     1      30.275  -7.351  32.056  1.00  0.00     0.033 A 
HETATM    9  C7  UNK     1      31.784  -5.715  35.021  1.00  0.00     0.155 C 
HETATM   10  C8  UNK     1      29.905  -9.446  33.967  1.00  0.00     0.298 A 
HETATM   11  C9  UNK     1      29.719  -8.570  31.686  1.00  0.00     0.092 A 
HETATM   12  C13 UNK     1      30.435  -6.371  31.068  1.00  0.00     0.017 A 
HETATM   13  C14 UNK     1      29.323  -8.838  30.376  1.00  0.00     0.038 A 
HETATM   14  C17 UNK     1      30.044  -6.624  29.750  1.00  0.00     0.001 A 
HETATM   15  C19 UNK     1      29.486  -7.856  29.404  1.00  0.00     0.003 A 
ENDROOT
BRANCH   4  16
HETATM   16  C5  UNK     1      29.591  -7.864  36.671  1.00  0.00    -0.043 A 
HETATM   17  C10 UNK     1      29.421  -8.805  37.681  1.00  0.00     0.030 A 
HETATM   18  C15 UNK     1      28.273  -8.771  38.470  1.00  0.00     0.050 A 
HETATM   19 Br1  UNK     1      28.042 -10.052  39.843  1.00  0.00    -0.048 Br
HETATM   20  C18 UNK     1      27.301  -7.796  38.246  1.00  0.00     0.133 A 
HETATM   21  C16 UNK     1      27.477  -6.856  37.231  1.00  0.00     0.044 A 
HETATM   22  F1  UNK     1      26.190  -7.747  38.997  1.00  0.00    -0.205 F 
HETATM   23  C11 UNK     1      28.626  -6.890  36.442  1.00  0.00     0.011 A 
ENDBRANCH   4  16
BRANCH   6  24
HETATM   24  C12 UNK     1      32.267  -6.438  37.322  1.00  0.00     0.294 C 
HETATM   25  O5  UNK     1      32.934  -7.297  37.867  1.00  0.00    -0.259 OA
BRANCH  24  26
HETATM   26  O3  UNK     1      31.975  -5.193  37.765  1.00  0.00    -0.318 OA
BRANCH  26  27
HETATM   27  C20 UNK     1      30.855  -5.114  38.653  1.00  0.00     0.174 C 
HETATM   28  C21 UNK     1      29.944  -3.993  38.201  1.00  0.00     0.034 C 
ENDBRANCH  26  27
ENDBRANCH  24  26
ENDBRANCH   6  24
BRANCH   9  29
HETATM   29  N1  UNK     1      32.475  -4.538  35.105  1.00  0.00    -0.379 N 
HETATM   30  H7  UNK     1      32.764  -4.204  36.015  1.00  0.00     0.158 HD
HETATM   31  H8  UNK     1      32.692  -4.007  34.273  1.00  0.00     0.158 HD
ENDBRANCH   9  29
TORSDOF 5
ENDMDL
