MODEL 1
REMARK VINA RESULT:      -6.4      0.000      0.000
REMARK  2 active torsions:
REMARK  status: ('A' for Active; 'I' for Inactive)
REMARK    1  A    between atoms: C2_6  and  O1_2 
REMARK    2  A    between atoms: C7_11  and  O1_2 
ROOT
HETATM    1 Br1  UNK     1      18.382  -4.803  15.193  1.00  0.00    -0.051 Br
HETATM    2  O2  UNK     1      19.386   1.175  15.041  1.00  0.00    -0.275 OA
HETATM    3  O3  UNK     1      19.518   3.209  16.079  1.00  0.00    -0.260 OA
HETATM    4  C1  UNK     1      18.901  -0.827  16.364  1.00  0.00     0.033 A 
HETATM    5  C2  UNK     1      18.884   0.025  17.557  1.00  0.00     0.087 A 
HETATM    6  C3  UNK     1      19.160  -0.216  15.133  1.00  0.00     0.092 A 
HETATM    7  C4  UNK     1      18.666  -2.208  16.360  1.00  0.00     0.036 A 
HETATM    8  C5  UNK     1      19.203  -0.931  13.935  1.00  0.00     0.040 A 
HETATM    9  C6  UNK     1      19.084   1.343  17.448  1.00  0.00     0.120 A 
HETATM   10  C8  UNK     1      18.703  -2.939  15.166  1.00  0.00     0.012 A 
HETATM   11  C9  UNK     1      18.974  -2.302  13.956  1.00  0.00     0.022 A 
HETATM   12  C10 UNK     1      19.343   1.999  16.157  1.00  0.00     0.290 A 
ENDROOT
BRANCH   5  13
HETATM   13  O1  UNK     1      18.668  -0.528  18.802  1.00  0.00    -0.350 OA
BRANCH  13  14
HETATM   14  C7  UNK     1      18.503   0.482  19.778  1.00  0.00     0.171 C 
HETATM   15  C11 UNK     1      19.494   0.250  20.900  1.00  0.00     0.034 C 
ENDBRANCH  13  14
ENDBRANCH   5  13
TORSDOF 2
ENDMDL
MODEL 2
REMARK VINA RESULT:      -6.3     13.345     15.769
REMARK  2 active torsions:
REMARK  status: ('A' for Active; 'I' for Inactive)
REMARK    1  A    between atoms: C2_6  and  O1_2 
REMARK    2  A    between atoms: C7_11  and  O1_2 
ROOT
HETATM    1 Br1  UNK     1      18.492   2.394  29.629  1.00  0.00    -0.051 Br
HETATM    2  O2  UNK     1      20.979  -3.045  30.635  1.00  0.00    -0.275 OA
HETATM    3  O3  UNK     1      21.642  -4.710  32.056  1.00  0.00    -0.260 OA
HETATM    4  C1  UNK     1      19.859  -1.063  31.535  1.00  0.00     0.033 A 
HETATM    5  C2  UNK     1      19.953  -1.675  32.865  1.00  0.00     0.087 A 
HETATM    6  C3  UNK     1      20.376  -1.781  30.453  1.00  0.00     0.092 A 
HETATM    7  C4  UNK     1      19.299   0.193  31.267  1.00  0.00     0.036 A 
HETATM    8  C5  UNK     1      20.338  -1.295  29.145  1.00  0.00     0.040 A 
HETATM    9  C6  UNK     1      20.541  -2.865  33.020  1.00  0.00     0.120 A 
HETATM   10  C8  UNK     1      19.255   0.694  29.960  1.00  0.00     0.012 A 
HETATM   11  C9  UNK     1      19.771  -0.050  28.901  1.00  0.00     0.022 A 
HETATM   12  C10 UNK     1      21.102  -3.623  31.890  1.00  0.00     0.290 A 
ENDROOT
BRANCH   5  13
HETATM   13  O1  UNK     1      19.427  -1.028  33.965  1.00  0.00    -0.350 OA
BRANCH  13  14
HETATM   14  C7  UNK     1      19.539  -1.835  35.121  1.00  0.00     0.171 C 
HETATM   15  C11 UNK     1      18.518  -1.378  36.142  1.00  0.00     0.034 C 
ENDBRANCH  13  14
ENDBRANCH   5  13
TORSDOF 2
ENDMDL
MODEL 3
REMARK VINA RESULT:      -6.3     24.336     25.248
REMARK  2 active torsions:
REMARK  status: ('A' for Active; 'I' for Inactive)
REMARK    1  A    between atoms: C2_6  and  O1_2 
REMARK    2  A    between atoms: C7_11  and  O1_2 
ROOT
HETATM    1 Br1  UNK     1      33.478  -7.282  37.712  1.00  0.00    -0.051 Br
HETATM    2  O2  UNK     1      28.033  -4.851  38.814  1.00  0.00    -0.275 OA
HETATM    3  O3  UNK     1      25.753  -5.010  38.911  1.00  0.00    -0.260 OA
HETATM    4  C1  UNK     1      29.356  -6.821  38.215  1.00  0.00     0.033 A 
HETATM    5  C2  UNK     1      28.103  -7.579  38.135  1.00  0.00     0.087 A 
HETATM    6  C3  UNK     1      29.277  -5.469  38.562  1.00  0.00     0.092 A 
HETATM    7  C4  UNK     1      30.630  -7.347  37.960  1.00  0.00     0.036 A 
HETATM    8  C5  UNK     1      30.406  -4.655  38.669  1.00  0.00     0.040 A 
HETATM    9  C6  UNK     1      26.933  -6.973  38.362  1.00  0.00     0.120 A 
HETATM   10  C8  UNK     1      31.772  -6.543  38.062  1.00  0.00     0.012 A 
HETATM   11  C9  UNK     1      31.660  -5.200  38.419  1.00  0.00     0.022 A 
HETATM   12  C10 UNK     1      26.836  -5.547  38.712  1.00  0.00     0.290 A 
ENDROOT
BRANCH   5  13
HETATM   13  O1  UNK     1      28.124  -8.925  37.832  1.00  0.00    -0.350 OA
BRANCH  13  14
HETATM   14  C7  UNK     1      27.214  -9.636  38.648  1.00  0.00     0.171 C 
HETATM   15  C11 UNK     1      27.944 -10.142  39.875  1.00  0.00     0.034 C 
ENDBRANCH  13  14
ENDBRANCH   5  13
TORSDOF 2
ENDMDL
MODEL 4
REMARK VINA RESULT:      -6.2     13.799     16.080
REMARK  2 active torsions:
REMARK  status: ('A' for Active; 'I' for Inactive)
REMARK    1  A    between atoms: C2_6  and  O1_2 
REMARK    2  A    between atoms: C7_11  and  O1_2 
ROOT
HETATM    1 Br1  UNK     1      18.838   7.453  33.866  1.00  0.00    -0.051 Br
HETATM    2  O2  UNK     1      18.792   3.590  29.192  1.00  0.00    -0.275 OA
HETATM    3  O3  UNK     1      18.567   1.477  28.344  1.00  0.00    -0.260 OA
HETATM    4  C1  UNK     1      18.475   3.969  31.589  1.00  0.00     0.033 A 
HETATM    5  C2  UNK     1      18.168   2.542  31.725  1.00  0.00     0.087 A 
HETATM    6  C3  UNK     1      18.775   4.451  30.312  1.00  0.00     0.092 A 
HETATM    7  C4  UNK     1      18.503   4.888  32.647  1.00  0.00     0.036 A 
HETATM    8  C5  UNK     1      19.079   5.791  30.067  1.00  0.00     0.040 A 
HETATM    9  C6  UNK     1      18.205   1.739  30.656  1.00  0.00     0.120 A 
HETATM   10  C8  UNK     1      18.809   6.236  32.418  1.00  0.00     0.012 A 
HETATM   11  C9  UNK     1      19.094   6.687  31.130  1.00  0.00     0.022 A 
HETATM   12  C10 UNK     1      18.534   2.232  29.309  1.00  0.00     0.290 A 
ENDROOT
BRANCH   5  13
HETATM   13  O1  UNK     1      17.832   2.018  32.956  1.00  0.00    -0.350 OA
BRANCH  13  14
HETATM   14  C7  UNK     1      18.504   0.795  33.181  1.00  0.00     0.171 C 
HETATM   15  C11 UNK     1      18.180   0.303  34.576  1.00  0.00     0.034 C 
ENDBRANCH  13  14
ENDBRANCH   5  13
TORSDOF 2
ENDMDL
MODEL 5
REMARK VINA RESULT:      -6.2     14.907     17.954
REMARK  2 active torsions:
REMARK  status: ('A' for Active; 'I' for Inactive)
REMARK    1  A    between atoms: C2_6  and  O1_2 
REMARK    2  A    between atoms: C7_11  and  O1_2 
ROOT
HETATM    1 Br1  UNK     1      16.486   0.910  36.891  1.00  0.00    -0.051 Br
HETATM    2  O2  UNK     1      20.420  -2.830  34.187  1.00  0.00    -0.275 OA
HETATM    3  O3  UNK     1      21.468  -3.618  32.312  1.00  0.00    -0.260 OA
HETATM    4  C1  UNK     1      18.845  -0.966  33.998  1.00  0.00     0.033 A 
HETATM    5  C2  UNK     1      19.143  -0.924  32.562  1.00  0.00     0.087 A 
HETATM    6  C3  UNK     1      19.506  -1.925  34.770  1.00  0.00     0.092 A 
HETATM    7  C4  UNK     1      17.937  -0.125  34.654  1.00  0.00     0.036 A 
HETATM    8  C5  UNK     1      19.300  -2.053  36.145  1.00  0.00     0.040 A 
HETATM    9  C6  UNK     1      20.000  -1.798  32.025  1.00  0.00     0.120 A 
HETATM   10  C8  UNK     1      17.718  -0.242  36.032  1.00  0.00     0.012 A 
HETATM   11  C9  UNK     1      18.400  -1.203  36.777  1.00  0.00     0.022 A 
HETATM   12  C10 UNK     1      20.691  -2.822  32.826  1.00  0.00     0.290 A 
ENDROOT
BRANCH   5  13
HETATM   13  O1  UNK     1      18.547   0.025  31.757  1.00  0.00    -0.350 OA
BRANCH  13  14
HETATM   14  C7  UNK     1      19.489   0.590  30.867  1.00  0.00     0.171 C 
HETATM   15  C11 UNK     1      18.819   1.695  30.077  1.00  0.00     0.034 C 
ENDBRANCH  13  14
ENDBRANCH   5  13
TORSDOF 2
ENDMDL
MODEL 6
REMARK VINA RESULT:      -6.2     15.092     17.217
REMARK  2 active torsions:
REMARK  status: ('A' for Active; 'I' for Inactive)
REMARK    1  A    between atoms: C2_6  and  O1_2 
REMARK    2  A    between atoms: C7_11  and  O1_2 
ROOT
HETATM    1 Br1  UNK     1      19.144   0.827  29.306  1.00  0.00    -0.051 Br
HETATM    2  O2  UNK     1      20.591  -2.972  33.806  1.00  0.00    -0.275 OA
HETATM    3  O3  UNK     1      20.436  -3.642  35.988  1.00  0.00    -0.260 OA
HETATM    4  C1  UNK     1      19.292  -1.045  33.038  1.00  0.00     0.033 A 
HETATM    5  C2  UNK     1      18.731  -0.947  34.390  1.00  0.00     0.087 A 
HETATM    6  C3  UNK     1      20.209  -2.070  32.789  1.00  0.00     0.092 A 
HETATM    7  C4  UNK     1      18.987  -0.181  31.978  1.00  0.00     0.036 A 
HETATM    8  C5  UNK     1      20.803  -2.258  31.539  1.00  0.00     0.040 A 
HETATM    9  C6  UNK     1      19.117  -1.800  35.344  1.00  0.00     0.120 A 
HETATM   10  C8  UNK     1      19.576  -0.356  30.719  1.00  0.00     0.012 A 
HETATM   11  C9  UNK     1      20.480  -1.393  30.499  1.00  0.00     0.022 A 
HETATM   12  C10 UNK     1      20.092  -2.874  35.097  1.00  0.00     0.290 A 
ENDROOT
BRANCH   5  13
HETATM   13  O1  UNK     1      17.795   0.024  34.684  1.00  0.00    -0.350 OA
BRANCH  13  14
HETATM   14  C7  UNK     1      16.509  -0.548  34.825  1.00  0.00     0.171 C 
HETATM   15  C11 UNK     1      15.683   0.320  35.750  1.00  0.00     0.034 C 
ENDBRANCH  13  14
ENDBRANCH   5  13
TORSDOF 2
ENDMDL
MODEL 7
REMARK VINA RESULT:      -6.1     14.464     16.779
REMARK  2 active torsions:
REMARK  status: ('A' for Active; 'I' for Inactive)
REMARK    1  A    between atoms: C2_6  and  O1_2 
REMARK    2  A    between atoms: C7_11  and  O1_2 
ROOT
HETATM    1 Br1  UNK     1      17.391   1.067  36.990  1.00  0.00    -0.051 Br
HETATM    2  O2  UNK     1      19.009   0.203  31.211  1.00  0.00    -0.275 OA
HETATM    3  O3  UNK     1      19.300   0.974  29.077  1.00  0.00    -0.260 OA
HETATM    4  C1  UNK     1      18.259   1.742  32.960  1.00  0.00     0.033 A 
HETATM    5  C2  UNK     1      18.273   2.811  31.957  1.00  0.00     0.087 A 
HETATM    6  C3  UNK     1      18.638   0.460  32.549  1.00  0.00     0.092 A 
HETATM    7  C4  UNK     1      17.883   1.903  34.300  1.00  0.00     0.036 A 
HETATM    8  C5  UNK     1      18.663  -0.630  33.420  1.00  0.00     0.040 A 
HETATM    9  C6  UNK     1      18.612   2.545  30.691  1.00  0.00     0.120 A 
HETATM   10  C8  UNK     1      17.902   0.818  35.186  1.00  0.00     0.012 A 
HETATM   11  C9  UNK     1      18.294  -0.445  34.747  1.00  0.00     0.022 A 
HETATM   12  C10 UNK     1      18.998   1.197  30.244  1.00  0.00     0.290 A 
ENDROOT
BRANCH   5  13
HETATM   13  O1  UNK     1      17.942   4.102  32.314  1.00  0.00    -0.350 OA
BRANCH  13  14
HETATM   14  C7  UNK     1      18.602   5.036  31.483  1.00  0.00     0.171 C 
HETATM   15  C11 UNK     1      19.352   6.026  32.351  1.00  0.00     0.034 C 
ENDBRANCH  13  14
ENDBRANCH   5  13
TORSDOF 2
ENDMDL
MODEL 8
REMARK VINA RESULT:      -6.1     13.570     15.608
REMARK  2 active torsions:
REMARK  status: ('A' for Active; 'I' for Inactive)
REMARK    1  A    between atoms: C2_6  and  O1_2 
REMARK    2  A    between atoms: C7_11  and  O1_2 
ROOT
HETATM    1 Br1  UNK     1      18.151  -0.988  35.863  1.00  0.00    -0.051 Br
HETATM    2  O2  UNK     1      20.709  -1.423  30.382  1.00  0.00    -0.275 OA
HETATM    3  O3  UNK     1      20.990  -0.673  28.239  1.00  0.00    -0.260 OA
HETATM    4  C1  UNK     1      19.250  -0.190  31.912  1.00  0.00     0.033 A 
HETATM    5  C2  UNK     1      19.022   0.779  30.835  1.00  0.00     0.087 A 
HETATM    6  C3  UNK     1      20.100  -1.267  31.647  1.00  0.00     0.092 A 
HETATM    7  C4  UNK     1      18.670  -0.126  33.186  1.00  0.00     0.036 A 
HETATM    8  C5  UNK     1      20.389  -2.247  32.598  1.00  0.00     0.040 A 
HETATM    9  C6  UNK     1      19.595   0.607  29.640  1.00  0.00     0.120 A 
HETATM   10  C8  UNK     1      18.949  -1.102  34.151  1.00  0.00     0.012 A 
HETATM   11  C9  UNK     1      19.809  -2.159  33.858  1.00  0.00     0.022 A 
HETATM   12  C10 UNK     1      20.480  -0.531  29.345  1.00  0.00     0.290 A 
ENDROOT
BRANCH   5  13
HETATM   13  O1  UNK     1      18.220   1.881  31.052  1.00  0.00    -0.350 OA
BRANCH  13  14
HETATM   14  C7  UNK     1      18.428   2.856  30.049  1.00  0.00     0.171 C 
HETATM   15  C11 UNK     1      18.907   4.137  30.699  1.00  0.00     0.034 C 
ENDBRANCH  13  14
ENDBRANCH   5  13
TORSDOF 2
ENDMDL
MODEL 9
REMARK VINA RESULT:      -6.1     12.940     14.550
REMARK  2 active torsions:
REMARK  status: ('A' for Active; 'I' for Inactive)
REMARK    1  A    between atoms: C2_6  and  O1_2 
REMARK    2  A    between atoms: C7_11  and  O1_2 
ROOT
HETATM    1 Br1  UNK     1      21.015  -3.512  32.044  1.00  0.00    -0.051 Br
HETATM    2  O2  UNK     1      19.244   1.286  28.786  1.00  0.00    -0.275 OA
HETATM    3  O3  UNK     1      18.156   3.290  28.603  1.00  0.00    -0.260 OA
HETATM    4  C1  UNK     1      19.351   0.163  30.958  1.00  0.00     0.033 A 
HETATM    5  C2  UNK     1      18.618   1.299  31.526  1.00  0.00     0.087 A 
HETATM    6  C3  UNK     1      19.647   0.199  29.592  1.00  0.00     0.092 A 
HETATM    7  C4  UNK     1      19.768  -0.965  31.677  1.00  0.00     0.036 A 
HETATM    8  C5  UNK     1      20.341  -0.827  28.948  1.00  0.00     0.040 A 
HETATM    9  C6  UNK     1      18.232   2.312  30.744  1.00  0.00     0.120 A 
HETATM   10  C8  UNK     1      20.464  -2.003  31.045  1.00  0.00     0.012 A 
HETATM   11  C9  UNK     1      20.752  -1.933  29.683  1.00  0.00     0.022 A 
HETATM   12  C10 UNK     1      18.525   2.353  29.302  1.00  0.00     0.290 A 
ENDROOT
BRANCH   5  13
HETATM   13  O1  UNK     1      18.330   1.333  32.875  1.00  0.00    -0.350 OA
BRANCH  13  14
HETATM   14  C7  UNK     1      18.302   2.666  33.347  1.00  0.00     0.171 C 
HETATM   15  C11 UNK     1      18.410   2.656  34.857  1.00  0.00     0.034 C 
ENDBRANCH  13  14
ENDBRANCH   5  13
TORSDOF 2
ENDMDL
MODEL 10
REMARK VINA RESULT:      -6.0     13.397     15.519
REMARK  2 active torsions:
REMARK  status: ('A' for Active; 'I' for Inactive)
REMARK    1  A    between atoms: C2_6  and  O1_2 
REMARK    2  A    between atoms: C7_11  and  O1_2 
ROOT
HETATM    1 Br1  UNK     1      20.531  -2.453  30.062  1.00  0.00    -0.051 Br
HETATM    2  O2  UNK     1      18.357   3.160  30.792  1.00  0.00    -0.275 OA
HETATM    3  O3  UNK     1      17.449   4.801  32.103  1.00  0.00    -0.260 OA
HETATM    4  C1  UNK     1      18.971   1.014  31.794  1.00  0.00     0.033 A 
HETATM    5  C2  UNK     1      18.536   1.549  33.088  1.00  0.00     0.087 A 
HETATM    6  C3  UNK     1      18.871   1.850  30.678  1.00  0.00     0.092 A 
HETATM    7  C4  UNK     1      19.469  -0.279  31.587  1.00  0.00     0.036 A 
HETATM    8  C5  UNK     1      19.257   1.444  29.400  1.00  0.00     0.040 A 
HETATM    9  C6  UNK     1      18.038   2.787  33.173  1.00  0.00     0.120 A 
HETATM   10  C8  UNK     1      19.860  -0.702  30.310  1.00  0.00     0.012 A 
HETATM   11  C9  UNK     1      19.757   0.159  29.219  1.00  0.00     0.022 A 
HETATM   12  C10 UNK     1      17.914   3.671  32.003  1.00  0.00     0.290 A 
ENDROOT
BRANCH   5  13
HETATM   13  O1  UNK     1      18.644   0.781  34.229  1.00  0.00    -0.350 OA
BRANCH  13  14
HETATM   14  C7  UNK     1      17.417   0.749  34.931  1.00  0.00     0.171 C 
HETATM   15  C11 UNK     1      16.786  -0.616  34.759  1.00  0.00     0.034 C 
ENDBRANCH  13  14
ENDBRANCH   5  13
TORSDOF 2
ENDMDL
