MODEL 1
REMARK VINA RESULT:     -10.0      0.000      0.000
REMARK  5 active torsions:
REMARK  status: ('A' for Active; 'I' for Inactive)
REMARK    1  A    between atoms: C11_16  and  O2_2 
REMARK    2  A    between atoms: C20_25  and  O2_2 
REMARK    3  A    between atoms: C22_27  and  O3_3 
REMARK    4  A    between atoms: C8_13  and  O3_3 
REMARK    5  A    between atoms: C20_25  and  C22_27 
ROOT
HETATM    1  O5  UNK     1      21.250  -4.198  37.488  1.00  0.00    -0.262 OA
HETATM    2  C22 UNK     1      20.385  -3.961  36.654  1.00  0.00     0.288 C 
ENDROOT
BRANCH   2   3
HETATM    3  C20 UNK     1      20.362  -2.758  35.747  1.00  0.00     0.287 C 
BRANCH   3   4
HETATM    4  O2  UNK     1      20.386  -3.200  34.404  1.00  0.00    -0.342 OA
BRANCH   4   5
HETATM    5  C11 UNK     1      20.069  -2.279  33.436  1.00  0.00     0.070 A 
HETATM    6  C10 UNK     1      20.662  -2.371  32.183  1.00  0.00     0.049 A 
HETATM    7  C4  UNK     1      20.348  -1.436  31.183  1.00  0.00    -0.023 A 
HETATM    8  C16 UNK     1      20.932  -1.506  29.907  1.00  0.00     0.012 A 
HETATM    9  C5  UNK     1      19.424  -0.402  31.466  1.00  0.00    -0.026 A 
HETATM   10  C19 UNK     1      20.609  -0.570  28.924  1.00  0.00     0.001 A 
HETATM   11  C21 UNK     1      19.701   0.447  29.203  1.00  0.00     0.001 A 
HETATM   12  C17 UNK     1      19.112   0.531  30.465  1.00  0.00     0.012 A 
HETATM   13  C13 UNK     1      18.841  -0.333  32.741  1.00  0.00     0.015 A 
HETATM   14  C15 UNK     1      19.164  -1.270  33.723  1.00  0.00     0.037 A 
ENDBRANCH   4   5
ENDBRANCH   3   4
ENDBRANCH   2   3
BRANCH   2  15
HETATM   15  O3  UNK     1      19.261  -4.766  36.395  1.00  0.00    -0.277 OA
BRANCH  15  16
HETATM   16  C8  UNK     1      19.458  -6.091  36.632  1.00  0.00     0.082 A 
HETATM   17  C7  UNK     1      20.278  -6.838  35.792  1.00  0.00     0.075 A 
HETATM   18  C2  UNK     1      20.466  -8.196  36.053  1.00  0.00     0.092 A 
HETATM   19  C1  UNK     1      19.858  -8.838  37.134  1.00  0.00     0.004 A 
HETATM   20  O1  UNK     1      21.308  -8.899  35.168  1.00  0.00    -0.275 OA
HETATM   21  C3  UNK     1      20.112 -10.271  37.333  1.00  0.00    -0.043 A 
HETATM   22  C6  UNK     1      19.036  -8.069  37.967  1.00  0.00     0.017 A 
HETATM   23  C12 UNK     1      20.917 -10.914  36.475  1.00  0.00     0.090 A 
HETATM   24  C14 UNK     1      19.474 -10.990  38.485  1.00  0.00     0.049 C 
HETATM   25  C18 UNK     1      21.566 -10.250  35.332  1.00  0.00     0.288 A 
HETATM   26  O4  UNK     1      22.296 -10.872  34.567  1.00  0.00    -0.260 OA
HETATM   27  C9  UNK     1      18.838  -6.706  37.718  1.00  0.00     0.038 A 
ENDBRANCH  15  16
ENDBRANCH   2  15
TORSDOF 5
ENDMDL
MODEL 2
REMARK VINA RESULT:      -9.9      2.188      9.665
REMARK  5 active torsions:
REMARK  status: ('A' for Active; 'I' for Inactive)
REMARK    1  A    between atoms: C11_16  and  O2_2 
REMARK    2  A    between atoms: C20_25  and  O2_2 
REMARK    3  A    between atoms: C22_27  and  O3_3 
REMARK    4  A    between atoms: C8_13  and  O3_3 
REMARK    5  A    between atoms: C20_25  and  C22_27 
ROOT
HETATM    1  O5  UNK     1      21.423  -1.373  35.732  1.00  0.00    -0.262 OA
HETATM    2  C22 UNK     1      20.487  -2.152  35.851  1.00  0.00     0.288 C 
ENDROOT
BRANCH   2   3
HETATM    3  C20 UNK     1      20.397  -3.251  36.879  1.00  0.00     0.287 C 
BRANCH   3   4
HETATM    4  O2  UNK     1      20.537  -4.497  36.225  1.00  0.00    -0.342 OA
BRANCH   4   5
HETATM    5  C11 UNK     1      20.456  -5.625  37.005  1.00  0.00     0.070 A 
HETATM    6  C10 UNK     1      19.843  -6.765  36.498  1.00  0.00     0.049 A 
HETATM    7  C4  UNK     1      19.751  -7.925  37.284  1.00  0.00    -0.023 A 
HETATM    8  C16 UNK     1      19.138  -9.091  36.797  1.00  0.00     0.012 A 
HETATM    9  C5  UNK     1      20.289  -7.921  38.593  1.00  0.00    -0.026 A 
HETATM   10  C19 UNK     1      19.056 -10.236  37.590  1.00  0.00     0.001 A 
HETATM   11  C21 UNK     1      19.584 -10.231  38.878  1.00  0.00     0.001 A 
HETATM   12  C17 UNK     1      20.197  -9.082  39.377  1.00  0.00     0.012 A 
HETATM   13  C13 UNK     1      20.903  -6.755  39.079  1.00  0.00     0.015 A 
HETATM   14  C15 UNK     1      20.985  -5.610  38.285  1.00  0.00     0.037 A 
ENDBRANCH   4   5
ENDBRANCH   3   4
ENDBRANCH   2   3
BRANCH   2  15
HETATM   15  O3  UNK     1      19.329  -2.162  35.052  1.00  0.00    -0.277 OA
BRANCH  15  16
HETATM   16  C8  UNK     1      19.519  -1.693  33.789  1.00  0.00     0.082 A 
HETATM   17  C7  UNK     1      18.916  -0.506  33.386  1.00  0.00     0.075 A 
HETATM   18  C2  UNK     1      19.124  -0.044  32.085  1.00  0.00     0.092 A 
HETATM   19  C1  UNK     1      19.920  -0.732  31.168  1.00  0.00     0.004 A 
HETATM   20  O1  UNK     1      18.487   1.164  31.735  1.00  0.00    -0.275 OA
HETATM   21  C3  UNK     1      20.084  -0.171  29.820  1.00  0.00    -0.043 A 
HETATM   22  C6  UNK     1      20.518  -1.925  31.594  1.00  0.00     0.017 A 
HETATM   23  C12 UNK     1      19.466   0.979  29.515  1.00  0.00     0.090 A 
HETATM   24  C14 UNK     1      20.933  -0.887  28.810  1.00  0.00     0.049 C 
HETATM   25  C18 UNK     1      18.623   1.716  30.472  1.00  0.00     0.288 A 
HETATM   26  O4  UNK     1      18.074   2.766  30.157  1.00  0.00    -0.260 OA
HETATM   27  C9  UNK     1      20.319  -2.401  32.894  1.00  0.00     0.038 A 
ENDBRANCH  15  16
ENDBRANCH   2  15
TORSDOF 5
ENDMDL
MODEL 3
REMARK VINA RESULT:      -9.7      2.376      9.932
REMARK  5 active torsions:
REMARK  status: ('A' for Active; 'I' for Inactive)
REMARK    1  A    between atoms: C11_16  and  O2_2 
REMARK    2  A    between atoms: C20_25  and  O2_2 
REMARK    3  A    between atoms: C22_27  and  O3_3 
REMARK    4  A    between atoms: C8_13  and  O3_3 
REMARK    5  A    between atoms: C20_25  and  C22_27 
ROOT
HETATM    1  O5  UNK     1      21.114  -1.473  35.667  1.00  0.00    -0.262 OA
HETATM    2  C22 UNK     1      20.078  -2.087  35.884  1.00  0.00     0.288 C 
ENDROOT
BRANCH   2   3
HETATM    3  C20 UNK     1      19.937  -3.238  36.847  1.00  0.00     0.287 C 
BRANCH   3   4
HETATM    4  O2  UNK     1      20.791  -4.286  36.430  1.00  0.00    -0.342 OA
BRANCH   4   5
HETATM    5  C11 UNK     1      20.343  -5.571  36.622  1.00  0.00     0.070 A 
HETATM    6  C10 UNK     1      20.603  -6.213  37.827  1.00  0.00     0.049 A 
HETATM    7  C4  UNK     1      20.153  -7.526  38.038  1.00  0.00    -0.023 A 
HETATM    8  C16 UNK     1      20.401  -8.199  39.246  1.00  0.00     0.012 A 
HETATM    9  C5  UNK     1      19.434  -8.185  37.014  1.00  0.00    -0.026 A 
HETATM   10  C19 UNK     1      19.946  -9.503  39.440  1.00  0.00     0.001 A 
HETATM   11  C21 UNK     1      19.240 -10.152  38.432  1.00  0.00     0.001 A 
HETATM   12  C17 UNK     1      18.984  -9.498  37.227  1.00  0.00     0.012 A 
HETATM   13  C13 UNK     1      19.186  -7.513  35.806  1.00  0.00     0.015 A 
HETATM   14  C15 UNK     1      19.640  -6.208  35.613  1.00  0.00     0.037 A 
ENDBRANCH   4   5
ENDBRANCH   3   4
ENDBRANCH   2   3
BRANCH   2  15
HETATM   15  O3  UNK     1      18.836  -1.829  35.277  1.00  0.00    -0.277 OA
BRANCH  15  16
HETATM   16  C8  UNK     1      18.920  -1.150  34.101  1.00  0.00     0.082 A 
HETATM   17  C7  UNK     1      18.445   0.155  34.011  1.00  0.00     0.075 A 
HETATM   18  C2  UNK     1      18.542   0.834  32.795  1.00  0.00     0.092 A 
HETATM   19  C1  UNK     1      19.101   0.248  31.658  1.00  0.00     0.004 A 
HETATM   20  O1  UNK     1      18.044   2.151  32.766  1.00  0.00    -0.275 OA
HETATM   21  C3  UNK     1      19.162   1.037  30.420  1.00  0.00    -0.043 A 
HETATM   22  C6  UNK     1      19.574  -1.066  31.769  1.00  0.00     0.017 A 
HETATM   23  C12 UNK     1      18.681   2.288  30.421  1.00  0.00     0.090 A 
HETATM   24  C14 UNK     1      19.758   0.437  29.180  1.00  0.00     0.049 C 
HETATM   25  C18 UNK     1      18.089   2.919  31.614  1.00  0.00     0.288 A 
HETATM   26  O4  UNK     1      17.658   4.066  31.577  1.00  0.00    -0.260 OA
HETATM   27  C9  UNK     1      19.484  -1.759  32.981  1.00  0.00     0.038 A 
ENDBRANCH  15  16
ENDBRANCH   2  15
TORSDOF 5
ENDMDL
MODEL 4
REMARK VINA RESULT:      -9.7     11.049     13.634
REMARK  5 active torsions:
REMARK  status: ('A' for Active; 'I' for Inactive)
REMARK    1  A    between atoms: C11_16  and  O2_2 
REMARK    2  A    between atoms: C20_25  and  O2_2 
REMARK    3  A    between atoms: C22_27  and  O3_3 
REMARK    4  A    between atoms: C8_13  and  O3_3 
REMARK    5  A    between atoms: C20_25  and  C22_27 
ROOT
HETATM    1  O5  UNK     1      34.862  -4.217  34.062  1.00  0.00    -0.262 OA
HETATM    2  C22 UNK     1      34.489  -4.275  35.227  1.00  0.00     0.288 C 
ENDROOT
BRANCH   2   3
HETATM    3  C20 UNK     1      35.168  -5.064  36.317  1.00  0.00     0.287 C 
BRANCH   3   4
HETATM    4  O2  UNK     1      35.434  -6.367  35.837  1.00  0.00    -0.342 OA
BRANCH   4   5
HETATM    5  C11 UNK     1      34.399  -7.270  35.872  1.00  0.00     0.070 A 
HETATM    6  C10 UNK     1      33.674  -7.433  37.046  1.00  0.00     0.049 A 
HETATM    7  C4  UNK     1      32.613  -8.352  37.098  1.00  0.00    -0.023 A 
HETATM    8  C16 UNK     1      31.863  -8.537  38.271  1.00  0.00     0.012 A 
HETATM    9  C5  UNK     1      32.294  -9.108  35.945  1.00  0.00    -0.026 A 
HETATM   10  C19 UNK     1      30.812  -9.454  38.306  1.00  0.00     0.001 A 
HETATM   11  C21 UNK     1      30.498 -10.198  37.173  1.00  0.00     0.001 A 
HETATM   12  C17 UNK     1      31.234 -10.027  35.999  1.00  0.00     0.012 A 
HETATM   13  C13 UNK     1      33.045  -8.923  34.773  1.00  0.00     0.015 A 
HETATM   14  C15 UNK     1      34.095  -8.006  34.738  1.00  0.00     0.037 A 
ENDBRANCH   4   5
ENDBRANCH   3   4
ENDBRANCH   2   3
BRANCH   2  15
HETATM   15  O3  UNK     1      33.364  -3.617  35.755  1.00  0.00    -0.277 OA
BRANCH  15  16
HETATM   16  C8  UNK     1      32.261  -4.406  35.875  1.00  0.00     0.082 A 
HETATM   17  C7  UNK     1      31.586  -4.483  37.088  1.00  0.00     0.075 A 
HETATM   18  C2  UNK     1      30.457  -5.298  37.190  1.00  0.00     0.092 A 
HETATM   19  C1  UNK     1      29.978  -6.044  36.111  1.00  0.00     0.004 A 
HETATM   20  O1  UNK     1      29.816  -5.336  38.444  1.00  0.00    -0.275 OA
HETATM   21  C3  UNK     1      28.782  -6.875  36.308  1.00  0.00    -0.043 A 
HETATM   22  C6  UNK     1      30.672  -5.952  34.898  1.00  0.00     0.017 A 
HETATM   23  C12 UNK     1      28.193  -6.891  37.512  1.00  0.00     0.090 A 
HETATM   24  C14 UNK     1      28.241  -7.688  35.168  1.00  0.00     0.049 C 
HETATM   25  C18 UNK     1      28.687  -6.110  38.659  1.00  0.00     0.288 A 
HETATM   26  O4  UNK     1      28.121  -6.150  39.745  1.00  0.00    -0.260 OA
HETATM   27  C9  UNK     1      31.804  -5.139  34.781  1.00  0.00     0.038 A 
ENDBRANCH  15  16
ENDBRANCH   2  15
TORSDOF 5
ENDMDL
MODEL 5
REMARK VINA RESULT:      -9.6      8.092     13.726
REMARK  5 active torsions:
REMARK  status: ('A' for Active; 'I' for Inactive)
REMARK    1  A    between atoms: C11_16  and  O2_2 
REMARK    2  A    between atoms: C20_25  and  O2_2 
REMARK    3  A    between atoms: C22_27  and  O3_3 
REMARK    4  A    between atoms: C8_13  and  O3_3 
REMARK    5  A    between atoms: C20_25  and  C22_27 
ROOT
HETATM    1  O5  UNK     1      20.525   5.884  31.513  1.00  0.00    -0.262 OA
HETATM    2  C22 UNK     1      19.443   5.629  32.025  1.00  0.00     0.288 C 
ENDROOT
BRANCH   2   3
HETATM    3  C20 UNK     1      18.226   5.140  31.283  1.00  0.00     0.287 C 
BRANCH   3   4
HETATM    4  O2  UNK     1      17.917   3.833  31.728  1.00  0.00    -0.342 OA
BRANCH   4   5
HETATM    5  C11 UNK     1      18.328   2.789  30.935  1.00  0.00     0.070 A 
HETATM    6  C10 UNK     1      18.986   1.710  31.513  1.00  0.00     0.049 A 
HETATM    7  C4  UNK     1      19.414   0.636  30.716  1.00  0.00    -0.023 A 
HETATM    8  C16 UNK     1      20.081  -0.468  31.272  1.00  0.00     0.012 A 
HETATM    9  C5  UNK     1      19.167   0.665  29.323  1.00  0.00    -0.026 A 
HETATM   10  C19 UNK     1      20.498  -1.528  30.467  1.00  0.00     0.001 A 
HETATM   11  C21 UNK     1      20.257  -1.498  29.097  1.00  0.00     0.001 A 
HETATM   12  C17 UNK     1      19.596  -0.410  28.527  1.00  0.00     0.012 A 
HETATM   13  C13 UNK     1      18.501   1.769  28.766  1.00  0.00     0.015 A 
HETATM   14  C15 UNK     1      18.083   2.828  29.572  1.00  0.00     0.037 A 
ENDBRANCH   4   5
ENDBRANCH   3   4
ENDBRANCH   2   3
BRANCH   2  15
HETATM   15  O3  UNK     1      19.141   5.748  33.394  1.00  0.00    -0.277 OA
BRANCH  15  16
HETATM   16  C8  UNK     1      18.378   6.831  33.705  1.00  0.00     0.082 A 
HETATM   17  C7  UNK     1      18.883   8.115  33.530  1.00  0.00     0.075 A 
HETATM   18  C2  UNK     1      18.083   9.212  33.856  1.00  0.00     0.092 A 
HETATM   19  C1  UNK     1      16.786   9.067  34.353  1.00  0.00     0.004 A 
HETATM   20  O1  UNK     1      18.649  10.487  33.657  1.00  0.00    -0.275 OA
HETATM   21  C3  UNK     1      16.016  10.277  34.669  1.00  0.00    -0.043 A 
HETATM   22  C6  UNK     1      16.297   7.765  34.521  1.00  0.00     0.017 A 
HETATM   23  C12 UNK     1      16.579  11.477  34.470  1.00  0.00     0.090 A 
HETATM   24  C14 UNK     1      14.619  10.156  35.205  1.00  0.00     0.049 C 
HETATM   25  C18 UNK     1      17.946  11.646  33.946  1.00  0.00     0.288 A 
HETATM   26  O4  UNK     1      18.428  12.760  33.777  1.00  0.00    -0.260 OA
HETATM   27  C9  UNK     1      17.086   6.656  34.199  1.00  0.00     0.038 A 
ENDBRANCH  15  16
ENDBRANCH   2  15
TORSDOF 5
ENDMDL
MODEL 6
REMARK VINA RESULT:      -9.6      9.713     11.797
REMARK  5 active torsions:
REMARK  status: ('A' for Active; 'I' for Inactive)
REMARK    1  A    between atoms: C11_16  and  O2_2 
REMARK    2  A    between atoms: C20_25  and  O2_2 
REMARK    3  A    between atoms: C22_27  and  O3_3 
REMARK    4  A    between atoms: C8_13  and  O3_3 
REMARK    5  A    between atoms: C20_25  and  C22_27 
ROOT
HETATM    1  O5  UNK     1      25.970  -5.241  38.623  1.00  0.00    -0.262 OA
HETATM    2  C22 UNK     1      26.768  -6.140  38.851  1.00  0.00     0.288 C 
ENDROOT
BRANCH   2   3
HETATM    3  C20 UNK     1      26.653  -7.553  38.339  1.00  0.00     0.287 C 
BRANCH   3   4
HETATM    4  O2  UNK     1      26.690  -7.528  36.925  1.00  0.00    -0.342 OA
BRANCH   4   5
HETATM    5  C11 UNK     1      27.910  -7.735  36.328  1.00  0.00     0.070 A 
HETATM    6  C10 UNK     1      28.451  -6.746  35.515  1.00  0.00     0.049 A 
HETATM    7  C4  UNK     1      29.696  -6.942  34.897  1.00  0.00    -0.023 A 
HETATM    8  C16 UNK     1      30.266  -5.960  34.071  1.00  0.00     0.012 A 
HETATM    9  C5  UNK     1      30.393  -8.156  35.112  1.00  0.00    -0.026 A 
HETATM   10  C19 UNK     1      31.506  -6.171  33.465  1.00  0.00     0.001 A 
HETATM   11  C21 UNK     1      32.190  -7.364  33.676  1.00  0.00     0.001 A 
HETATM   12  C17 UNK     1      31.638  -8.351  34.494  1.00  0.00     0.012 A 
HETATM   13  C13 UNK     1      29.822  -9.138  35.938  1.00  0.00     0.015 A 
HETATM   14  C15 UNK     1      28.584  -8.926  36.543  1.00  0.00     0.037 A 
ENDBRANCH   4   5
ENDBRANCH   3   4
ENDBRANCH   2   3
BRANCH   2  15
HETATM   15  O3  UNK     1      27.932  -6.017  39.631  1.00  0.00    -0.277 OA
BRANCH  15  16
HETATM   16  C8  UNK     1      29.034  -5.633  38.931  1.00  0.00     0.082 A 
HETATM   17  C7  UNK     1      30.103  -6.509  38.773  1.00  0.00     0.075 A 
HETATM   18  C2  UNK     1      31.224  -6.095  38.052  1.00  0.00     0.092 A 
HETATM   19  C1  UNK     1      31.313  -4.825  37.479  1.00  0.00     0.004 A 
HETATM   20  O1  UNK     1      32.273  -7.027  37.926  1.00  0.00    -0.275 OA
HETATM   21  C3  UNK     1      32.531  -4.474  36.736  1.00  0.00    -0.043 A 
HETATM   22  C6  UNK     1      30.226  -3.958  37.649  1.00  0.00     0.017 A 
HETATM   23  C12 UNK     1      33.513  -5.379  36.633  1.00  0.00     0.090 A 
HETATM   24  C14 UNK     1      32.658  -3.117  36.107  1.00  0.00     0.049 C 
HETATM   25  C18 UNK     1      33.433  -6.723  37.231  1.00  0.00     0.288 A 
HETATM   26  O4  UNK     1      34.353  -7.526  37.116  1.00  0.00    -0.260 OA
HETATM   27  C9  UNK     1      29.096  -4.359  38.369  1.00  0.00     0.038 A 
ENDBRANCH  15  16
ENDBRANCH   2  15
TORSDOF 5
ENDMDL
MODEL 7
REMARK VINA RESULT:      -9.5      6.507     12.380
REMARK  5 active torsions:
REMARK  status: ('A' for Active; 'I' for Inactive)
REMARK    1  A    between atoms: C11_16  and  O2_2 
REMARK    2  A    between atoms: C20_25  and  O2_2 
REMARK    3  A    between atoms: C22_27  and  O3_3 
REMARK    4  A    between atoms: C8_13  and  O3_3 
REMARK    5  A    between atoms: C20_25  and  C22_27 
ROOT
HETATM    1  O5  UNK     1      17.506   2.066  29.708  1.00  0.00    -0.262 OA
HETATM    2  C22 UNK     1      18.383   2.642  30.339  1.00  0.00     0.288 C 
ENDROOT
BRANCH   2   3
HETATM    3  C20 UNK     1      18.983   2.155  31.633  1.00  0.00     0.287 C 
BRANCH   3   4
HETATM    4  O2  UNK     1      18.591   0.811  31.839  1.00  0.00    -0.342 OA
BRANCH   4   5
HETATM    5  C11 UNK     1      18.487   0.382  33.140  1.00  0.00     0.070 A 
HETATM    6  C10 UNK     1      18.123   1.286  34.130  1.00  0.00     0.049 A 
HETATM    7  C4  UNK     1      18.013   0.864  35.465  1.00  0.00    -0.023 A 
HETATM    8  C16 UNK     1      17.646   1.755  36.487  1.00  0.00     0.012 A 
HETATM    9  C5  UNK     1      18.276  -0.489  35.788  1.00  0.00    -0.026 A 
HETATM   10  C19 UNK     1      17.540   1.319  37.808  1.00  0.00     0.001 A 
HETATM   11  C21 UNK     1      17.800  -0.011  38.125  1.00  0.00     0.001 A 
HETATM   12  C17 UNK     1      18.166  -0.909  37.123  1.00  0.00     0.012 A 
HETATM   13  C13 UNK     1      18.643  -1.380  34.767  1.00  0.00     0.015 A 
HETATM   14  C15 UNK     1      18.748  -0.943  33.446  1.00  0.00     0.037 A 
ENDBRANCH   4   5
ENDBRANCH   3   4
ENDBRANCH   2   3
BRANCH   2  15
HETATM   15  O3  UNK     1      18.986   3.858  29.971  1.00  0.00    -0.277 OA
BRANCH  15  16
HETATM   16  C8  UNK     1      18.916   4.827  30.923  1.00  0.00     0.082 A 
HETATM   17  C7  UNK     1      17.689   5.166  31.485  1.00  0.00     0.075 A 
HETATM   18  C2  UNK     1      17.639   6.163  32.461  1.00  0.00     0.092 A 
HETATM   19  C1  UNK     1      18.782   6.836  32.898  1.00  0.00     0.004 A 
HETATM   20  O1  UNK     1      16.369   6.463  32.992  1.00  0.00    -0.275 OA
HETATM   21  C3  UNK     1      18.636   7.871  33.930  1.00  0.00    -0.043 A 
HETATM   22  C6  UNK     1      20.007   6.479  32.320  1.00  0.00     0.017 A 
HETATM   23  C12 UNK     1      17.416   8.136  34.417  1.00  0.00     0.090 A 
HETATM   24  C14 UNK     1      19.845   8.613  34.421  1.00  0.00     0.049 C 
HETATM   25  C18 UNK     1      16.201   7.434  33.966  1.00  0.00     0.288 A 
HETATM   26  O4  UNK     1      15.101   7.704  34.436  1.00  0.00    -0.260 OA
HETATM   27  C9  UNK     1      20.073   5.482  31.341  1.00  0.00     0.038 A 
ENDBRANCH  15  16
ENDBRANCH   2  15
TORSDOF 5
ENDMDL
MODEL 8
REMARK VINA RESULT:      -9.5      9.803     11.783
REMARK  5 active torsions:
REMARK  status: ('A' for Active; 'I' for Inactive)
REMARK    1  A    between atoms: C11_16  and  O2_2 
REMARK    2  A    between atoms: C20_25  and  O2_2 
REMARK    3  A    between atoms: C22_27  and  O3_3 
REMARK    4  A    between atoms: C8_13  and  O3_3 
REMARK    5  A    between atoms: C20_25  and  C22_27 
ROOT
HETATM    1  O5  UNK     1      26.129  -5.083  38.707  1.00  0.00    -0.262 OA
HETATM    2  C22 UNK     1      26.860  -6.063  38.654  1.00  0.00     0.288 C 
ENDROOT
BRANCH   2   3
HETATM    3  C20 UNK     1      28.101  -6.267  39.486  1.00  0.00     0.287 C 
BRANCH   3   4
HETATM    4  O2  UNK     1      28.883  -5.089  39.432  1.00  0.00    -0.342 OA
BRANCH   4   5
HETATM    5  C11 UNK     1      29.991  -5.112  38.620  1.00  0.00     0.070 A 
HETATM    6  C10 UNK     1      30.872  -6.184  38.695  1.00  0.00     0.049 A 
HETATM    7  C4  UNK     1      32.010  -6.221  37.873  1.00  0.00    -0.023 A 
HETATM    8  C16 UNK     1      32.917  -7.292  37.927  1.00  0.00     0.012 A 
HETATM    9  C5  UNK     1      32.247  -5.158  36.969  1.00  0.00    -0.026 A 
HETATM   10  C19 UNK     1      34.042  -7.315  37.102  1.00  0.00     0.001 A 
HETATM   11  C21 UNK     1      34.275  -6.269  36.214  1.00  0.00     0.001 A 
HETATM   12  C17 UNK     1      33.384  -5.198  36.147  1.00  0.00     0.012 A 
HETATM   13  C13 UNK     1      31.340  -4.088  36.914  1.00  0.00     0.015 A 
HETATM   14  C15 UNK     1      30.215  -4.066  37.739  1.00  0.00     0.037 A 
ENDBRANCH   4   5
ENDBRANCH   3   4
ENDBRANCH   2   3
BRANCH   2  15
HETATM   15  O3  UNK     1      26.675  -7.173  37.810  1.00  0.00    -0.277 OA
BRANCH  15  16
HETATM   16  C8  UNK     1      27.783  -7.528  37.104  1.00  0.00     0.082 A 
HETATM   17  C7  UNK     1      28.233  -6.729  36.058  1.00  0.00     0.075 A 
HETATM   18  C2  UNK     1      29.372  -7.112  35.348  1.00  0.00     0.092 A 
HETATM   19  C1  UNK     1      30.082  -8.275  35.651  1.00  0.00     0.004 A 
HETATM   20  O1  UNK     1      29.778  -6.262  34.300  1.00  0.00    -0.275 OA
HETATM   21  C3  UNK     1      31.270  -8.601  34.850  1.00  0.00    -0.043 A 
HETATM   22  C6  UNK     1      29.613  -9.066  36.708  1.00  0.00     0.017 A 
HETATM   23  C12 UNK     1      31.633  -7.775  33.859  1.00  0.00     0.090 A 
HETATM   24  C14 UNK     1      32.056  -9.844  35.150  1.00  0.00     0.049 C 
HETATM   25  C18 UNK     1      30.894  -6.544  33.529  1.00  0.00     0.288 A 
HETATM   26  O4  UNK     1      31.256  -5.812  32.614  1.00  0.00    -0.260 OA
HETATM   27  C9  UNK     1      28.474  -8.695  37.429  1.00  0.00     0.038 A 
ENDBRANCH  15  16
ENDBRANCH   2  15
TORSDOF 5
ENDMDL
MODEL 9
REMARK VINA RESULT:      -9.5      1.658      2.047
REMARK  5 active torsions:
REMARK  status: ('A' for Active; 'I' for Inactive)
REMARK    1  A    between atoms: C11_16  and  O2_2 
REMARK    2  A    between atoms: C20_25  and  O2_2 
REMARK    3  A    between atoms: C22_27  and  O3_3 
REMARK    4  A    between atoms: C8_13  and  O3_3 
REMARK    5  A    between atoms: C20_25  and  C22_27 
ROOT
HETATM    1  O5  UNK     1      21.216  -2.421  35.616  1.00  0.00    -0.262 OA
HETATM    2  C22 UNK     1      20.035  -2.389  35.937  1.00  0.00     0.288 C 
ENDROOT
BRANCH   2   3
HETATM    3  C20 UNK     1      19.193  -1.142  36.025  1.00  0.00     0.287 C 
BRANCH   3   4
HETATM    4  O2  UNK     1      18.217  -1.179  35.002  1.00  0.00    -0.342 OA
BRANCH   4   5
HETATM    5  C11 UNK     1      18.591  -0.712  33.765  1.00  0.00     0.070 A 
HETATM    6  C10 UNK     1      19.173  -1.584  32.852  1.00  0.00     0.049 A 
HETATM    7  C4  UNK     1      19.561  -1.123  31.584  1.00  0.00    -0.023 A 
HETATM    8  C16 UNK     1      20.151  -1.981  30.642  1.00  0.00     0.012 A 
HETATM    9  C5  UNK     1      19.354   0.236  31.248  1.00  0.00    -0.026 A 
HETATM   10  C19 UNK     1      20.530  -1.507  29.386  1.00  0.00     0.001 A 
HETATM   11  C21 UNK     1      20.327  -0.171  29.055  1.00  0.00     0.001 A 
HETATM   12  C17 UNK     1      19.742   0.696  29.979  1.00  0.00     0.012 A 
HETATM   13  C13 UNK     1      18.764   1.095  32.190  1.00  0.00     0.015 A 
HETATM   14  C15 UNK     1      18.385   0.620  33.445  1.00  0.00     0.037 A 
ENDBRANCH   4   5
ENDBRANCH   3   4
ENDBRANCH   2   3
BRANCH   2  15
HETATM   15  O3  UNK     1      19.254  -3.508  36.280  1.00  0.00    -0.277 OA
BRANCH  15  16
HETATM   16  C8  UNK     1      19.976  -4.616  36.598  1.00  0.00     0.082 A 
HETATM   17  C7  UNK     1      20.029  -5.692  35.717  1.00  0.00     0.075 A 
HETATM   18  C2  UNK     1      20.776  -6.820  36.063  1.00  0.00     0.092 A 
HETATM   19  C1  UNK     1      21.477  -6.908  37.267  1.00  0.00     0.004 A 
HETATM   20  O1  UNK     1      20.791  -7.876  35.131  1.00  0.00    -0.275 OA
HETATM   21  C3  UNK     1      22.238  -8.134  37.548  1.00  0.00    -0.043 A 
HETATM   22  C6  UNK     1      21.411  -5.815  38.139  1.00  0.00     0.017 A 
HETATM   23  C12 UNK     1      22.234  -9.123  36.644  1.00  0.00     0.090 A 
HETATM   24  C14 UNK     1      23.002  -8.261  38.833  1.00  0.00     0.049 C 
HETATM   25  C18 UNK     1      21.500  -9.043  35.369  1.00  0.00     0.288 A 
HETATM   26  O4  UNK     1      21.520  -9.969  34.565  1.00  0.00    -0.260 OA
HETATM   27  C9  UNK     1      20.667  -4.677  37.807  1.00  0.00     0.038 A 
ENDBRANCH  15  16
ENDBRANCH   2  15
TORSDOF 5
ENDMDL
MODEL 10
REMARK VINA RESULT:      -9.5      2.169      9.558
REMARK  5 active torsions:
REMARK  status: ('A' for Active; 'I' for Inactive)
REMARK    1  A    between atoms: C11_16  and  O2_2 
REMARK    2  A    between atoms: C20_25  and  O2_2 
REMARK    3  A    between atoms: C22_27  and  O3_3 
REMARK    4  A    between atoms: C8_13  and  O3_3 
REMARK    5  A    between atoms: C20_25  and  C22_27 
ROOT
HETATM    1  O5  UNK     1      20.866  -1.480  35.651  1.00  0.00    -0.262 OA
HETATM    2  C22 UNK     1      19.797  -2.033  35.871  1.00  0.00     0.288 C 
ENDROOT
BRANCH   2   3
HETATM    3  C20 UNK     1      19.606  -3.220  36.780  1.00  0.00     0.287 C 
BRANCH   3   4
HETATM    4  O2  UNK     1      20.550  -4.215  36.434  1.00  0.00    -0.342 OA
BRANCH   4   5
HETATM    5  C11 UNK     1      20.172  -5.524  36.612  1.00  0.00     0.070 A 
HETATM    6  C10 UNK     1      20.441  -6.155  37.820  1.00  0.00     0.049 A 
HETATM    7  C4  UNK     1      20.062  -7.493  38.018  1.00  0.00    -0.023 A 
HETATM    8  C16 UNK     1      20.320  -8.156  39.229  1.00  0.00     0.012 A 
HETATM    9  C5  UNK     1      19.405  -8.188  36.975  1.00  0.00    -0.026 A 
HETATM   10  C19 UNK     1      19.937  -9.485  39.409  1.00  0.00     0.001 A 
HETATM   11  C21 UNK     1      19.292 -10.169  38.383  1.00  0.00     0.001 A 
HETATM   12  C17 UNK     1      19.027  -9.526  37.173  1.00  0.00     0.012 A 
HETATM   13  C13 UNK     1      19.147  -7.526  35.764  1.00  0.00     0.015 A 
HETATM   14  C15 UNK     1      19.530  -6.197  35.584  1.00  0.00     0.037 A 
ENDBRANCH   4   5
ENDBRANCH   3   4
ENDBRANCH   2   3
BRANCH   2  15
HETATM   15  O3  UNK     1      18.559  -1.663  35.317  1.00  0.00    -0.277 OA
BRANCH  15  16
HETATM   16  C8  UNK     1      18.655  -0.864  34.220  1.00  0.00     0.082 A 
HETATM   17  C7  UNK     1      19.157  -1.373  33.026  1.00  0.00     0.075 A 
HETATM   18  C2  UNK     1      19.248  -0.536  31.913  1.00  0.00     0.092 A 
HETATM   19  C1  UNK     1      18.849   0.801  31.952  1.00  0.00     0.004 A 
HETATM   20  O1  UNK     1      19.764  -1.109  30.733  1.00  0.00    -0.275 OA
HETATM   21  C3  UNK     1      18.980   1.609  30.731  1.00  0.00    -0.043 A 
HETATM   22  C6  UNK     1      18.346   1.294  33.163  1.00  0.00     0.017 A 
HETATM   23  C12 UNK     1      19.475   1.038  29.624  1.00  0.00     0.090 A 
HETATM   24  C14 UNK     1      18.561   3.050  30.740  1.00  0.00     0.049 C 
HETATM   25  C18 UNK     1      19.898  -0.372  29.567  1.00  0.00     0.288 A 
HETATM   26  O4  UNK     1      20.347  -0.859  28.536  1.00  0.00    -0.260 OA
HETATM   27  C9  UNK     1      18.249   0.468  34.287  1.00  0.00     0.038 A 
ENDBRANCH  15  16
ENDBRANCH   2  15
TORSDOF 5
ENDMDL
