MODEL 1
REMARK VINA RESULT:      -8.7      0.000      0.000
REMARK  2 active torsions:
REMARK  status: ('A' for Active; 'I' for Inactive)
REMARK    1  A    between atoms: C5_12  and  N1_6 
REMARK       I    between atoms: C6_13  and  N2_7 
REMARK    2  A    between atoms: C6_13  and  C7_14 
ROOT
HETATM    1  O1  UNK     1       9.684   5.604   6.921  1.00  0.00    -0.267 OA
HETATM    2  N1  UNK     1      13.546   8.380   8.626  1.00  0.00    -0.378 N 
HETATM    3  N2  UNK     1      11.021   7.040   8.172  1.00  0.00    -0.345 N 
HETATM    4  C1  UNK     1      12.315   8.907   9.217  1.00  0.00     0.143 C 
HETATM    5  C2  UNK     1      13.439   7.248   7.700  1.00  0.00     0.143 C 
HETATM    6  C3  UNK     1      11.281   7.796   9.402  1.00  0.00     0.146 C 
HETATM    7  C4  UNK     1      12.030   7.155   7.121  1.00  0.00     0.146 C 
HETATM    8  C6  UNK     1       9.902   6.240   7.953  1.00  0.00     0.260 C 
ENDROOT
BRANCH   8   9
HETATM    9  C7  UNK     1       8.915   6.144   9.049  1.00  0.00     0.108 A 
HETATM   10  C10 UNK     1       8.064   7.170   9.171  1.00  0.00     0.037 A 
HETATM   11  C11 UNK     1       7.057   7.166  10.220  1.00  0.00     0.000 A 
HETATM   12  C15 UNK     1       6.995   6.082  11.091  1.00  0.00     0.089 A 
HETATM   13  C17 UNK     1       6.149   8.215  10.384  1.00  0.00     0.033 A 
HETATM   14  C18 UNK     1       6.055   6.018  12.116  1.00  0.00     0.039 A 
HETATM   15  O2  UNK     1       7.893   5.006  10.957  1.00  0.00    -0.274 OA
HETATM   16  C20 UNK     1       5.153   7.068  12.273  1.00  0.00     0.022 A 
HETATM   17  C19 UNK     1       5.199   8.164  11.408  1.00  0.00     0.011 A 
HETATM   18 Br1  UNK     1       3.972   9.587  11.627  1.00  0.00    -0.051 Br
HETATM   19  C12 UNK     1       8.868   4.981   9.963  1.00  0.00     0.304 A 
HETATM   20  O3  UNK     1       9.646   4.040   9.855  1.00  0.00    -0.259 OA
ENDBRANCH   8   9
BRANCH   2  21
HETATM   21  C5  UNK     1      14.781   8.972   8.879  1.00  0.00     0.030 A 
HETATM   22  C8  UNK     1      15.746   8.342   9.701  1.00  0.00     0.032 A 
HETATM   23  C13 UNK     1      16.983   8.936   9.955  1.00  0.00     0.044 A 
HETATM   24  C16 UNK     1      17.289  10.177   9.395  1.00  0.00     0.116 A 
HETATM   25  C14 UNK     1      16.359  10.823   8.581  1.00  0.00     0.044 A 
HETATM   26  F1  UNK     1      18.477  10.746   9.639  1.00  0.00    -0.206 F 
HETATM   27  C9  UNK     1      15.123  10.230   8.327  1.00  0.00     0.032 A 
ENDBRANCH   2  21
TORSDOF 2
ENDMDL
MODEL 2
REMARK VINA RESULT:      -8.4      5.107      9.370
REMARK  2 active torsions:
REMARK  status: ('A' for Active; 'I' for Inactive)
REMARK    1  A    between atoms: C5_12  and  N1_6 
REMARK       I    between atoms: C6_13  and  N2_7 
REMARK    2  A    between atoms: C6_13  and  C7_14 
ROOT
HETATM    1  O1  UNK     1       6.280   7.959   9.445  1.00  0.00    -0.267 OA
HETATM    2  N1  UNK     1       5.966   4.544  13.157  1.00  0.00    -0.378 N 
HETATM    3  N2  UNK     1       6.611   6.096  10.800  1.00  0.00    -0.345 N 
HETATM    4  C1  UNK     1       6.620   3.908  12.012  1.00  0.00     0.143 C 
HETATM    5  C2  UNK     1       5.534   5.938  13.019  1.00  0.00     0.143 C 
HETATM    6  C3  UNK     1       7.412   4.932  11.198  1.00  0.00     0.146 C 
HETATM    7  C4  UNK     1       5.375   6.312  11.548  1.00  0.00     0.146 C 
HETATM    8  C6  UNK     1       6.951   6.982   9.780  1.00  0.00     0.260 C 
ENDROOT
BRANCH   8   9
HETATM    9  C7  UNK     1       8.217   6.729   9.060  1.00  0.00     0.108 A 
HETATM   10  C10 UNK     1       9.233   7.554   9.341  1.00  0.00     0.037 A 
HETATM   11  C11 UNK     1      10.518   7.385   8.682  1.00  0.00     0.000 A 
HETATM   12  C15 UNK     1      10.672   6.355   7.759  1.00  0.00     0.089 A 
HETATM   13  C17 UNK     1      11.605   8.222   8.945  1.00  0.00     0.033 A 
HETATM   14  C18 UNK     1      11.877   6.140   7.094  1.00  0.00     0.039 A 
HETATM   15  O2  UNK     1       9.599   5.490   7.468  1.00  0.00    -0.274 OA
HETATM   16  C20 UNK     1      12.955   6.980   7.361  1.00  0.00     0.022 A 
HETATM   17  C19 UNK     1      12.821   8.019   8.285  1.00  0.00     0.011 A 
HETATM   18 Br1  UNK     1      14.289   9.155   8.644  1.00  0.00    -0.051 Br
HETATM   19  C12 UNK     1       8.357   5.627   8.082  1.00  0.00     0.304 A 
HETATM   20  O3  UNK     1       7.429   4.870   7.821  1.00  0.00    -0.259 OA
ENDBRANCH   8   9
BRANCH   2  21
HETATM   21  C5  UNK     1       5.700   3.833  14.325  1.00  0.00     0.030 A 
HETATM   22  C8  UNK     1       5.559   4.489  15.571  1.00  0.00     0.032 A 
HETATM   23  C13 UNK     1       5.295   3.776  16.741  1.00  0.00     0.044 A 
HETATM   24  C16 UNK     1       5.164   2.387  16.697  1.00  0.00     0.116 A 
HETATM   25  C14 UNK     1       5.298   1.712  15.484  1.00  0.00     0.044 A 
HETATM   26  F1  UNK     1       4.909   1.704  17.820  1.00  0.00    -0.206 F 
HETATM   27  C9  UNK     1       5.563   2.424  14.315  1.00  0.00     0.032 A 
ENDBRANCH   2  21
TORSDOF 2
ENDMDL
MODEL 3
REMARK VINA RESULT:      -8.3      5.830     10.272
REMARK  2 active torsions:
REMARK  status: ('A' for Active; 'I' for Inactive)
REMARK    1  A    between atoms: C5_12  and  N1_6 
REMARK       I    between atoms: C6_13  and  N2_7 
REMARK    2  A    between atoms: C6_13  and  C7_14 
ROOT
HETATM    1  O1  UNK     1      17.795   8.513  10.195  1.00  0.00    -0.267 OA
HETATM    2  N1  UNK     1      13.111   7.724   8.470  1.00  0.00    -0.378 N 
HETATM    3  N2  UNK     1      15.648   8.808   9.346  1.00  0.00    -0.345 N 
HETATM    4  C1  UNK     1      13.211   9.126   8.880  1.00  0.00     0.143 C 
HETATM    5  C2  UNK     1      14.288   6.866   8.644  1.00  0.00     0.143 C 
HETATM    6  C3  UNK     1      14.637   9.647   8.694  1.00  0.00     0.146 C 
HETATM    7  C4  UNK     1      15.231   7.451   9.692  1.00  0.00     0.146 C 
HETATM    8  C6  UNK     1      16.945   9.217   9.648  1.00  0.00     0.260 C 
ENDROOT
BRANCH   8   9
HETATM    9  C7  UNK     1      17.324  10.594   9.268  1.00  0.00     0.108 A 
HETATM   10  C10 UNK     1      17.937  10.735   8.086  1.00  0.00     0.037 A 
HETATM   11  C11 UNK     1      18.349  12.052   7.626  1.00  0.00     0.000 A 
HETATM   12  C15 UNK     1      18.095  13.157   8.433  1.00  0.00     0.089 A 
HETATM   13  C17 UNK     1      18.991  12.245   6.401  1.00  0.00     0.033 A 
HETATM   14  C18 UNK     1      18.464  14.444   8.051  1.00  0.00     0.039 A 
HETATM   15  O2  UNK     1      17.450  13.002   9.675  1.00  0.00    -0.274 OA
HETATM   16  C20 UNK     1      19.104  14.629   6.827  1.00  0.00     0.022 A 
HETATM   17  C19 UNK     1      19.366  13.532   6.003  1.00  0.00     0.011 A 
HETATM   18 Br1  UNK     1      20.236  13.788   4.343  1.00  0.00    -0.051 Br
HETATM   19  C12 UNK     1      17.044  11.754  10.142  1.00  0.00     0.304 A 
HETATM   20  O3  UNK     1      16.483  11.629  11.226  1.00  0.00    -0.259 OA
ENDBRANCH   8   9
BRANCH   2  21
HETATM   21  C5  UNK     1      11.916   7.195   7.987  1.00  0.00     0.030 A 
HETATM   22  C8  UNK     1      10.750   7.159   8.788  1.00  0.00     0.032 A 
HETATM   23  C13 UNK     1       9.553   6.628   8.305  1.00  0.00     0.044 A 
HETATM   24  C16 UNK     1       9.490   6.117   7.007  1.00  0.00     0.116 A 
HETATM   25  C14 UNK     1      10.623   6.138   6.194  1.00  0.00     0.044 A 
HETATM   26  F1  UNK     1       8.341   5.609   6.544  1.00  0.00    -0.206 F 
HETATM   27  C9  UNK     1      11.819   6.668   6.677  1.00  0.00     0.032 A 
ENDBRANCH   2  21
TORSDOF 2
ENDMDL
MODEL 4
REMARK VINA RESULT:      -8.2     33.645     35.648
REMARK  2 active torsions:
REMARK  status: ('A' for Active; 'I' for Inactive)
REMARK    1  A    between atoms: C5_12  and  N1_6 
REMARK       I    between atoms: C6_13  and  N2_7 
REMARK    2  A    between atoms: C6_13  and  C7_14 
ROOT
HETATM    1  O1  UNK     1      25.786 -11.694  35.879  1.00  0.00    -0.267 OA
HETATM    2  N1  UNK     1      21.770  -8.720  36.633  1.00  0.00    -0.378 N 
HETATM    3  N2  UNK     1      24.364 -10.005  36.616  1.00  0.00    -0.345 N 
HETATM    4  C1  UNK     1      22.710  -8.497  37.733  1.00  0.00     0.143 C 
HETATM    5  C2  UNK     1      22.126  -9.707  35.608  1.00  0.00     0.143 C 
HETATM    6  C3  UNK     1      24.152  -8.708  37.268  1.00  0.00     0.146 C 
HETATM    7  C4  UNK     1      23.163 -10.691  36.143  1.00  0.00     0.146 C 
HETATM    8  C6  UNK     1      25.607 -10.606  36.427  1.00  0.00     0.260 C 
ENDROOT
BRANCH   8   9
HETATM    9  C7  UNK     1      26.793  -9.869  36.911  1.00  0.00     0.108 A 
HETATM   10  C10 UNK     1      27.427  -9.109  36.010  1.00  0.00     0.037 A 
HETATM   11  C11 UNK     1      28.606  -8.347  36.393  1.00  0.00     0.000 A 
HETATM   12  C15 UNK     1      29.059  -8.422  37.706  1.00  0.00     0.089 A 
HETATM   13  C17 UNK     1      29.298  -7.542  35.485  1.00  0.00     0.033 A 
HETATM   14  C18 UNK     1      30.180  -7.717  38.136  1.00  0.00     0.039 A 
HETATM   15  O2  UNK     1      28.387  -9.222  38.650  1.00  0.00    -0.274 OA
HETATM   16  C20 UNK     1      30.866  -6.916  37.225  1.00  0.00     0.022 A 
HETATM   17  C19 UNK     1      30.425  -6.828  35.902  1.00  0.00     0.011 A 
HETATM   18 Br1  UNK     1      31.361  -5.740  34.670  1.00  0.00    -0.051 Br
HETATM   19  C12 UNK     1      27.256  -9.963  38.313  1.00  0.00     0.304 A 
HETATM   20  O3  UNK     1      26.678 -10.658  39.142  1.00  0.00    -0.259 OA
ENDBRANCH   8   9
BRANCH   2  21
HETATM   21  C5  UNK     1      20.541  -8.067  36.588  1.00  0.00     0.030 A 
HETATM   22  C8  UNK     1      20.005  -7.588  35.369  1.00  0.00     0.032 A 
HETATM   23  C13 UNK     1      18.774  -6.931  35.325  1.00  0.00     0.044 A 
HETATM   24  C16 UNK     1      18.046  -6.736  36.499  1.00  0.00     0.116 A 
HETATM   25  C14 UNK     1      18.547  -7.196  37.716  1.00  0.00     0.044 A 
HETATM   26  F1  UNK     1      16.864  -6.107  36.456  1.00  0.00    -0.206 F 
HETATM   27  C9  UNK     1      19.778  -7.851  37.761  1.00  0.00     0.032 A 
ENDBRANCH   2  21
TORSDOF 2
ENDMDL
MODEL 5
REMARK VINA RESULT:      -8.2     30.390     31.658
REMARK  2 active torsions:
REMARK  status: ('A' for Active; 'I' for Inactive)
REMARK    1  A    between atoms: C5_12  and  N1_6 
REMARK       I    between atoms: C6_13  and  N2_7 
REMARK    2  A    between atoms: C6_13  and  C7_14 
ROOT
HETATM    1  O1  UNK     1      20.177  -5.805  39.276  1.00  0.00    -0.267 OA
HETATM    2  N1  UNK     1      19.437  -2.243  35.769  1.00  0.00    -0.378 N 
HETATM    3  N2  UNK     1      20.096  -4.629  37.269  1.00  0.00    -0.345 N 
HETATM    4  C1  UNK     1      20.420  -3.194  35.246  1.00  0.00     0.143 C 
HETATM    5  C2  UNK     1      18.908  -2.467  37.118  1.00  0.00     0.143 C 
HETATM    6  C3  UNK     1      20.171  -4.596  35.804  1.00  0.00     0.146 C 
HETATM    7  C4  UNK     1      19.853  -3.349  37.930  1.00  0.00     0.146 C 
HETATM    8  C6  UNK     1      20.240  -5.777  38.046  1.00  0.00     0.260 C 
ENDROOT
BRANCH   8   9
HETATM    9  C7  UNK     1      20.473  -7.050  37.333  1.00  0.00     0.108 A 
HETATM   10  C10 UNK     1      21.715  -7.545  37.394  1.00  0.00     0.037 A 
HETATM   11  C11 UNK     1      22.040  -8.794  36.723  1.00  0.00     0.000 A 
HETATM   12  C15 UNK     1      21.042  -9.461  36.020  1.00  0.00     0.089 A 
HETATM   13  C17 UNK     1      23.322  -9.346  36.761  1.00  0.00     0.033 A 
HETATM   14  C18 UNK     1      21.289 -10.660  35.356  1.00  0.00     0.039 A 
HETATM   15  O2  UNK     1      19.737  -8.935  35.959  1.00  0.00    -0.274 OA
HETATM   16  C20 UNK     1      22.570 -11.204  35.398  1.00  0.00     0.022 A 
HETATM   17  C19 UNK     1      23.586 -10.550  36.100  1.00  0.00     0.011 A 
HETATM   18 Br1  UNK     1      25.323 -11.294  36.153  1.00  0.00    -0.051 Br
HETATM   19  C12 UNK     1      19.395  -7.743  36.592  1.00  0.00     0.304 A 
HETATM   20  O3  UNK     1      18.256  -7.292  36.532  1.00  0.00    -0.259 OA
ENDBRANCH   8   9
BRANCH   2  21
HETATM   21  C5  UNK     1      19.059  -1.119  35.038  1.00  0.00     0.030 A 
HETATM   22  C8  UNK     1      18.987  -1.149  33.625  1.00  0.00     0.032 A 
HETATM   23  C13 UNK     1      18.610  -0.022  32.893  1.00  0.00     0.044 A 
HETATM   24  C16 UNK     1      18.294   1.165  33.555  1.00  0.00     0.116 A 
HETATM   25  C14 UNK     1      18.355   1.226  34.946  1.00  0.00     0.044 A 
HETATM   26  F1  UNK     1      17.931   2.246  32.852  1.00  0.00    -0.206 F 
HETATM   27  C9  UNK     1      18.733   0.101  35.678  1.00  0.00     0.032 A 
ENDBRANCH   2  21
TORSDOF 2
ENDMDL
MODEL 6
REMARK VINA RESULT:      -8.2      4.579      8.884
REMARK  2 active torsions:
REMARK  status: ('A' for Active; 'I' for Inactive)
REMARK    1  A    between atoms: C5_12  and  N1_6 
REMARK       I    between atoms: C6_13  and  N2_7 
REMARK    2  A    between atoms: C6_13  and  C7_14 
ROOT
HETATM    1  O1  UNK     1      11.529   6.920   6.156  1.00  0.00    -0.267 OA
HETATM    2  N1  UNK     1       8.186   5.222   9.544  1.00  0.00    -0.378 N 
HETATM    3  N2  UNK     1      10.542   5.987   8.045  1.00  0.00    -0.345 N 
HETATM    4  C1  UNK     1       9.477   4.592   9.827  1.00  0.00     0.143 C 
HETATM    5  C2  UNK     1       8.101   6.140   8.404  1.00  0.00     0.143 C 
HETATM    6  C3  UNK     1      10.632   5.513   9.431  1.00  0.00     0.146 C 
HETATM    7  C4  UNK     1       9.230   5.875   7.411  1.00  0.00     0.146 C 
HETATM    8  C6  UNK     1      11.603   6.522   7.319  1.00  0.00     0.260 C 
ENDROOT
BRANCH   8   9
HETATM    9  C7  UNK     1      12.908   6.626   8.006  1.00  0.00     0.108 A 
HETATM   10  C10 UNK     1      13.310   7.861   8.330  1.00  0.00     0.037 A 
HETATM   11  C11 UNK     1      14.580   8.063   9.008  1.00  0.00     0.000 A 
HETATM   12  C15 UNK     1      15.366   6.956   9.313  1.00  0.00     0.089 A 
HETATM   13  C17 UNK     1      15.039   9.334   9.364  1.00  0.00     0.033 A 
HETATM   14  C18 UNK     1      16.592   7.083   9.961  1.00  0.00     0.039 A 
HETATM   15  O2  UNK     1      14.937   5.659   8.970  1.00  0.00    -0.274 OA
HETATM   16  C20 UNK     1      17.043   8.353  10.313  1.00  0.00     0.022 A 
HETATM   17  C19 UNK     1      16.268   9.477  10.016  1.00  0.00     0.011 A 
HETATM   18 Br1  UNK     1      16.885  11.199  10.495  1.00  0.00    -0.051 Br
HETATM   19  C12 UNK     1      13.726   5.433   8.321  1.00  0.00     0.304 A 
HETATM   20  O3  UNK     1      13.361   4.300   8.025  1.00  0.00    -0.259 OA
ENDBRANCH   8   9
BRANCH   2  21
HETATM   21  C5  UNK     1       7.052   4.915  10.291  1.00  0.00     0.030 A 
HETATM   22  C8  UNK     1       6.435   3.645  10.206  1.00  0.00     0.032 A 
HETATM   23  C13 UNK     1       5.297   3.338  10.954  1.00  0.00     0.044 A 
HETATM   24  C16 UNK     1       4.745   4.294  11.808  1.00  0.00     0.116 A 
HETATM   25  C14 UNK     1       5.330   5.555  11.914  1.00  0.00     0.044 A 
HETATM   26  F1  UNK     1       3.654   3.998  12.526  1.00  0.00    -0.206 F 
HETATM   27  C9  UNK     1       6.467   5.862  11.166  1.00  0.00     0.032 A 
ENDBRANCH   2  21
TORSDOF 2
ENDMDL
MODEL 7
REMARK VINA RESULT:      -8.2     36.253     37.173
REMARK  2 active torsions:
REMARK  status: ('A' for Active; 'I' for Inactive)
REMARK    1  A    between atoms: C5_12  and  N1_6 
REMARK       I    between atoms: C6_13  and  N2_7 
REMARK    2  A    between atoms: C6_13  and  C7_14 
ROOT
HETATM    1  O1  UNK     1      30.740  -3.311  37.121  1.00  0.00    -0.267 OA
HETATM    2  N1  UNK     1      34.118  -6.665  35.426  1.00  0.00    -0.378 N 
HETATM    3  N2  UNK     1      31.951  -5.260  36.732  1.00  0.00    -0.345 N 
HETATM    4  C1  UNK     1      33.527  -7.200  36.654  1.00  0.00     0.143 C 
HETATM    5  C2  UNK     1      33.674  -5.347  34.963  1.00  0.00     0.143 C 
HETATM    6  C3  UNK     1      32.085  -6.719  36.819  1.00  0.00     0.146 C 
HETATM    7  C4  UNK     1      33.065  -4.548  36.111  1.00  0.00     0.146 C 
HETATM    8  C6  UNK     1      30.854  -4.535  37.194  1.00  0.00     0.260 C 
ENDROOT
BRANCH   8   9
HETATM    9  C7  UNK     1      29.746  -5.300  37.804  1.00  0.00     0.108 A 
HETATM   10  C10 UNK     1      29.286  -6.340  37.097  1.00  0.00     0.037 A 
HETATM   11  C11 UNK     1      28.197  -7.153  37.615  1.00  0.00     0.000 A 
HETATM   12  C15 UNK     1      27.645  -6.832  38.851  1.00  0.00     0.089 A 
HETATM   13  C17 UNK     1      27.686  -8.247  36.912  1.00  0.00     0.033 A 
HETATM   14  C18 UNK     1      26.601  -7.571  39.403  1.00  0.00     0.039 A 
HETATM   15  O2  UNK     1      28.134  -5.737  39.590  1.00  0.00    -0.274 OA
HETATM   16  C20 UNK     1      26.096  -8.659  38.695  1.00  0.00     0.022 A 
HETATM   17  C19 UNK     1      26.638  -8.998  37.453  1.00  0.00     0.011 A 
HETATM   18 Br1  UNK     1      25.948 -10.476  36.497  1.00  0.00    -0.051 Br
HETATM   19  C12 UNK     1      29.176  -4.941  39.121  1.00  0.00     0.304 A 
HETATM   20  O3  UNK     1      29.594  -3.988  39.770  1.00  0.00    -0.259 OA
ENDBRANCH   8   9
BRANCH   2  21
HETATM   21  C5  UNK     1      35.120  -7.353  34.746  1.00  0.00     0.030 A 
HETATM   22  C8  UNK     1      34.825  -8.477  33.938  1.00  0.00     0.032 A 
HETATM   23  C13 UNK     1      35.829  -9.167  33.258  1.00  0.00     0.044 A 
HETATM   24  C16 UNK     1      37.157  -8.753  33.369  1.00  0.00     0.116 A 
HETATM   25  C14 UNK     1      37.481  -7.650  34.158  1.00  0.00     0.044 A 
HETATM   26  F1  UNK     1      38.121  -9.415  32.715  1.00  0.00    -0.206 F 
HETATM   27  C9  UNK     1      36.477  -6.960  34.838  1.00  0.00     0.032 A 
ENDBRANCH   2  21
TORSDOF 2
ENDMDL
MODEL 8
REMARK VINA RESULT:      -8.2     29.662     30.958
REMARK  2 active torsions:
REMARK  status: ('A' for Active; 'I' for Inactive)
REMARK    1  A    between atoms: C5_12  and  N1_6 
REMARK       I    between atoms: C6_13  and  N2_7 
REMARK    2  A    between atoms: C6_13  and  C7_14 
ROOT
HETATM    1  O1  UNK     1      19.999  -2.803  38.324  1.00  0.00    -0.267 OA
HETATM    2  N1  UNK     1      21.232  -7.330  36.448  1.00  0.00    -0.378 N 
HETATM    3  N2  UNK     1      20.236  -4.657  36.937  1.00  0.00    -0.345 N 
HETATM    4  C1  UNK     1      20.112  -6.807  35.664  1.00  0.00     0.143 C 
HETATM    5  C2  UNK     1      21.736  -6.520  37.561  1.00  0.00     0.143 C 
HETATM    6  C3  UNK     1      20.152  -5.279  35.611  1.00  0.00     0.146 C 
HETATM    7  C4  UNK     1      20.677  -5.525  38.027  1.00  0.00     0.146 C 
HETATM    8  C6  UNK     1      19.929  -3.326  37.211  1.00  0.00     0.260 C 
ENDROOT
BRANCH   8   9
HETATM    9  C7  UNK     1      19.499  -2.484  36.074  1.00  0.00     0.108 A 
HETATM   10  C10 UNK     1      20.133  -2.688  34.914  1.00  0.00     0.037 A 
HETATM   11  C11 UNK     1      19.780  -1.907  33.738  1.00  0.00     0.000 A 
HETATM   12  C15 UNK     1      18.775  -0.950  33.843  1.00  0.00     0.089 A 
HETATM   13  C17 UNK     1      20.416  -2.086  32.508  1.00  0.00     0.033 A 
HETATM   14  C18 UNK     1      18.390  -0.170  32.755  1.00  0.00     0.039 A 
HETATM   15  O2  UNK     1      18.111  -0.741  35.066  1.00  0.00    -0.274 OA
HETATM   16  C20 UNK     1      19.029  -0.354  31.531  1.00  0.00     0.022 A 
HETATM   17  C19 UNK     1      20.040  -1.311  31.407  1.00  0.00     0.011 A 
HETATM   18 Br1  UNK     1      20.904  -1.555  29.742  1.00  0.00    -0.051 Br
HETATM   19  C12 UNK     1      18.427  -1.473  36.208  1.00  0.00     0.304 A 
HETATM   20  O3  UNK     1      17.844  -1.283  37.270  1.00  0.00    -0.259 OA
ENDBRANCH   8   9
BRANCH   2  21
HETATM   21  C5  UNK     1      21.769  -8.590  36.190  1.00  0.00     0.030 A 
HETATM   22  C8  UNK     1      22.984  -9.009  36.782  1.00  0.00     0.032 A 
HETATM   23  C13 UNK     1      23.522 -10.270  36.523  1.00  0.00     0.044 A 
HETATM   24  C16 UNK     1      22.859 -11.147  35.664  1.00  0.00     0.116 A 
HETATM   25  C14 UNK     1      21.659 -10.764  35.065  1.00  0.00     0.044 A 
HETATM   26  F1  UNK     1      23.375 -12.358  35.417  1.00  0.00    -0.206 F 
HETATM   27  C9  UNK     1      21.122  -9.503  35.323  1.00  0.00     0.032 A 
ENDBRANCH   2  21
TORSDOF 2
ENDMDL
MODEL 9
REMARK VINA RESULT:      -8.1     34.097     35.661
REMARK  2 active torsions:
REMARK  status: ('A' for Active; 'I' for Inactive)
REMARK    1  A    between atoms: C5_12  and  N1_6 
REMARK       I    between atoms: C6_13  and  N2_7 
REMARK    2  A    between atoms: C6_13  and  C7_14 
ROOT
HETATM    1  O1  UNK     1      27.570  -9.435  39.838  1.00  0.00    -0.267 OA
HETATM    2  N1  UNK     1      30.447  -6.559  36.839  1.00  0.00    -0.378 N 
HETATM    3  N2  UNK     1      28.397  -8.215  38.036  1.00  0.00    -0.345 N 
HETATM    4  C1  UNK     1      29.508  -7.297  35.992  1.00  0.00     0.143 C 
HETATM    5  C2  UNK     1      30.401  -6.790  38.287  1.00  0.00     0.143 C 
HETATM    6  C3  UNK     1      28.199  -7.565  36.736  1.00  0.00     0.146 C 
HETATM    7  C4  UNK     1      29.743  -8.132  38.599  1.00  0.00     0.146 C 
HETATM    8  C6  UNK     1      27.405  -8.889  38.746  1.00  0.00     0.260 C 
ENDROOT
BRANCH   8   9
HETATM    9  C7  UNK     1      26.057  -8.937  38.143  1.00  0.00     0.108 A 
HETATM   10  C10 UNK     1      25.124  -8.167  38.715  1.00  0.00     0.037 A 
HETATM   11  C11 UNK     1      23.767  -8.147  38.192  1.00  0.00     0.000 A 
HETATM   12  C15 UNK     1      23.458  -8.940  37.091  1.00  0.00     0.089 A 
HETATM   13  C17 UNK     1      22.763  -7.358  38.758  1.00  0.00     0.033 A 
HETATM   14  C18 UNK     1      22.178  -8.967  36.542  1.00  0.00     0.039 A 
HETATM   15  O2  UNK     1      24.444  -9.748  36.493  1.00  0.00    -0.274 OA
HETATM   16  C20 UNK     1      21.182  -8.178  37.113  1.00  0.00     0.022 A 
HETATM   17  C19 UNK     1      21.473  -7.374  38.218  1.00  0.00     0.011 A 
HETATM   18 Br1  UNK     1      20.116  -6.305  38.988  1.00  0.00    -0.051 Br
HETATM   19  C12 UNK     1      25.752  -9.788  36.971  1.00  0.00     0.304 A 
HETATM   20  O3  UNK     1      26.603 -10.496  36.444  1.00  0.00    -0.259 OA
ENDBRANCH   8   9
BRANCH   2  21
HETATM   21  C5  UNK     1      31.403  -5.709  36.289  1.00  0.00     0.030 A 
HETATM   22  C8  UNK     1      31.562  -4.381  36.751  1.00  0.00     0.032 A 
HETATM   23  C13 UNK     1      32.519  -3.529  36.198  1.00  0.00     0.044 A 
HETATM   24  C16 UNK     1      33.344  -3.982  35.168  1.00  0.00     0.116 A 
HETATM   25  C14 UNK     1      33.212  -5.286  34.691  1.00  0.00     0.044 A 
HETATM   26  F1  UNK     1      34.263  -3.164  34.638  1.00  0.00    -0.206 F 
HETATM   27  C9  UNK     1      32.255  -6.137  35.243  1.00  0.00     0.032 A 
ENDBRANCH   2  21
TORSDOF 2
ENDMDL
MODEL 10
REMARK VINA RESULT:      -8.1      7.399     10.581
REMARK  2 active torsions:
REMARK  status: ('A' for Active; 'I' for Inactive)
REMARK    1  A    between atoms: C5_12  and  N1_6 
REMARK       I    between atoms: C6_13  and  N2_7 
REMARK    2  A    between atoms: C6_13  and  C7_14 
ROOT
HETATM    1  O1  UNK     1      18.575  12.925   7.943  1.00  0.00    -0.267 OA
HETATM    2  N1  UNK     1      22.854  12.571  10.608  1.00  0.00    -0.378 N 
HETATM    3  N2  UNK     1      20.130  12.527   9.627  1.00  0.00    -0.345 N 
HETATM    4  C1  UNK     1      21.732  12.544  11.549  1.00  0.00     0.143 C 
HETATM    5  C2  UNK     1      22.555  12.711   9.179  1.00  0.00     0.143 C 
HETATM    6  C3  UNK     1      20.498  11.908  10.906  1.00  0.00     0.146 C 
HETATM    7  C4  UNK     1      21.170  13.319   8.974  1.00  0.00     0.146 C 
HETATM    8  C6  UNK     1      18.884  12.407   9.016  1.00  0.00     0.260 C 
ENDROOT
BRANCH   8   9
HETATM    9  C7  UNK     1      17.869  11.585   9.709  1.00  0.00     0.108 A 
HETATM   10  C10 UNK     1      17.811  10.295   9.358  1.00  0.00     0.037 A 
HETATM   11  C11 UNK     1      16.844   9.407   9.984  1.00  0.00     0.000 A 
HETATM   12  C15 UNK     1      15.984   9.922  10.950  1.00  0.00     0.089 A 
HETATM   13  C17 UNK     1      16.749   8.055   9.649  1.00  0.00     0.033 A 
HETATM   14  C18 UNK     1      15.036   9.125  11.587  1.00  0.00     0.039 A 
HETATM   15  O2  UNK     1      16.050  11.280  11.315  1.00  0.00    -0.274 OA
HETATM   16  C20 UNK     1      14.947   7.777  11.246  1.00  0.00     0.022 A 
HETATM   17  C19 UNK     1      15.802   7.242  10.279  1.00  0.00     0.011 A 
HETATM   18 Br1  UNK     1      15.677   5.412   9.821  1.00  0.00    -0.051 Br
HETATM   19  C12 UNK     1      16.965  12.154  10.733  1.00  0.00     0.304 A 
HETATM   20  O3  UNK     1      17.014  13.336  11.057  1.00  0.00    -0.259 OA
ENDBRANCH   8   9
BRANCH   2  21
HETATM   21  C5  UNK     1      24.172  12.532  11.054  1.00  0.00     0.030 A 
HETATM   22  C8  UNK     1      24.664  13.479  11.983  1.00  0.00     0.032 A 
HETATM   23  C13 UNK     1      25.986  13.441  12.429  1.00  0.00     0.044 A 
HETATM   24  C16 UNK     1      26.853  12.455  11.957  1.00  0.00     0.116 A 
HETATM   25  C14 UNK     1      26.398  11.507  11.041  1.00  0.00     0.044 A 
HETATM   26  F1  UNK     1      28.121  12.418  12.386  1.00  0.00    -0.206 F 
HETATM   27  C9  UNK     1      25.077  11.546  10.595  1.00  0.00     0.032 A 
ENDBRANCH   2  21
TORSDOF 2
ENDMDL
