MODEL 1
REMARK VINA RESULT:     -10.6      0.000      0.000
REMARK  5 active torsions:
REMARK  status: ('A' for Active; 'I' for Inactive)
REMARK    1  A    between atoms: C5_13  and  N1_6 
REMARK    2  A    between atoms: C6_14  and  N2_7 
REMARK    3  A    between atoms: C17_25  and  N3_8 
REMARK       I    between atoms: C9_17  and  N3_8 
REMARK    4  A    between atoms: C5_13  and  C7_15 
REMARK    5  A    between atoms: C6_14  and  C9_17 
ROOT
HETATM    1  N1  UNK     1      19.276  -3.136  36.217  1.00  0.00     0.096 N 
HETATM    2  N2  UNK     1      18.300  -0.524  35.453  1.00  0.00     0.100 N 
HETATM    3  C1  UNK     1      18.506  -2.306  37.152  1.00  0.00     0.303 C 
HETATM    4  C2  UNK     1      20.017  -2.291  35.272  1.00  0.00     0.303 C 
HETATM    5  C3  UNK     1      17.558  -1.369  36.397  1.00  0.00     0.303 C 
HETATM    6  C4  UNK     1      19.068  -1.354  34.517  1.00  0.00     0.303 C 
ENDROOT
BRANCH   1   7
HETATM    7  C5  UNK     1      20.183  -4.027  36.939  1.00  0.00     0.312 C 
BRANCH   7   8
HETATM    8  C7  UNK     1      20.176  -5.407  36.381  1.00  0.00    -0.011 A 
HETATM    9  C10 UNK     1      20.269  -5.622  35.061  1.00  0.00     0.092 A 
HETATM   10  C13 UNK     1      20.266  -6.967  34.463  1.00  0.00     0.288 A 
HETATM   11  O1  UNK     1      20.164  -8.037  35.338  1.00  0.00    -0.275 OA
HETATM   12  O3  UNK     1      20.353  -7.125  33.250  1.00  0.00    -0.260 OA
HETATM   13  C11 UNK     1      20.065  -7.844  36.731  1.00  0.00     0.090 A 
HETATM   14  C8  UNK     1      20.069  -6.562  37.283  1.00  0.00     0.006 A 
HETATM   15  C14 UNK     1      19.966  -8.994  37.517  1.00  0.00     0.045 A 
HETATM   16  C12 UNK     1      19.967  -6.454  38.676  1.00  0.00     0.015 A 
HETATM   17  C16 UNK     1      19.867  -7.598  39.478  1.00  0.00     0.007 A 
HETATM   18  C15 UNK     1      19.867  -8.866  38.898  1.00  0.00    -0.059 A 
HETATM   19  C18 UNK     1      19.760 -10.079  39.756  1.00  0.00     0.048 C 
ENDBRANCH   7   8
ENDBRANCH   1   7
BRANCH   2  20
HETATM   20  C6  UNK     1      17.394   0.368  34.731  1.00  0.00     0.375 C 
BRANCH  20  21
HETATM   21  C9  UNK     1      18.156   1.601  34.276  1.00  0.00     0.250 C 
HETATM   22  O2  UNK     1      19.051   2.109  34.945  1.00  0.00    -0.271 OA
HETATM   23  N3  UNK     1      17.689   2.023  33.033  1.00  0.00    -0.323 N 
HETATM   24  H15 UNK     1      16.933   1.495  32.604  1.00  0.00     0.169 HD
BRANCH  23  25
HETATM   25  C17 UNK     1      18.137   3.130  32.273  1.00  0.00     0.073 A 
HETATM   26  C19 UNK     1      18.499   2.962  30.937  1.00  0.00     0.145 A 
HETATM   27  F1  UNK     1      18.429   1.755  30.359  1.00  0.00    -0.204 F 
HETATM   28  C21 UNK     1      18.940   4.055  30.191  1.00  0.00     0.086 A 
HETATM   29  C23 UNK     1      19.019   5.316  30.782  1.00  0.00     0.119 A 
HETATM   30  C22 UNK     1      18.657   5.485  32.118  1.00  0.00     0.044 A 
HETATM   31  F2  UNK     1      19.440   6.367  30.065  1.00  0.00    -0.206 F 
HETATM   32  C20 UNK     1      18.216   4.391  32.864  1.00  0.00     0.036 A 
ENDBRANCH  23  25
ENDBRANCH  20  21
ENDBRANCH   2  20
TORSDOF 5
ENDMDL
MODEL 2
REMARK VINA RESULT:     -10.3      6.437     12.444
REMARK  5 active torsions:
REMARK  status: ('A' for Active; 'I' for Inactive)
REMARK    1  A    between atoms: C5_13  and  N1_6 
REMARK    2  A    between atoms: C6_14  and  N2_7 
REMARK    3  A    between atoms: C17_25  and  N3_8 
REMARK       I    between atoms: C9_17  and  N3_8 
REMARK    4  A    between atoms: C5_13  and  C7_15 
REMARK    5  A    between atoms: C6_14  and  C9_17 
ROOT
HETATM    1  N1  UNK     1      18.122   5.708  32.923  1.00  0.00     0.096 N 
HETATM    2  N2  UNK     1      18.826   4.152  30.590  1.00  0.00     0.100 N 
HETATM    3  C1  UNK     1      19.078   6.213  31.930  1.00  0.00     0.303 C 
HETATM    4  C2  UNK     1      18.154   4.241  32.966  1.00  0.00     0.303 C 
HETATM    5  C3  UNK     1      18.792   5.619  30.547  1.00  0.00     0.303 C 
HETATM    6  C4  UNK     1      17.868   3.648  31.583  1.00  0.00     0.303 C 
ENDROOT
BRANCH   1   7
HETATM    7  C5  UNK     1      18.397   6.273  34.243  1.00  0.00     0.312 C 
BRANCH   7   8
HETATM    8  C7  UNK     1      18.385   7.762  34.231  1.00  0.00    -0.011 A 
HETATM    9  C10 UNK     1      19.516   8.466  34.383  1.00  0.00     0.092 A 
HETATM   10  C13 UNK     1      19.553   9.938  34.379  1.00  0.00     0.288 A 
HETATM   11  O1  UNK     1      18.343  10.591  34.204  1.00  0.00    -0.275 OA
HETATM   12  O3  UNK     1      20.607  10.548  34.521  1.00  0.00    -0.260 OA
HETATM   13  C11 UNK     1      17.137   9.879  34.041  1.00  0.00     0.090 A 
HETATM   14  C8  UNK     1      17.118   8.483  34.047  1.00  0.00     0.006 A 
HETATM   15  C14 UNK     1      15.979  10.640  33.873  1.00  0.00     0.045 A 
HETATM   16  C12 UNK     1      15.879   7.850  33.880  1.00  0.00     0.015 A 
HETATM   17  C16 UNK     1      14.709   8.600  33.710  1.00  0.00     0.007 A 
HETATM   18  C15 UNK     1      14.760   9.992  33.706  1.00  0.00    -0.059 A 
HETATM   19  C18 UNK     1      13.510  10.785  33.526  1.00  0.00     0.048 C 
ENDBRANCH   7   8
ENDBRANCH   1   7
BRANCH   2  20
HETATM   20  C6  UNK     1      18.551   3.586  29.271  1.00  0.00     0.375 C 
BRANCH  20  21
HETATM   21  C9  UNK     1      18.481   2.072  29.375  1.00  0.00     0.250 C 
HETATM   22  O2  UNK     1      17.513   1.427  28.985  1.00  0.00    -0.271 OA
HETATM   23  N3  UNK     1      19.648   1.575  29.951  1.00  0.00    -0.323 N 
HETATM   24  H15 UNK     1      20.364   2.242  30.227  1.00  0.00     0.169 HD
BRANCH  23  25
HETATM   25  C17 UNK     1      19.970   0.222  30.219  1.00  0.00     0.073 A 
HETATM   26  C19 UNK     1      19.637  -0.347  31.448  1.00  0.00     0.145 A 
HETATM   27  F1  UNK     1      19.011   0.377  32.386  1.00  0.00    -0.204 F 
HETATM   28  C21 UNK     1      19.956  -1.680  31.708  1.00  0.00     0.086 A 
HETATM   29  C23 UNK     1      20.609  -2.442  30.740  1.00  0.00     0.119 A 
HETATM   30  C22 UNK     1      20.942  -1.873  29.511  1.00  0.00     0.044 A 
HETATM   31  F2  UNK     1      20.914  -3.723  30.989  1.00  0.00    -0.206 F 
HETATM   32  C20 UNK     1      20.623  -0.540  29.251  1.00  0.00     0.036 A 
ENDBRANCH  23  25
ENDBRANCH  20  21
ENDBRANCH   2  20
TORSDOF 5
ENDMDL
MODEL 3
REMARK VINA RESULT:     -10.2      6.363     12.748
REMARK  5 active torsions:
REMARK  status: ('A' for Active; 'I' for Inactive)
REMARK    1  A    between atoms: C5_13  and  N1_6 
REMARK    2  A    between atoms: C6_14  and  N2_7 
REMARK    3  A    between atoms: C17_25  and  N3_8 
REMARK       I    between atoms: C9_17  and  N3_8 
REMARK    4  A    between atoms: C5_13  and  C7_15 
REMARK    5  A    between atoms: C6_14  and  C9_17 
ROOT
HETATM    1  N1  UNK     1      18.237   6.063  32.141  1.00  0.00     0.096 N 
HETATM    2  N2  UNK     1      18.928   4.081  30.153  1.00  0.00     0.100 N 
HETATM    3  C1  UNK     1      19.296   6.310  31.154  1.00  0.00     0.303 C 
HETATM    4  C2  UNK     1      18.125   4.628  32.425  1.00  0.00     0.303 C 
HETATM    5  C3  UNK     1      19.038   5.516  29.868  1.00  0.00     0.303 C 
HETATM    6  C4  UNK     1      17.868   3.835  31.139  1.00  0.00     0.303 C 
ENDROOT
BRANCH   1   7
HETATM    7  C5  UNK     1      18.486   6.818  33.368  1.00  0.00     0.312 C 
BRANCH   7   8
HETATM    8  C7  UNK     1      17.369   7.747  33.692  1.00  0.00    -0.011 A 
HETATM    9  C10 UNK     1      16.103   7.311  33.770  1.00  0.00     0.092 A 
HETATM   10  C13 UNK     1      14.967   8.191  34.087  1.00  0.00     0.288 A 
HETATM   11  O1  UNK     1      15.258   9.528  34.309  1.00  0.00    -0.275 OA
HETATM   12  O3  UNK     1      13.822   7.755  34.151  1.00  0.00    -0.260 OA
HETATM   13  C11 UNK     1      16.577  10.018  34.233  1.00  0.00     0.090 A 
HETATM   14  C8  UNK     1      17.645   9.170  33.932  1.00  0.00     0.006 A 
HETATM   15  C14 UNK     1      16.753  11.382  34.475  1.00  0.00     0.045 A 
HETATM   16  C12 UNK     1      18.926   9.735  33.875  1.00  0.00     0.015 A 
HETATM   17  C16 UNK     1      19.118  11.101  34.115  1.00  0.00     0.007 A 
HETATM   18  C15 UNK     1      18.033  11.922  34.415  1.00  0.00    -0.059 A 
HETATM   19  C18 UNK     1      18.244  13.375  34.669  1.00  0.00     0.048 C 
ENDBRANCH   7   8
ENDBRANCH   1   7
BRANCH   2  20
HETATM   20  C6  UNK     1      18.680   3.325  28.927  1.00  0.00     0.375 C 
BRANCH  20  21
HETATM   21  C9  UNK     1      18.549   1.849  29.261  1.00  0.00     0.250 C 
HETATM   22  O2  UNK     1      17.505   1.224  29.096  1.00  0.00    -0.271 OA
HETATM   23  N3  UNK     1      19.756   1.357  29.751  1.00  0.00    -0.323 N 
HETATM   24  H15 UNK     1      20.536   2.005  29.833  1.00  0.00     0.169 HD
BRANCH  23  25
HETATM   25  C17 UNK     1      20.043   0.036  30.173  1.00  0.00     0.073 A 
HETATM   26  C19 UNK     1      19.698  -0.380  31.458  1.00  0.00     0.145 A 
HETATM   27  F1  UNK     1      19.094   0.463  32.307  1.00  0.00    -0.204 F 
HETATM   28  C21 UNK     1      19.982  -1.682  31.870  1.00  0.00     0.086 A 
HETATM   29  C23 UNK     1      20.612  -2.568  30.995  1.00  0.00     0.119 A 
HETATM   30  C22 UNK     1      20.957  -2.152  29.709  1.00  0.00     0.044 A 
HETATM   31  F2  UNK     1      20.883  -3.819  31.389  1.00  0.00    -0.206 F 
HETATM   32  C20 UNK     1      20.672  -0.850  29.298  1.00  0.00     0.036 A 
ENDBRANCH  23  25
ENDBRANCH  20  21
ENDBRANCH   2  20
TORSDOF 5
ENDMDL
MODEL 4
REMARK VINA RESULT:      -9.7      5.416     10.910
REMARK  5 active torsions:
REMARK  status: ('A' for Active; 'I' for Inactive)
REMARK    1  A    between atoms: C5_13  and  N1_6 
REMARK    2  A    between atoms: C6_14  and  N2_7 
REMARK    3  A    between atoms: C17_25  and  N3_8 
REMARK       I    between atoms: C9_17  and  N3_8 
REMARK    4  A    between atoms: C5_13  and  C7_15 
REMARK    5  A    between atoms: C6_14  and  C9_17 
ROOT
HETATM    1  N1  UNK     1      19.890  -3.918  36.822  1.00  0.00     0.096 N 
HETATM    2  N2  UNK     1      19.888  -6.768  37.308  1.00  0.00     0.100 N 
HETATM    3  C1  UNK     1      19.597  -4.874  35.747  1.00  0.00     0.303 C 
HETATM    4  C2  UNK     1      20.783  -4.523  37.818  1.00  0.00     0.303 C 
HETATM    5  C3  UNK     1      18.993  -6.164  36.313  1.00  0.00     0.303 C 
HETATM    6  C4  UNK     1      20.178  -5.812  38.383  1.00  0.00     0.303 C 
ENDROOT
BRANCH   1   7
HETATM    7  C5  UNK     1      20.470  -2.690  36.282  1.00  0.00     0.312 C 
BRANCH   7   8
HETATM    8  C7  UNK     1      19.516  -1.958  35.404  1.00  0.00    -0.011 A 
HETATM    9  C10 UNK     1      18.441  -1.338  35.912  1.00  0.00     0.092 A 
HETATM   10  C13 UNK     1      17.471  -0.602  35.085  1.00  0.00     0.288 A 
HETATM   11  O1  UNK     1      17.715  -0.569  33.721  1.00  0.00    -0.275 OA
HETATM   12  O3  UNK     1      16.499  -0.047  35.586  1.00  0.00    -0.260 OA
HETATM   13  C11 UNK     1      18.835  -1.211  33.156  1.00  0.00     0.090 A 
HETATM   14  C8  UNK     1      19.747  -1.905  33.954  1.00  0.00     0.006 A 
HETATM   15  C14 UNK     1      18.980  -1.112  31.771  1.00  0.00     0.045 A 
HETATM   16  C12 UNK     1      20.835  -2.516  33.316  1.00  0.00     0.015 A 
HETATM   17  C16 UNK     1      20.993  -2.426  31.928  1.00  0.00     0.007 A 
HETATM   18  C15 UNK     1      20.068  -1.725  31.157  1.00  0.00    -0.059 A 
HETATM   19  C18 UNK     1      20.242  -1.633  29.680  1.00  0.00     0.048 C 
ENDBRANCH   7   8
ENDBRANCH   1   7
BRANCH   2  20
HETATM   20  C6  UNK     1      19.309  -7.997  37.849  1.00  0.00     0.375 C 
BRANCH  20  21
HETATM   21  C9  UNK     1      20.377  -9.075  37.909  1.00  0.00     0.250 C 
HETATM   22  O2  UNK     1      20.373  -9.962  38.758  1.00  0.00    -0.271 OA
HETATM   23  N3  UNK     1      21.304  -8.893  36.885  1.00  0.00    -0.323 N 
HETATM   24  H15 UNK     1      21.171  -8.102  36.259  1.00  0.00     0.169 HD
BRANCH  23  25
HETATM   25  C17 UNK     1      22.444  -9.682  36.602  1.00  0.00     0.073 A 
HETATM   26  C19 UNK     1      22.301 -10.919  35.974  1.00  0.00     0.145 A 
HETATM   27  F1  UNK     1      21.087 -11.374  35.633  1.00  0.00    -0.204 F 
HETATM   28  C21 UNK     1      23.428 -11.694  35.696  1.00  0.00     0.086 A 
HETATM   29  C23 UNK     1      24.696 -11.232  36.046  1.00  0.00     0.119 A 
HETATM   30  C22 UNK     1      24.839  -9.995  36.674  1.00  0.00     0.044 A 
HETATM   31  F2  UNK     1      25.778 -11.975  35.778  1.00  0.00    -0.206 F 
HETATM   32  C20 UNK     1      23.712  -9.220  36.952  1.00  0.00     0.036 A 
ENDBRANCH  23  25
ENDBRANCH  20  21
ENDBRANCH   2  20
TORSDOF 5
ENDMDL
MODEL 5
REMARK VINA RESULT:      -9.4      5.421     10.758
REMARK  5 active torsions:
REMARK  status: ('A' for Active; 'I' for Inactive)
REMARK    1  A    between atoms: C5_13  and  N1_6 
REMARK    2  A    between atoms: C6_14  and  N2_7 
REMARK    3  A    between atoms: C17_25  and  N3_8 
REMARK       I    between atoms: C9_17  and  N3_8 
REMARK    4  A    between atoms: C5_13  and  C7_15 
REMARK    5  A    between atoms: C6_14  and  C9_17 
ROOT
HETATM    1  N1  UNK     1      20.065  -3.905  36.584  1.00  0.00     0.096 N 
HETATM    2  N2  UNK     1      20.011  -6.724  37.224  1.00  0.00     0.100 N 
HETATM    3  C1  UNK     1      19.808  -4.917  35.551  1.00  0.00     0.303 C 
HETATM    4  C2  UNK     1      20.908  -4.461  37.649  1.00  0.00     0.303 C 
HETATM    5  C3  UNK     1      19.166  -6.167  36.160  1.00  0.00     0.303 C 
HETATM    6  C4  UNK     1      20.266  -5.712  38.257  1.00  0.00     0.303 C 
ENDROOT
BRANCH   1   7
HETATM    7  C5  UNK     1      20.681  -2.714  36.002  1.00  0.00     0.312 C 
BRANCH   7   8
HETATM    8  C7  UNK     1      19.785  -2.040  35.022  1.00  0.00    -0.011 A 
HETATM    9  C10 UNK     1      20.014  -2.122  33.703  1.00  0.00     0.092 A 
HETATM   10  C13 UNK     1      19.157  -1.474  32.696  1.00  0.00     0.288 A 
HETATM   11  O1  UNK     1      18.072  -0.754  33.173  1.00  0.00    -0.275 OA
HETATM   12  O3  UNK     1      19.397  -1.572  31.498  1.00  0.00    -0.260 OA
HETATM   13  C11 UNK     1      17.806  -0.649  34.553  1.00  0.00     0.090 A 
HETATM   14  C8  UNK     1      18.627  -1.270  35.495  1.00  0.00     0.006 A 
HETATM   15  C14 UNK     1      16.686   0.101  34.918  1.00  0.00     0.045 A 
HETATM   16  C12 UNK     1      18.295  -1.117  36.848  1.00  0.00     0.015 A 
HETATM   17  C16 UNK     1      17.175  -0.368  37.230  1.00  0.00     0.007 A 
HETATM   18  C15 UNK     1      16.373   0.239  36.266  1.00  0.00    -0.059 A 
HETATM   19  C18 UNK     1      15.183   1.036  36.679  1.00  0.00     0.048 C 
ENDBRANCH   7   8
ENDBRANCH   1   7
BRANCH   2  20
HETATM   20  C6  UNK     1      19.397  -7.915  37.807  1.00  0.00     0.375 C 
BRANCH  20  21
HETATM   21  C9  UNK     1      20.421  -9.036  37.864  1.00  0.00     0.250 C 
HETATM   22  O2  UNK     1      20.366  -9.939  38.692  1.00  0.00    -0.271 OA
HETATM   23  N3  UNK     1      21.373  -8.869  36.861  1.00  0.00    -0.323 N 
HETATM   24  H15 UNK     1      21.284  -8.061  36.250  1.00  0.00     0.169 HD
BRANCH  23  25
HETATM   25  C17 UNK     1      22.488  -9.697  36.582  1.00  0.00     0.073 A 
HETATM   26  C19 UNK     1      22.305 -10.930  35.957  1.00  0.00     0.145 A 
HETATM   27  F1  UNK     1      21.077 -11.345  35.615  1.00  0.00    -0.204 F 
HETATM   28  C21 UNK     1      23.405 -11.742  35.683  1.00  0.00     0.086 A 
HETATM   29  C23 UNK     1      24.688 -11.321  36.034  1.00  0.00     0.119 A 
HETATM   30  C22 UNK     1      24.870 -10.088  36.659  1.00  0.00     0.044 A 
HETATM   31  F2  UNK     1      25.745 -12.101  35.770  1.00  0.00    -0.206 F 
HETATM   32  C20 UNK     1      23.770  -9.275  36.933  1.00  0.00     0.036 A 
ENDBRANCH  23  25
ENDBRANCH  20  21
ENDBRANCH   2  20
TORSDOF 5
ENDMDL
MODEL 6
REMARK VINA RESULT:      -9.4      4.953      8.195
REMARK  5 active torsions:
REMARK  status: ('A' for Active; 'I' for Inactive)
REMARK    1  A    between atoms: C5_13  and  N1_6 
REMARK    2  A    between atoms: C6_14  and  N2_7 
REMARK    3  A    between atoms: C17_25  and  N3_8 
REMARK       I    between atoms: C9_17  and  N3_8 
REMARK    4  A    between atoms: C5_13  and  C7_15 
REMARK    5  A    between atoms: C6_14  and  C9_17 
ROOT
HETATM    1  N1  UNK     1      18.889   3.640  31.345  1.00  0.00     0.096 N 
HETATM    2  N2  UNK     1      19.211   6.311  32.406  1.00  0.00     0.100 N 
HETATM    3  C1  UNK     1      19.308   4.757  30.487  1.00  0.00     0.303 C 
HETATM    4  C2  UNK     1      18.055   4.127  32.450  1.00  0.00     0.303 C 
HETATM    5  C3  UNK     1      20.047   5.823  31.302  1.00  0.00     0.303 C 
HETATM    6  C4  UNK     1      18.794   5.194  33.264  1.00  0.00     0.303 C 
ENDROOT
BRANCH   1   7
HETATM    7  C5  UNK     1      18.182   2.625  30.567  1.00  0.00     0.312 C 
BRANCH   7   8
HETATM    8  C7  UNK     1      18.920   1.333  30.526  1.00  0.00    -0.011 A 
HETATM    9  C10 UNK     1      19.545   0.925  29.412  1.00  0.00     0.092 A 
HETATM   10  C13 UNK     1      20.286  -0.343  29.324  1.00  0.00     0.288 A 
HETATM   11  O1  UNK     1      20.318  -1.126  30.467  1.00  0.00    -0.275 OA
HETATM   12  O3  UNK     1      20.846  -0.683  28.287  1.00  0.00    -0.260 OA
HETATM   13  C11 UNK     1      19.671  -0.725  31.654  1.00  0.00     0.090 A 
HETATM   14  C8  UNK     1      18.972   0.481  31.722  1.00  0.00     0.006 A 
HETATM   15  C14 UNK     1      19.770  -1.593  32.744  1.00  0.00     0.045 A 
HETATM   16  C12 UNK     1      18.356   0.807  32.938  1.00  0.00     0.015 A 
HETATM   17  C16 UNK     1      18.446  -0.053  34.039  1.00  0.00     0.007 A 
HETATM   18  C15 UNK     1      19.152  -1.250  33.942  1.00  0.00    -0.059 A 
HETATM   19  C18 UNK     1      19.244  -2.161  35.118  1.00  0.00     0.048 C 
ENDBRANCH   7   8
ENDBRANCH   1   7
BRANCH   2  20
HETATM   20  C6  UNK     1      19.917   7.326  33.184  1.00  0.00     0.375 C 
BRANCH  20  21
HETATM   21  C9  UNK     1      18.944   8.001  34.136  1.00  0.00     0.250 C 
HETATM   22  O2  UNK     1      19.082   7.967  35.355  1.00  0.00    -0.271 OA
HETATM   23  N3  UNK     1      17.931   8.635  33.420  1.00  0.00    -0.323 N 
HETATM   24  H15 UNK     1      17.954   8.569  32.405  1.00  0.00     0.169 HD
BRANCH  23  25
HETATM   25  C17 UNK     1      16.838   9.371  33.938  1.00  0.00     0.073 A 
HETATM   26  C19 UNK     1      15.637   8.727  34.231  1.00  0.00     0.145 A 
HETATM   27  F1  UNK     1      15.502   7.409  34.027  1.00  0.00    -0.204 F 
HETATM   28  C21 UNK     1      14.562   9.455  34.742  1.00  0.00     0.086 A 
HETATM   29  C23 UNK     1      14.690  10.827  34.958  1.00  0.00     0.119 A 
HETATM   30  C22 UNK     1      15.891  11.471  34.665  1.00  0.00     0.044 A 
HETATM   31  F2  UNK     1      13.658  11.527  35.449  1.00  0.00    -0.206 F 
HETATM   32  C20 UNK     1      16.966  10.743  34.154  1.00  0.00     0.036 A 
ENDBRANCH  23  25
ENDBRANCH  20  21
ENDBRANCH   2  20
TORSDOF 5
ENDMDL
MODEL 7
REMARK VINA RESULT:      -9.4      2.059      2.715
REMARK  5 active torsions:
REMARK  status: ('A' for Active; 'I' for Inactive)
REMARK    1  A    between atoms: C5_13  and  N1_6 
REMARK    2  A    between atoms: C6_14  and  N2_7 
REMARK    3  A    between atoms: C17_25  and  N3_8 
REMARK       I    between atoms: C9_17  and  N3_8 
REMARK    4  A    between atoms: C5_13  and  C7_15 
REMARK    5  A    between atoms: C6_14  and  C9_17 
ROOT
HETATM    1  N1  UNK     1      19.514  -4.002  36.441  1.00  0.00     0.096 N 
HETATM    2  N2  UNK     1      18.573  -1.384  35.652  1.00  0.00     0.100 N 
HETATM    3  C1  UNK     1      20.148  -3.263  35.342  1.00  0.00     0.303 C 
HETATM    4  C2  UNK     1      18.098  -3.633  36.557  1.00  0.00     0.303 C 
HETATM    5  C3  UNK     1      19.990  -1.751  35.538  1.00  0.00     0.303 C 
HETATM    6  C4  UNK     1      17.941  -2.122  36.753  1.00  0.00     0.303 C 
ENDROOT
BRANCH   1   7
HETATM    7  C5  UNK     1      19.662  -5.443  36.250  1.00  0.00     0.312 C 
BRANCH   7   8
HETATM    8  C7  UNK     1      20.541  -6.059  37.282  1.00  0.00    -0.011 A 
HETATM    9  C10 UNK     1      21.642  -5.431  37.720  1.00  0.00     0.092 A 
HETATM   10  C13 UNK     1      22.541  -5.999  38.738  1.00  0.00     0.288 A 
HETATM   11  O1  UNK     1      22.200  -7.243  39.245  1.00  0.00    -0.275 OA
HETATM   12  O3  UNK     1      23.539  -5.394  39.115  1.00  0.00    -0.260 OA
HETATM   13  C11 UNK     1      21.049  -7.929  38.805  1.00  0.00     0.090 A 
HETATM   14  C8  UNK     1      20.206  -7.376  37.839  1.00  0.00     0.006 A 
HETATM   15  C14 UNK     1      20.804  -9.175  39.385  1.00  0.00     0.045 A 
HETATM   16  C12 UNK     1      19.083  -8.121  37.455  1.00  0.00     0.015 A 
HETATM   17  C16 UNK     1      18.824  -9.373  38.027  1.00  0.00     0.007 A 
HETATM   18  C15 UNK     1      19.683  -9.898  38.991  1.00  0.00    -0.059 A 
HETATM   19  C18 UNK     1      19.402 -11.230  39.596  1.00  0.00     0.048 C 
ENDBRANCH   7   8
ENDBRANCH   1   7
BRANCH   2  20
HETATM   20  C6  UNK     1      18.424   0.058  35.842  1.00  0.00     0.375 C 
BRANCH  20  21
HETATM   21  C9  UNK     1      17.837   0.675  34.584  1.00  0.00     0.250 C 
HETATM   22  O2  UNK     1      16.640   0.919  34.463  1.00  0.00    -0.271 OA
HETATM   23  N3  UNK     1      18.843   0.910  33.649  1.00  0.00    -0.323 N 
HETATM   24  H15 UNK     1      19.794   0.648  33.897  1.00  0.00     0.169 HD
BRANCH  23  25
HETATM   25  C17 UNK     1      18.707   1.471  32.356  1.00  0.00     0.073 A 
HETATM   26  C19 UNK     1      19.022   0.716  31.227  1.00  0.00     0.145 A 
HETATM   27  F1  UNK     1      19.458  -0.546  31.352  1.00  0.00    -0.204 F 
HETATM   28  C21 UNK     1      18.886   1.273  29.955  1.00  0.00     0.086 A 
HETATM   29  C23 UNK     1      18.435   2.585  29.813  1.00  0.00     0.119 A 
HETATM   30  C22 UNK     1      18.119   3.340  30.942  1.00  0.00     0.044 A 
HETATM   31  F2  UNK     1      18.303   3.119  28.592  1.00  0.00    -0.206 F 
HETATM   32  C20 UNK     1      18.255   2.783  32.214  1.00  0.00     0.036 A 
ENDBRANCH  23  25
ENDBRANCH  20  21
ENDBRANCH   2  20
TORSDOF 5
ENDMDL
MODEL 8
REMARK VINA RESULT:      -9.3      3.979     10.506
REMARK  5 active torsions:
REMARK  status: ('A' for Active; 'I' for Inactive)
REMARK    1  A    between atoms: C5_13  and  N1_6 
REMARK    2  A    between atoms: C6_14  and  N2_7 
REMARK    3  A    between atoms: C17_25  and  N3_8 
REMARK       I    between atoms: C9_17  and  N3_8 
REMARK    4  A    between atoms: C5_13  and  C7_15 
REMARK    5  A    between atoms: C6_14  and  C9_17 
ROOT
HETATM    1  N1  UNK     1      18.501  -1.251  35.478  1.00  0.00     0.096 N 
HETATM    2  N2  UNK     1      19.830  -3.224  37.121  1.00  0.00     0.100 N 
HETATM    3  C1  UNK     1      17.878  -1.767  36.704  1.00  0.00     0.303 C 
HETATM    4  C2  UNK     1      19.389  -2.260  34.889  1.00  0.00     0.303 C 
HETATM    5  C3  UNK     1      18.943  -2.213  37.711  1.00  0.00     0.303 C 
HETATM    6  C4  UNK     1      20.454  -2.706  35.897  1.00  0.00     0.303 C 
ENDROOT
BRANCH   1   7
HETATM    7  C5  UNK     1      17.484  -0.829  34.517  1.00  0.00     0.312 C 
BRANCH   7   8
HETATM    8  C7  UNK     1      17.974   0.253  33.619  1.00  0.00    -0.011 A 
HETATM    9  C10 UNK     1      17.741   1.544  33.897  1.00  0.00     0.092 A 
HETATM   10  C13 UNK     1      18.204   2.648  33.040  1.00  0.00     0.288 A 
HETATM   11  O1  UNK     1      18.913   2.296  31.902  1.00  0.00    -0.275 OA
HETATM   12  O3  UNK     1      17.973   3.817  33.327  1.00  0.00    -0.260 OA
HETATM   13  C11 UNK     1      19.174   0.948  31.582  1.00  0.00     0.090 A 
HETATM   14  C8  UNK     1      18.728  -0.087  32.405  1.00  0.00     0.006 A 
HETATM   15  C14 UNK     1      19.896   0.712  30.411  1.00  0.00     0.045 A 
HETATM   16  C12 UNK     1      19.027  -1.400  32.017  1.00  0.00     0.015 A 
HETATM   17  C16 UNK     1      19.751  -1.653  30.845  1.00  0.00     0.007 A 
HETATM   18  C15 UNK     1      20.185  -0.598  30.044  1.00  0.00    -0.059 A 
HETATM   19  C18 UNK     1      20.954  -0.875  28.798  1.00  0.00     0.048 C 
ENDBRANCH   7   8
ENDBRANCH   1   7
BRANCH   2  20
HETATM   20  C6  UNK     1      20.847  -3.647  38.082  1.00  0.00     0.375 C 
BRANCH  20  21
HETATM   21  C9  UNK     1      21.086  -5.141  37.939  1.00  0.00     0.250 C 
HETATM   22  O2  UNK     1      22.160  -5.605  37.569  1.00  0.00    -0.271 OA
HETATM   23  N3  UNK     1      19.939  -5.848  38.292  1.00  0.00    -0.323 N 
HETATM   24  H15 UNK     1      19.121  -5.315  38.578  1.00  0.00     0.169 HD
BRANCH  23  25
HETATM   25  C17 UNK     1      19.757  -7.252  38.294  1.00  0.00     0.073 A 
HETATM   26  C19 UNK     1      19.167  -7.883  37.199  1.00  0.00     0.145 A 
HETATM   27  F1  UNK     1      18.767  -7.171  36.137  1.00  0.00    -0.204 F 
HETATM   28  C21 UNK     1      18.989  -9.267  37.205  1.00  0.00     0.086 A 
HETATM   29  C23 UNK     1      19.401 -10.018  38.306  1.00  0.00     0.119 A 
HETATM   30  C22 UNK     1      19.991  -9.387  39.400  1.00  0.00     0.044 A 
HETATM   31  F2  UNK     1      19.231 -11.347  38.310  1.00  0.00    -0.206 F 
HETATM   32  C20 UNK     1      20.169  -8.003  39.395  1.00  0.00     0.036 A 
ENDBRANCH  23  25
ENDBRANCH  20  21
ENDBRANCH   2  20
TORSDOF 5
ENDMDL
MODEL 9
REMARK VINA RESULT:      -9.2      3.953     10.685
REMARK  5 active torsions:
REMARK  status: ('A' for Active; 'I' for Inactive)
REMARK    1  A    between atoms: C5_13  and  N1_6 
REMARK    2  A    between atoms: C6_14  and  N2_7 
REMARK    3  A    between atoms: C17_25  and  N3_8 
REMARK       I    between atoms: C9_17  and  N3_8 
REMARK    4  A    between atoms: C5_13  and  C7_15 
REMARK    5  A    between atoms: C6_14  and  C9_17 
ROOT
HETATM    1  N1  UNK     1      18.728  -1.042  35.145  1.00  0.00     0.096 N 
HETATM    2  N2  UNK     1      19.745  -3.107  36.893  1.00  0.00     0.100 N 
HETATM    3  C1  UNK     1      17.938  -1.538  36.279  1.00  0.00     0.303 C 
HETATM    4  C2  UNK     1      19.623  -2.092  34.644  1.00  0.00     0.303 C 
HETATM    5  C3  UNK     1      18.852  -2.056  37.395  1.00  0.00     0.303 C 
HETATM    6  C4  UNK     1      20.536  -2.610  35.760  1.00  0.00     0.303 C 
ENDROOT
BRANCH   1   7
HETATM    7  C5  UNK     1      17.855  -0.551  34.080  1.00  0.00     0.312 C 
BRANCH   7   8
HETATM    8  C7  UNK     1      18.573  -0.418  32.782  1.00  0.00    -0.011 A 
HETATM    9  C10 UNK     1      19.163  -1.474  32.204  1.00  0.00     0.092 A 
HETATM   10  C13 UNK     1      19.883  -1.391  30.923  1.00  0.00     0.288 A 
HETATM   11  O1  UNK     1      19.932  -0.146  30.315  1.00  0.00    -0.275 OA
HETATM   12  O3  UNK     1      20.410  -2.380  30.423  1.00  0.00    -0.260 OA
HETATM   13  C11 UNK     1      19.322   0.983  30.898  1.00  0.00     0.090 A 
HETATM   14  C8  UNK     1      18.642   0.888  32.114  1.00  0.00     0.006 A 
HETATM   15  C14 UNK     1      19.435   2.186  30.198  1.00  0.00     0.045 A 
HETATM   16  C12 UNK     1      18.064   2.057  32.627  1.00  0.00     0.015 A 
HETATM   17  C16 UNK     1      18.169   3.271  31.937  1.00  0.00     0.007 A 
HETATM   18  C15 UNK     1      18.853   3.334  30.724  1.00  0.00    -0.059 A 
HETATM   19  C18 UNK     1      18.961   4.629  29.994  1.00  0.00     0.048 C 
ENDBRANCH   7   8
ENDBRANCH   1   7
BRANCH   2  20
HETATM   20  C6  UNK     1      20.617  -3.599  37.958  1.00  0.00     0.375 C 
BRANCH  20  21
HETATM   21  C9  UNK     1      20.862  -5.086  37.765  1.00  0.00     0.250 C 
HETATM   22  O2  UNK     1      21.866  -5.525  37.212  1.00  0.00    -0.271 OA
HETATM   23  N3  UNK     1      19.807  -5.821  38.303  1.00  0.00    -0.323 N 
HETATM   24  H15 UNK     1      19.039  -5.308  38.728  1.00  0.00     0.169 HD
BRANCH  23  25
HETATM   25  C17 UNK     1      19.659  -7.229  38.325  1.00  0.00     0.073 A 
HETATM   26  C19 UNK     1      19.043  -7.885  37.260  1.00  0.00     0.145 A 
HETATM   27  F1  UNK     1      18.585  -7.193  36.207  1.00  0.00    -0.204 F 
HETATM   28  C21 UNK     1      18.898  -9.272  37.285  1.00  0.00     0.086 A 
HETATM   29  C23 UNK     1      19.370 -10.002  38.376  1.00  0.00     0.119 A 
HETATM   30  C22 UNK     1      19.985  -9.346  39.441  1.00  0.00     0.044 A 
HETATM   31  F2  UNK     1      19.232 -11.335  38.400  1.00  0.00    -0.206 F 
HETATM   32  C20 UNK     1      20.130  -7.959  39.416  1.00  0.00     0.036 A 
ENDBRANCH  23  25
ENDBRANCH  20  21
ENDBRANCH   2  20
TORSDOF 5
ENDMDL
MODEL 10
REMARK VINA RESULT:      -9.2      4.986     12.587
REMARK  5 active torsions:
REMARK  status: ('A' for Active; 'I' for Inactive)
REMARK    1  A    between atoms: C5_13  and  N1_6 
REMARK    2  A    between atoms: C6_14  and  N2_7 
REMARK    3  A    between atoms: C17_25  and  N3_8 
REMARK       I    between atoms: C9_17  and  N3_8 
REMARK    4  A    between atoms: C5_13  and  C7_15 
REMARK    5  A    between atoms: C6_14  and  C9_17 
ROOT
HETATM    1  N1  UNK     1      18.073   5.647  31.422  1.00  0.00     0.096 N 
HETATM    2  N2  UNK     1      18.974   3.125  30.333  1.00  0.00     0.100 N 
HETATM    3  C1  UNK     1      19.127   5.590  30.401  1.00  0.00     0.303 C 
HETATM    4  C2  UNK     1      18.078   4.425  32.234  1.00  0.00     0.303 C 
HETATM    5  C3  UNK     1      18.966   4.347  29.520  1.00  0.00     0.303 C 
HETATM    6  C4  UNK     1      17.918   3.182  31.352  1.00  0.00     0.303 C 
ENDROOT
BRANCH   1   7
HETATM    7  C5  UNK     1      18.229   6.832  32.264  1.00  0.00     0.312 C 
BRANCH   7   8
HETATM    8  C7  UNK     1      16.928   7.503  32.536  1.00  0.00    -0.011 A 
HETATM    9  C10 UNK     1      15.765   6.926  32.200  1.00  0.00     0.092 A 
HETATM   10  C13 UNK     1      14.456   7.550  32.448  1.00  0.00     0.288 A 
HETATM   11  O1  UNK     1      14.465   8.794  33.060  1.00  0.00    -0.275 OA
HETATM   12  O3  UNK     1      13.413   6.991  32.127  1.00  0.00    -0.260 OA
HETATM   13  C11 UNK     1      15.671   9.427  33.425  1.00  0.00     0.090 A 
HETATM   14  C8  UNK     1      16.905   8.822  33.183  1.00  0.00     0.006 A 
HETATM   15  C14 UNK     1      15.560  10.678  34.035  1.00  0.00     0.045 A 
HETATM   16  C12 UNK     1      18.057   9.517  33.575  1.00  0.00     0.015 A 
HETATM   17  C16 UNK     1      17.962  10.772  34.188  1.00  0.00     0.007 A 
HETATM   18  C15 UNK     1      16.716  11.351  34.418  1.00  0.00    -0.059 A 
HETATM   19  C18 UNK     1      16.622  12.688  35.070  1.00  0.00     0.048 C 
ENDBRANCH   7   8
ENDBRANCH   1   7
BRANCH   2  20
HETATM   20  C6  UNK     1      18.818   1.940  29.492  1.00  0.00     0.375 C 
BRANCH  20  21
HETATM   21  C9  UNK     1      19.517   0.760  30.146  1.00  0.00     0.250 C 
HETATM   22  O2  UNK     1      20.467   0.183  29.626  1.00  0.00    -0.271 OA
HETATM   23  N3  UNK     1      18.927   0.472  31.375  1.00  0.00    -0.323 N 
HETATM   24  H15 UNK     1      18.139   1.044  31.670  1.00  0.00     0.169 HD
BRANCH  23  25
HETATM   25  C17 UNK     1      19.286  -0.549  32.287  1.00  0.00     0.073 A 
HETATM   26  C19 UNK     1      18.738  -0.568  33.569  1.00  0.00     0.145 A 
HETATM   27  F1  UNK     1      17.869   0.378  33.952  1.00  0.00    -0.204 F 
HETATM   28  C21 UNK     1      19.093  -1.576  34.465  1.00  0.00     0.086 A 
HETATM   29  C23 UNK     1      19.997  -2.566  34.078  1.00  0.00     0.119 A 
HETATM   30  C22 UNK     1      20.545  -2.547  32.796  1.00  0.00     0.044 A 
HETATM   31  F2  UNK     1      20.338  -3.535  34.938  1.00  0.00    -0.206 F 
HETATM   32  C20 UNK     1      20.189  -1.539  31.900  1.00  0.00     0.036 A 
ENDBRANCH  23  25
ENDBRANCH  20  21
ENDBRANCH   2  20
TORSDOF 5
ENDMDL
