MODEL 1
REMARK VINA RESULT:      -7.2      0.000      0.000
REMARK  4 active torsions:
REMARK  status: ('A' for Active; 'I' for Inactive)
REMARK    1  A    between atoms: C13_17  and  O2_2 
REMARK    2  A    between atoms: C5_9  and  O2_2 
REMARK    3  A    between atoms: C1_5  and  C6_10 
REMARK    4  A    between atoms: C13_17  and  C14_18 
ROOT
HETATM    1  O1  UNK     1      18.622   0.109  34.472  1.00  0.00    -0.275 OA
HETATM    2  O3  UNK     1      19.065  -1.741  35.741  1.00  0.00    -0.260 OA
HETATM    3  C1  UNK     1      18.611   2.063  30.786  1.00  0.00    -0.024 A 
HETATM    4  C2  UNK     1      19.111   0.062  32.079  1.00  0.00     0.005 A 
HETATM    5  C3  UNK     1      19.092   0.751  30.859  1.00  0.00     0.024 A 
HETATM    6  C4  UNK     1      18.637   0.732  33.208  1.00  0.00     0.093 A 
HETATM    7  C5  UNK     1      18.144   2.708  31.930  1.00  0.00     0.088 A 
HETATM    8  C7  UNK     1      19.599  -1.315  32.231  1.00  0.00    -0.043 A 
HETATM    9  C8  UNK     1      18.155   2.041  33.151  1.00  0.00     0.076 A 
HETATM   10  C10 UNK     1      19.574  -1.882  33.446  1.00  0.00     0.090 A 
HETATM   11  C11 UNK     1      20.115  -2.063  31.037  1.00  0.00     0.049 C 
HETATM   12  C12 UNK     1      19.076  -1.189  34.646  1.00  0.00     0.288 A 
ENDROOT
BRANCH   7  13
HETATM   13  O2  UNK     1      17.675   3.985  31.870  1.00  0.00    -0.278 OA
BRANCH  13  14
HETATM   14  C13 UNK     1      18.429   4.912  32.615  1.00  0.00     0.263 C 
HETATM   15  O4  UNK     1      18.287   5.141  33.809  1.00  0.00    -0.265 OA
BRANCH  14  16
HETATM   16  C14 UNK     1      19.440   5.578  31.710  1.00  0.00     0.107 C 
HETATM   17  C15 UNK     1      18.780   6.269  30.529  1.00  0.00     0.015 C 
ENDBRANCH  14  16
ENDBRANCH  13  14
ENDBRANCH   7  13
BRANCH   3  18
HETATM   18  C6  UNK     1      18.608   2.764  29.466  1.00  0.00     0.037 C 
HETATM   19  C9  UNK     1      17.846   1.983  28.399  1.00  0.00     0.010 C 
ENDBRANCH   3  18
TORSDOF 4
ENDMDL
MODEL 2
REMARK VINA RESULT:      -7.1      2.210      3.601
REMARK  4 active torsions:
REMARK  status: ('A' for Active; 'I' for Inactive)
REMARK    1  A    between atoms: C13_17  and  O2_2 
REMARK    2  A    between atoms: C5_9  and  O2_2 
REMARK    3  A    between atoms: C1_5  and  C6_10 
REMARK    4  A    between atoms: C13_17  and  C14_18 
ROOT
HETATM    1  O1  UNK     1      19.381   0.884  29.315  1.00  0.00    -0.275 OA
HETATM    2  O3  UNK     1      20.202  -0.724  27.912  1.00  0.00    -0.260 OA
HETATM    3  C1  UNK     1      18.303   2.155  33.140  1.00  0.00    -0.024 A 
HETATM    4  C2  UNK     1      19.181   0.398  31.701  1.00  0.00     0.005 A 
HETATM    5  C3  UNK     1      18.808   0.861  32.970  1.00  0.00     0.024 A 
HETATM    6  C4  UNK     1      19.029   1.272  30.623  1.00  0.00     0.093 A 
HETATM    7  C5  UNK     1      18.162   3.006  32.045  1.00  0.00     0.088 A 
HETATM    8  C7  UNK     1      19.719  -0.945  31.447  1.00  0.00    -0.043 A 
HETATM    9  C8  UNK     1      18.526   2.565  30.777  1.00  0.00     0.076 A 
HETATM   10  C10 UNK     1      20.044  -1.288  30.193  1.00  0.00     0.090 A 
HETATM   11  C11 UNK     1      19.895  -1.908  32.584  1.00  0.00     0.049 C 
HETATM   12  C12 UNK     1      19.890  -0.377  29.046  1.00  0.00     0.288 A 
ENDROOT
BRANCH   7  13
HETATM   13  O2  UNK     1      17.671   4.266  32.199  1.00  0.00    -0.278 OA
BRANCH  13  14
HETATM   14  C13 UNK     1      18.654   5.274  32.194  1.00  0.00     0.263 C 
HETATM   15  O4  UNK     1      19.439   5.500  33.105  1.00  0.00    -0.265 OA
BRANCH  14  16
HETATM   16  C14 UNK     1      18.588   6.032  30.887  1.00  0.00     0.107 C 
HETATM   17  C15 UNK     1      19.887   5.936  30.107  1.00  0.00     0.015 C 
ENDBRANCH  14  16
ENDBRANCH  13  14
ENDBRANCH   7  13
BRANCH   3  18
HETATM   18  C6  UNK     1      17.916   2.610  34.509  1.00  0.00     0.037 C 
HETATM   19  C9  UNK     1      18.657   1.847  35.603  1.00  0.00     0.010 C 
ENDBRANCH   3  18
TORSDOF 4
ENDMDL
MODEL 3
REMARK VINA RESULT:      -7.0      2.515      5.978
REMARK  4 active torsions:
REMARK  status: ('A' for Active; 'I' for Inactive)
REMARK    1  A    between atoms: C13_17  and  O2_2 
REMARK    2  A    between atoms: C5_9  and  O2_2 
REMARK    3  A    between atoms: C1_5  and  C6_10 
REMARK    4  A    between atoms: C13_17  and  C14_18 
ROOT
HETATM    1  O1  UNK     1      19.597  -0.932  30.508  1.00  0.00    -0.275 OA
HETATM    2  O3  UNK     1      20.178  -0.685  28.310  1.00  0.00    -0.260 OA
HETATM    3  C1  UNK     1      18.200   0.679  34.094  1.00  0.00    -0.024 A 
HETATM    4  C2  UNK     1      18.806   1.011  31.760  1.00  0.00     0.005 A 
HETATM    5  C3  UNK     1      18.341   1.516  32.981  1.00  0.00     0.024 A 
HETATM    6  C4  UNK     1      19.122  -0.347  31.698  1.00  0.00     0.093 A 
HETATM    7  C5  UNK     1      18.523  -0.674  34.004  1.00  0.00     0.088 A 
HETATM    8  C7  UNK     1      18.978   1.829  30.551  1.00  0.00    -0.043 A 
HETATM    9  C8  UNK     1      18.987  -1.194  32.800  1.00  0.00     0.076 A 
HETATM   10  C10 UNK     1      19.432   1.246  29.432  1.00  0.00     0.090 A 
HETATM   11  C11 UNK     1      18.647   3.292  30.584  1.00  0.00     0.049 C 
HETATM   12  C12 UNK     1      19.769  -0.185  29.352  1.00  0.00     0.288 A 
ENDROOT
BRANCH   7  13
HETATM   13  O2  UNK     1      18.391  -1.497  35.080  1.00  0.00    -0.278 OA
BRANCH  13  14
HETATM   14  C13 UNK     1      19.591  -1.733  35.778  1.00  0.00     0.263 C 
HETATM   15  O4  UNK     1      20.715  -1.541  35.335  1.00  0.00    -0.265 OA
BRANCH  14  16
HETATM   16  C14 UNK     1      19.273  -2.257  37.160  1.00  0.00     0.107 C 
HETATM   17  C15 UNK     1      18.162  -1.466  37.828  1.00  0.00     0.015 C 
ENDBRANCH  14  16
ENDBRANCH  13  14
ENDBRANCH   7  13
BRANCH   3  18
HETATM   18  C6  UNK     1      17.700   1.255  35.378  1.00  0.00     0.037 C 
HETATM   19  C9  UNK     1      18.812   1.920  36.185  1.00  0.00     0.010 C 
ENDBRANCH   3  18
TORSDOF 4
ENDMDL
MODEL 4
REMARK VINA RESULT:      -7.0     12.867     15.310
REMARK  4 active torsions:
REMARK  status: ('A' for Active; 'I' for Inactive)
REMARK    1  A    between atoms: C13_17  and  O2_2 
REMARK    2  A    between atoms: C5_9  and  O2_2 
REMARK    3  A    between atoms: C1_5  and  C6_10 
REMARK    4  A    between atoms: C13_17  and  C14_18 
ROOT
HETATM    1  O1  UNK     1      27.931  -4.911  38.449  1.00  0.00    -0.275 OA
HETATM    2  O3  UNK     1      25.698  -5.134  38.887  1.00  0.00    -0.260 OA
HETATM    3  C1  UNK     1      31.722  -6.588  37.980  1.00  0.00    -0.024 A 
HETATM    4  C2  UNK     1      29.356  -6.896  38.459  1.00  0.00     0.005 A 
HETATM    5  C3  UNK     1      30.643  -7.422  38.294  1.00  0.00     0.024 A 
HETATM    6  C4  UNK     1      29.194  -5.519  38.300  1.00  0.00     0.093 A 
HETATM    7  C5  UNK     1      31.532  -5.216  37.828  1.00  0.00     0.088 A 
HETATM    8  C7  UNK     1      28.177  -7.709  38.786  1.00  0.00    -0.043 A 
HETATM    9  C8  UNK     1      30.261  -4.673  37.988  1.00  0.00     0.076 A 
HETATM   10  C10 UNK     1      26.988  -7.104  38.922  1.00  0.00     0.090 A 
HETATM   11  C11 UNK     1      28.316  -9.192  38.962  1.00  0.00     0.049 C 
HETATM   12  C12 UNK     1      26.802  -5.653  38.758  1.00  0.00     0.288 A 
ENDROOT
BRANCH   7  13
HETATM   13  O2  UNK     1      32.575  -4.395  37.524  1.00  0.00    -0.278 OA
BRANCH  13  14
HETATM   14  C13 UNK     1      32.350  -3.562  36.412  1.00  0.00     0.263 C 
HETATM   15  O4  UNK     1      31.936  -2.412  36.464  1.00  0.00    -0.265 OA
BRANCH  14  16
HETATM   16  C14 UNK     1      32.699  -4.311  35.146  1.00  0.00     0.107 C 
HETATM   17  C15 UNK     1      34.179  -4.640  35.069  1.00  0.00     0.015 C 
ENDBRANCH  14  16
ENDBRANCH  13  14
ENDBRANCH   7  13
BRANCH   3  18
HETATM   18  C6  UNK     1      33.080  -7.189  37.813  1.00  0.00     0.037 C 
HETATM   19  C9  UNK     1      33.192  -8.021  36.538  1.00  0.00     0.010 C 
ENDBRANCH   3  18
TORSDOF 4
ENDMDL
MODEL 5
REMARK VINA RESULT:      -6.9      1.765      2.343
REMARK  4 active torsions:
REMARK  status: ('A' for Active; 'I' for Inactive)
REMARK    1  A    between atoms: C13_17  and  O2_2 
REMARK    2  A    between atoms: C5_9  and  O2_2 
REMARK    3  A    between atoms: C1_5  and  C6_10 
REMARK    4  A    between atoms: C13_17  and  C14_18 
ROOT
HETATM    1  O1  UNK     1      18.233   2.815  35.405  1.00  0.00    -0.275 OA
HETATM    2  O3  UNK     1      18.257   1.640  37.366  1.00  0.00    -0.260 OA
HETATM    3  C1  UNK     1      18.324   2.917  31.235  1.00  0.00    -0.024 A 
HETATM    4  C2  UNK     1      18.359   1.606  33.286  1.00  0.00     0.005 A 
HETATM    5  C3  UNK     1      18.388   1.681  31.887  1.00  0.00     0.024 A 
HETATM    6  C4  UNK     1      18.267   2.804  33.996  1.00  0.00     0.093 A 
HETATM    7  C5  UNK     1      18.233   4.098  31.970  1.00  0.00     0.088 A 
HETATM    8  C7  UNK     1      18.420   0.345  34.038  1.00  0.00    -0.043 A 
HETATM    9  C8  UNK     1      18.204   4.045  33.360  1.00  0.00     0.076 A 
HETATM   10  C10 UNK     1      18.386   0.386  35.377  1.00  0.00     0.090 A 
HETATM   11  C11 UNK     1      18.519  -0.960  33.304  1.00  0.00     0.049 C 
HETATM   12  C12 UNK     1      18.289   1.641  36.140  1.00  0.00     0.288 A 
ENDROOT
BRANCH   7  13
HETATM   13  O2  UNK     1      18.172   5.307  31.346  1.00  0.00    -0.278 OA
BRANCH  13  14
HETATM   14  C13 UNK     1      19.217   6.187  31.689  1.00  0.00     0.263 C 
HETATM   15  O4  UNK     1      19.128   7.112  32.484  1.00  0.00    -0.265 OA
BRANCH  14  16
HETATM   16  C14 UNK     1      20.463   5.808  30.921  1.00  0.00     0.107 C 
HETATM   17  C15 UNK     1      21.711   5.895  31.782  1.00  0.00     0.015 C 
ENDBRANCH  14  16
ENDBRANCH  13  14
ENDBRANCH   7  13
BRANCH   3  18
HETATM   18  C6  UNK     1      18.358   2.954  29.742  1.00  0.00     0.037 C 
HETATM   19  C9  UNK     1      18.371   1.557  29.129  1.00  0.00     0.010 C 
ENDBRANCH   3  18
TORSDOF 4
ENDMDL
MODEL 6
REMARK VINA RESULT:      -6.9      3.910      6.580
REMARK  4 active torsions:
REMARK  status: ('A' for Active; 'I' for Inactive)
REMARK    1  A    between atoms: C13_17  and  O2_2 
REMARK    2  A    between atoms: C5_9  and  O2_2 
REMARK    3  A    between atoms: C1_5  and  C6_10 
REMARK    4  A    between atoms: C13_17  and  C14_18 
ROOT
HETATM    1  O1  UNK     1      17.148   4.560  32.127  1.00  0.00    -0.275 OA
HETATM    2  O3  UNK     1      17.440   2.702  30.826  1.00  0.00    -0.260 OA
HETATM    3  C1  UNK     1      18.550   8.186  33.639  1.00  0.00    -0.024 A 
HETATM    4  C2  UNK     1      18.927   6.231  32.239  1.00  0.00     0.005 A 
HETATM    5  C3  UNK     1      19.363   7.453  32.767  1.00  0.00     0.024 A 
HETATM    6  C4  UNK     1      17.661   5.778  32.614  1.00  0.00     0.093 A 
HETATM    7  C5  UNK     1      17.290   7.710  33.997  1.00  0.00     0.088 A 
HETATM    8  C7  UNK     1      19.723   5.408  31.319  1.00  0.00    -0.043 A 
HETATM    9  C8  UNK     1      16.839   6.498  33.483  1.00  0.00     0.076 A 
HETATM   10  C10 UNK     1      19.211   4.253  30.871  1.00  0.00     0.090 A 
HETATM   11  C11 UNK     1      21.088   5.867  30.895  1.00  0.00     0.049 C 
HETATM   12  C12 UNK     1      17.877   3.763  31.258  1.00  0.00     0.288 A 
ENDROOT
BRANCH   7  13
HETATM   13  O2  UNK     1      16.492   8.415  34.845  1.00  0.00    -0.278 OA
BRANCH  13  14
HETATM   14  C13 UNK     1      15.299   8.882  34.261  1.00  0.00     0.263 C 
HETATM   15  O4  UNK     1      14.259   8.243  34.170  1.00  0.00    -0.265 OA
BRANCH  14  16
HETATM   16  C14 UNK     1      15.503  10.296  33.766  1.00  0.00     0.107 C 
HETATM   17  C15 UNK     1      15.870  11.247  34.891  1.00  0.00     0.015 C 
ENDBRANCH  14  16
ENDBRANCH  13  14
ENDBRANCH   7  13
BRANCH   3  18
HETATM   18  C6  UNK     1      19.052   9.485  34.181  1.00  0.00     0.037 C 
HETATM   19  C9  UNK     1      20.542   9.438  34.509  1.00  0.00     0.010 C 
ENDBRANCH   3  18
TORSDOF 4
ENDMDL
MODEL 7
REMARK VINA RESULT:      -6.9      2.042      6.159
REMARK  4 active torsions:
REMARK  status: ('A' for Active; 'I' for Inactive)
REMARK    1  A    between atoms: C13_17  and  O2_2 
REMARK    2  A    between atoms: C5_9  and  O2_2 
REMARK    3  A    between atoms: C1_5  and  C6_10 
REMARK    4  A    between atoms: C13_17  and  C14_18 
ROOT
HETATM    1  O1  UNK     1      19.037   4.077  30.086  1.00  0.00    -0.275 OA
HETATM    2  O3  UNK     1      19.114   6.244  29.359  1.00  0.00    -0.260 OA
HETATM    3  C1  UNK     1      18.359   1.288  33.114  1.00  0.00    -0.024 A 
HETATM    4  C2  UNK     1      18.426   3.616  32.406  1.00  0.00     0.005 A 
HETATM    5  C3  UNK     1      18.207   2.650  33.397  1.00  0.00     0.024 A 
HETATM    6  C4  UNK     1      18.799   3.170  31.138  1.00  0.00     0.093 A 
HETATM    7  C5  UNK     1      18.733   0.871  31.838  1.00  0.00     0.088 A 
HETATM    8  C7  UNK     1      18.284   5.062  32.629  1.00  0.00    -0.043 A 
HETATM    9  C8  UNK     1      18.955   1.815  30.840  1.00  0.00     0.076 A 
HETATM   10  C10 UNK     1      18.518   5.902  31.611  1.00  0.00     0.090 A 
HETATM   11  C11 UNK     1      17.883   5.574  33.981  1.00  0.00     0.049 C 
HETATM   12  C12 UNK     1      18.912   5.446  30.268  1.00  0.00     0.288 A 
ENDROOT
BRANCH   7  13
HETATM   13  O2  UNK     1      18.885  -0.452  31.552  1.00  0.00    -0.278 OA
BRANCH  13  14
HETATM   14  C13 UNK     1      20.134  -0.782  30.992  1.00  0.00     0.263 C 
HETATM   15  O4  UNK     1      21.221  -0.465  31.455  1.00  0.00    -0.265 OA
BRANCH  14  16
HETATM   16  C14 UNK     1      19.921  -1.589  29.732  1.00  0.00     0.107 C 
HETATM   17  C15 UNK     1      19.949  -0.720  28.487  1.00  0.00     0.015 C 
ENDBRANCH  14  16
ENDBRANCH  13  14
ENDBRANCH   7  13
BRANCH   3  18
HETATM   18  C6  UNK     1      18.116   0.289  34.198  1.00  0.00     0.037 C 
HETATM   19  C9  UNK     1      16.721   0.418  34.802  1.00  0.00     0.010 C 
ENDBRANCH   3  18
TORSDOF 4
ENDMDL
MODEL 8
REMARK VINA RESULT:      -6.9      1.598      2.443
REMARK  4 active torsions:
REMARK  status: ('A' for Active; 'I' for Inactive)
REMARK    1  A    between atoms: C13_17  and  O2_2 
REMARK    2  A    between atoms: C5_9  and  O2_2 
REMARK    3  A    between atoms: C1_5  and  C6_10 
REMARK    4  A    between atoms: C13_17  and  C14_18 
ROOT
HETATM    1  O1  UNK     1      18.502   0.625  33.181  1.00  0.00    -0.275 OA
HETATM    2  O3  UNK     1      18.819  -1.631  33.385  1.00  0.00    -0.260 OA
HETATM    3  C1  UNK     1      18.649   4.119  30.906  1.00  0.00    -0.024 A 
HETATM    4  C2  UNK     1      19.014   1.717  31.057  1.00  0.00     0.005 A 
HETATM    5  C3  UNK     1      19.049   2.910  30.324  1.00  0.00     0.024 A 
HETATM    6  C4  UNK     1      18.568   1.780  32.378  1.00  0.00     0.093 A 
HETATM    7  C5  UNK     1      18.209   4.153  32.228  1.00  0.00     0.088 A 
HETATM    8  C7  UNK     1      19.416   0.413  30.512  1.00  0.00    -0.043 A 
HETATM    9  C8  UNK     1      18.166   2.978  32.972  1.00  0.00     0.076 A 
HETATM   10  C10 UNK     1      19.344  -0.670  31.300  1.00  0.00     0.090 A 
HETATM   11  C11 UNK     1      19.899   0.310  29.096  1.00  0.00     0.049 C 
HETATM   12  C12 UNK     1      18.875  -0.618  32.695  1.00  0.00     0.288 A 
ENDROOT
BRANCH   7  13
HETATM   13  O2  UNK     1      17.818   5.323  32.804  1.00  0.00    -0.278 OA
BRANCH  13  14
HETATM   14  C13 UNK     1      18.844   5.997  33.495  1.00  0.00     0.263 C 
HETATM   15  O4  UNK     1      19.672   5.467  34.223  1.00  0.00    -0.265 OA
BRANCH  14  16
HETATM   16  C14 UNK     1      18.762   7.477  33.195  1.00  0.00     0.107 C 
HETATM   17  C15 UNK     1      19.500   8.310  34.227  1.00  0.00     0.015 C 
ENDBRANCH  14  16
ENDBRANCH  13  14
ENDBRANCH   7  13
BRANCH   3  18
HETATM   18  C6  UNK     1      18.703   5.370  30.092  1.00  0.00     0.037 C 
HETATM   19  C9  UNK     1      20.113   5.949  30.012  1.00  0.00     0.010 C 
ENDBRANCH   3  18
TORSDOF 4
ENDMDL
MODEL 9
REMARK VINA RESULT:      -6.8      1.913      5.794
REMARK  4 active torsions:
REMARK  status: ('A' for Active; 'I' for Inactive)
REMARK    1  A    between atoms: C13_17  and  O2_2 
REMARK    2  A    between atoms: C5_9  and  O2_2 
REMARK    3  A    between atoms: C1_5  and  C6_10 
REMARK    4  A    between atoms: C13_17  and  C14_18 
ROOT
HETATM    1  O1  UNK     1      17.928   5.564  34.113  1.00  0.00    -0.275 OA
HETATM    2  O3  UNK     1      17.661   7.824  34.346  1.00  0.00    -0.260 OA
HETATM    3  C1  UNK     1      18.690   2.227  31.728  1.00  0.00    -0.024 A 
HETATM    4  C2  UNK     1      18.413   4.639  31.905  1.00  0.00     0.005 A 
HETATM    5  C3  UNK     1      18.666   3.495  31.137  1.00  0.00     0.024 A 
HETATM    6  C4  UNK     1      18.188   4.465  33.271  1.00  0.00     0.093 A 
HETATM    7  C5  UNK     1      18.461   2.083  33.096  1.00  0.00     0.088 A 
HETATM    8  C7  UNK     1      18.374   6.001  31.354  1.00  0.00    -0.043 A 
HETATM    9  C8  UNK     1      18.208   3.207  33.876  1.00  0.00     0.076 A 
HETATM   10  C10 UNK     1      18.123   7.028  32.178  1.00  0.00     0.090 A 
HETATM   11  C11 UNK     1      18.613   6.223  29.889  1.00  0.00     0.049 C 
HETATM   12  C12 UNK     1      17.884   6.860  33.621  1.00  0.00     0.288 A 
ENDROOT
BRANCH   7  13
HETATM   13  O2  UNK     1      18.481   0.854  33.681  1.00  0.00    -0.278 OA
BRANCH  13  14
HETATM   14  C13 UNK     1      17.398   0.609  34.547  1.00  0.00     0.263 C 
HETATM   15  O4  UNK     1      16.217   0.648  34.229  1.00  0.00    -0.265 OA
BRANCH  14  16
HETATM   16  C14 UNK     1      17.923   0.290  35.928  1.00  0.00     0.107 C 
HETATM   17  C15 UNK     1      17.420   1.273  36.970  1.00  0.00     0.015 C 
ENDBRANCH  14  16
ENDBRANCH  13  14
ENDBRANCH   7  13
BRANCH   3  18
HETATM   18  C6  UNK     1      18.962   1.032  30.874  1.00  0.00     0.037 C 
HETATM   19  C9  UNK     1      18.921   1.364  29.385  1.00  0.00     0.010 C 
ENDBRANCH   3  18
TORSDOF 4
ENDMDL
MODEL 10
REMARK VINA RESULT:      -6.8      2.209      4.350
REMARK  4 active torsions:
REMARK  status: ('A' for Active; 'I' for Inactive)
REMARK    1  A    between atoms: C13_17  and  O2_2 
REMARK    2  A    between atoms: C5_9  and  O2_2 
REMARK    3  A    between atoms: C1_5  and  C6_10 
REMARK    4  A    between atoms: C13_17  and  C14_18 
ROOT
HETATM    1  O1  UNK     1      18.632  -1.737  34.948  1.00  0.00    -0.275 OA
HETATM    2  O3  UNK     1      18.468  -2.817  36.956  1.00  0.00    -0.260 OA
HETATM    3  C1  UNK     1      18.375   1.751  32.672  1.00  0.00    -0.024 A 
HETATM    4  C2  UNK     1      18.178   0.661  34.840  1.00  0.00     0.005 A 
HETATM    5  C3  UNK     1      18.102   1.811  34.043  1.00  0.00     0.024 A 
HETATM    6  C4  UNK     1      18.533  -0.536  34.217  1.00  0.00     0.093 A 
HETATM    7  C5  UNK     1      18.727   0.541  32.076  1.00  0.00     0.088 A 
HETATM    8  C7  UNK     1      17.907   0.649  36.284  1.00  0.00    -0.043 A 
HETATM    9  C8  UNK     1      18.808  -0.612  32.850  1.00  0.00     0.076 A 
HETATM   10  C10 UNK     1      18.008  -0.508  36.954  1.00  0.00     0.090 A 
HETATM   11  C11 UNK     1      17.524   1.919  36.984  1.00  0.00     0.049 C 
HETATM   12  C12 UNK     1      18.382  -1.778  36.310  1.00  0.00     0.288 A 
ENDROOT
BRANCH   7  13
HETATM   13  O2  UNK     1      18.994   0.471  30.743  1.00  0.00    -0.278 OA
BRANCH  13  14
HETATM   14  C13 UNK     1      20.269  -0.041  30.435  1.00  0.00     0.263 C 
HETATM   15  O4  UNK     1      21.207  -0.119  31.217  1.00  0.00    -0.265 OA
BRANCH  14  16
HETATM   16  C14 UNK     1      20.297  -0.479  28.988  1.00  0.00     0.107 C 
HETATM   17  C15 UNK     1      19.020  -0.108  28.255  1.00  0.00     0.015 C 
ENDBRANCH  14  16
ENDBRANCH  13  14
ENDBRANCH   7  13
BRANCH   3  18
HETATM   18  C6  UNK     1      18.283   2.999  31.857  1.00  0.00     0.037 C 
HETATM   19  C9  UNK     1      18.180   4.251  32.724  1.00  0.00     0.010 C 
ENDBRANCH   3  18
TORSDOF 4
ENDMDL
