MODEL 1
REMARK VINA RESULT:      -8.3      0.000      0.000
REMARK  4 active torsions:
REMARK  status: ('A' for Active; 'I' for Inactive)
REMARK    1  A    between atoms: C7_12  and  O2_2 
REMARK    2  A    between atoms: C9_14  and  O4_4 
REMARK    3  A    between atoms: C15_20  and  O5_5 
REMARK    4  A    between atoms: C3_8  and  C4_9 
ROOT
HETATM    1  O1  UNK     1      19.150  -1.081  17.589  1.00  0.00    -0.309 OA
HETATM    2  O3  UNK     1      19.172   2.335  15.367  1.00  0.00    -0.287 OA
HETATM    3  C1  UNK     1      19.137   1.347  17.514  1.00  0.00     0.081 A 
HETATM    4  C2  UNK     1      19.133   0.141  18.212  1.00  0.00     0.095 A 
HETATM    5  C3  UNK     1      19.166  -1.115  16.202  1.00  0.00     0.090 A 
HETATM    6  C5  UNK     1      19.163   1.316  16.043  1.00  0.00     0.190 A 
HETATM    7  C6  UNK     1      19.179  -0.024  15.420  1.00  0.00     0.094 A 
HETATM    8  C7  UNK     1      19.119   2.563  18.202  1.00  0.00     0.085 A 
HETATM    9  C8  UNK     1      19.109   0.144  19.608  1.00  0.00     0.075 A 
HETATM   10  C9  UNK     1      19.091   1.356  20.298  1.00  0.00     0.071 A 
HETATM   11  C10 UNK     1      19.096   2.562  19.597  1.00  0.00     0.074 A 
ENDROOT
BRANCH   5  12
HETATM   12  C4  UNK     1      19.191  -2.478  15.636  1.00  0.00    -0.002 A 
HETATM   13  C11 UNK     1      18.024  -3.044  15.118  1.00  0.00     0.017 A 
HETATM   14  C13 UNK     1      18.047  -4.332  14.583  1.00  0.00     0.037 A 
HETATM   15  C15 UNK     1      19.238  -5.058  14.565  1.00  0.00     0.068 A 
HETATM   16  C14 UNK     1      20.405  -4.496  15.081  1.00  0.00     0.037 A 
HETATM   17  C12 UNK     1      20.382  -3.207  15.616  1.00  0.00     0.017 A 
BRANCH  15  18
HETATM   18  O5  UNK     1      19.261  -6.315  14.043  1.00  0.00    -0.356 OA
HETATM   19  C16 UNK     1      18.039  -6.815  13.501  1.00  0.00     0.210 C 
ENDBRANCH  15  18
ENDBRANCH   5  12
BRANCH   8  20
HETATM   20  O2  UNK     1      19.123   3.766  17.565  1.00  0.00    -0.360 OA
HETATM   21  H8  UNK     1      19.257   4.487  18.198  1.00  0.00     0.217 HD
ENDBRANCH   8  20
BRANCH  10  22
HETATM   22  O4  UNK     1      19.070   1.361  21.660  1.00  0.00    -0.361 OA
HETATM   23  H9  UNK     1      19.949   1.612  21.988  1.00  0.00     0.217 HD
ENDBRANCH  10  22
TORSDOF 4
ENDMDL
MODEL 2
REMARK VINA RESULT:      -8.1     12.216     16.307
REMARK  4 active torsions:
REMARK  status: ('A' for Active; 'I' for Inactive)
REMARK    1  A    between atoms: C7_12  and  O2_2 
REMARK    2  A    between atoms: C9_14  and  O4_4 
REMARK    3  A    between atoms: C15_20  and  O5_5 
REMARK    4  A    between atoms: C3_8  and  C4_9 
ROOT
HETATM    1  O1  UNK     1      19.255   2.037  31.397  1.00  0.00    -0.309 OA
HETATM    2  O3  UNK     1      17.904   1.809  27.560  1.00  0.00    -0.287 OA
HETATM    3  C1  UNK     1      18.992   0.736  29.362  1.00  0.00     0.081 A 
HETATM    4  C2  UNK     1      19.428   0.882  30.678  1.00  0.00     0.095 A 
HETATM    5  C3  UNK     1      18.624   3.109  30.783  1.00  0.00     0.090 A 
HETATM    6  C5  UNK     1      18.315   1.868  28.710  1.00  0.00     0.190 A 
HETATM    7  C6  UNK     1      18.155   3.090  29.525  1.00  0.00     0.094 A 
HETATM    8  C7  UNK     1      19.196  -0.465  28.678  1.00  0.00     0.085 A 
HETATM    9  C8  UNK     1      20.072  -0.177  31.319  1.00  0.00     0.075 A 
HETATM   10  C9  UNK     1      20.277  -1.379  30.640  1.00  0.00     0.071 A 
HETATM   11  C10 UNK     1      19.840  -1.521  29.322  1.00  0.00     0.074 A 
ENDROOT
BRANCH   5  12
HETATM   12  C4  UNK     1      18.484   4.298  31.646  1.00  0.00    -0.002 A 
HETATM   13  C11 UNK     1      18.557   5.579  31.095  1.00  0.00     0.017 A 
HETATM   14  C13 UNK     1      18.424   6.703  31.911  1.00  0.00     0.037 A 
HETATM   15  C15 UNK     1      18.221   6.547  33.283  1.00  0.00     0.068 A 
HETATM   16  C14 UNK     1      18.148   5.270  33.837  1.00  0.00     0.037 A 
HETATM   17  C12 UNK     1      18.279   4.146  33.021  1.00  0.00     0.017 A 
BRANCH  15  18
HETATM   18  O5  UNK     1      18.092   7.644  34.079  1.00  0.00    -0.356 OA
HETATM   19  C16 UNK     1      16.960   7.686  34.948  1.00  0.00     0.210 C 
ENDBRANCH  15  18
ENDBRANCH   5  12
BRANCH   8  20
HETATM   20  O2  UNK     1      18.788  -0.655  27.393  1.00  0.00    -0.360 OA
HETATM   21  H8  UNK     1      18.926  -1.575  27.123  1.00  0.00     0.217 HD
ENDBRANCH   8  20
BRANCH  10  22
HETATM   22  O4  UNK     1      20.904  -2.413  31.264  1.00  0.00    -0.361 OA
HETATM   23  H9  UNK     1      21.461  -2.880  30.618  1.00  0.00     0.217 HD
ENDBRANCH  10  22
TORSDOF 4
ENDMDL
MODEL 3
REMARK VINA RESULT:      -8.1     14.367     17.625
REMARK  4 active torsions:
REMARK  status: ('A' for Active; 'I' for Inactive)
REMARK    1  A    between atoms: C7_12  and  O2_2 
REMARK    2  A    between atoms: C9_14  and  O4_4 
REMARK    3  A    between atoms: C15_20  and  O5_5 
REMARK    4  A    between atoms: C3_8  and  C4_9 
ROOT
HETATM    1  O1  UNK     1      18.114   2.831  33.052  1.00  0.00    -0.309 OA
HETATM    2  O3  UNK     1      19.380   1.332  29.482  1.00  0.00    -0.287 OA
HETATM    3  C1  UNK     1      18.812   0.912  31.737  1.00  0.00     0.081 A 
HETATM    4  C2  UNK     1      18.375   1.491  32.927  1.00  0.00     0.095 A 
HETATM    5  C3  UNK     1      18.299   3.646  31.945  1.00  0.00     0.090 A 
HETATM    6  C5  UNK     1      19.003   1.772  30.558  1.00  0.00     0.190 A 
HETATM    7  C6  UNK     1      18.709   3.208  30.745  1.00  0.00     0.094 A 
HETATM    8  C7  UNK     1      19.063  -0.461  31.667  1.00  0.00     0.085 A 
HETATM    9  C8  UNK     1      18.186   0.696  34.059  1.00  0.00     0.075 A 
HETATM   10  C9  UNK     1      18.435  -0.675  33.994  1.00  0.00     0.071 A 
HETATM   11  C10 UNK     1      18.873  -1.251  32.801  1.00  0.00     0.074 A 
ENDROOT
BRANCH   5  12
HETATM   12  C4  UNK     1      17.983   5.068  32.187  1.00  0.00    -0.002 A 
HETATM   13  C11 UNK     1      17.679   5.510  33.477  1.00  0.00     0.017 A 
HETATM   14  C13 UNK     1      17.380   6.853  33.706  1.00  0.00     0.037 A 
HETATM   15  C15 UNK     1      17.383   7.759  32.644  1.00  0.00     0.068 A 
HETATM   16  C14 UNK     1      17.686   7.321  31.355  1.00  0.00     0.037 A 
HETATM   17  C12 UNK     1      17.986   5.977  31.127  1.00  0.00     0.017 A 
BRANCH  15  18
HETATM   18  O5  UNK     1      17.091   9.069  32.867  1.00  0.00    -0.356 OA
HETATM   19  C16 UNK     1      17.828   9.733  33.894  1.00  0.00     0.210 C 
ENDBRANCH  15  18
ENDBRANCH   5  12
BRANCH   8  20
HETATM   20  O2  UNK     1      19.491  -1.071  30.528  1.00  0.00    -0.360 OA
HETATM   21  H8  UNK     1      18.952  -1.853  30.337  1.00  0.00     0.217 HD
ENDBRANCH   8  20
BRANCH  10  22
HETATM   22  O4  UNK     1      18.250  -1.452  35.096  1.00  0.00    -0.361 OA
HETATM   23  H9  UNK     1      18.783  -1.095  35.826  1.00  0.00     0.217 HD
ENDBRANCH  10  22
TORSDOF 4
ENDMDL
MODEL 4
REMARK VINA RESULT:      -8.0     15.657     18.765
REMARK  4 active torsions:
REMARK  status: ('A' for Active; 'I' for Inactive)
REMARK    1  A    between atoms: C7_12  and  O2_2 
REMARK    2  A    between atoms: C9_14  and  O4_4 
REMARK    3  A    between atoms: C15_20  and  O5_5 
REMARK    4  A    between atoms: C3_8  and  C4_9 
ROOT
HETATM    1  O1  UNK     1      18.266   3.605  34.275  1.00  0.00    -0.309 OA
HETATM    2  O3  UNK     1      18.339   1.533  30.768  1.00  0.00    -0.287 OA
HETATM    3  C1  UNK     1      18.346   1.465  33.130  1.00  0.00     0.081 A 
HETATM    4  C2  UNK     1      18.317   2.235  34.291  1.00  0.00     0.095 A 
HETATM    5  C3  UNK     1      18.250   4.251  33.048  1.00  0.00     0.090 A 
HETATM    6  C5  UNK     1      18.320   2.146  31.826  1.00  0.00     0.190 A 
HETATM    7  C6  UNK     1      18.267   3.622  31.862  1.00  0.00     0.094 A 
HETATM    8  C7  UNK     1      18.398   0.070  33.206  1.00  0.00     0.085 A 
HETATM    9  C8  UNK     1      18.340   1.613  35.540  1.00  0.00     0.075 A 
HETATM   10  C9  UNK     1      18.391   0.221  35.621  1.00  0.00     0.071 A 
HETATM   11  C10 UNK     1      18.420  -0.548  34.457  1.00  0.00     0.074 A 
ENDROOT
BRANCH   5  12
HETATM   12  C4  UNK     1      18.188   5.723  33.145  1.00  0.00    -0.002 A 
HETATM   13  C11 UNK     1      17.095   6.417  32.621  1.00  0.00     0.017 A 
HETATM   14  C13 UNK     1      17.036   7.807  32.713  1.00  0.00     0.037 A 
HETATM   15  C15 UNK     1      18.073   8.509  33.329  1.00  0.00     0.068 A 
HETATM   16  C14 UNK     1      19.166   7.820  33.854  1.00  0.00     0.037 A 
HETATM   17  C12 UNK     1      19.224   6.429  33.763  1.00  0.00     0.017 A 
BRANCH  15  18
HETATM   18  O5  UNK     1      18.016   9.866  33.419  1.00  0.00    -0.356 OA
HETATM   19  C16 UNK     1      16.894  10.425  34.101  1.00  0.00     0.210 C 
ENDBRANCH  15  18
ENDBRANCH   5  12
BRANCH   8  20
HETATM   20  O2  UNK     1      18.427  -0.724  32.101  1.00  0.00    -0.360 OA
HETATM   21  H8  UNK     1      19.338  -0.970  31.882  1.00  0.00     0.217 HD
ENDBRANCH   8  20
BRANCH  10  22
HETATM   22  O4  UNK     1      18.412  -0.389  36.838  1.00  0.00    -0.361 OA
HETATM   23  H9  UNK     1      18.264  -1.341  36.717  1.00  0.00     0.217 HD
ENDBRANCH  10  22
TORSDOF 4
ENDMDL
MODEL 5
REMARK VINA RESULT:      -7.9     18.265     21.496
REMARK  4 active torsions:
REMARK  status: ('A' for Active; 'I' for Inactive)
REMARK    1  A    between atoms: C7_12  and  O2_2 
REMARK    2  A    between atoms: C9_14  and  O4_4 
REMARK    3  A    between atoms: C15_20  and  O5_5 
REMARK    4  A    between atoms: C3_8  and  C4_9 
ROOT
HETATM    1  O1  UNK     1      20.534  -6.145  35.711  1.00  0.00    -0.309 OA
HETATM    2  O3  UNK     1      20.680  -7.260  39.628  1.00  0.00    -0.287 OA
HETATM    3  C1  UNK     1      20.929  -7.883  37.361  1.00  0.00     0.081 A 
HETATM    4  C2  UNK     1      20.862  -7.434  36.043  1.00  0.00     0.095 A 
HETATM    5  C3  UNK     1      20.251  -5.251  36.733  1.00  0.00     0.090 A 
HETATM    6  C5  UNK     1      20.637  -6.936  38.449  1.00  0.00     0.190 A 
HETATM    7  C6  UNK     1      20.288  -5.560  38.039  1.00  0.00     0.094 A 
HETATM    8  C7  UNK     1      21.268  -9.209  37.641  1.00  0.00     0.085 A 
HETATM    9  C8  UNK     1      21.135  -8.313  34.994  1.00  0.00     0.075 A 
HETATM   10  C9  UNK     1      21.475  -9.638  35.269  1.00  0.00     0.071 A 
HETATM   11  C10 UNK     1      21.541 -10.085  36.590  1.00  0.00     0.074 A 
ENDROOT
BRANCH   5  12
HETATM   12  C4  UNK     1      19.917  -3.891  36.266  1.00  0.00    -0.002 A 
HETATM   13  C11 UNK     1      20.277  -3.482  34.980  1.00  0.00     0.017 A 
HETATM   14  C13 UNK     1      19.962  -2.197  34.538  1.00  0.00     0.037 A 
HETATM   15  C15 UNK     1      19.287  -1.316  35.383  1.00  0.00     0.068 A 
HETATM   16  C14 UNK     1      18.926  -1.720  36.668  1.00  0.00     0.037 A 
HETATM   17  C12 UNK     1      19.240  -3.006  37.109  1.00  0.00     0.017 A 
BRANCH  15  18
HETATM   18  O5  UNK     1      18.980  -0.062  34.952  1.00  0.00    -0.356 OA
HETATM   19  C16 UNK     1      18.766   0.934  35.952  1.00  0.00     0.210 C 
ENDBRANCH  15  18
ENDBRANCH   5  12
BRANCH   8  20
HETATM   20  O2  UNK     1      21.347  -9.694  38.911  1.00  0.00    -0.360 OA
HETATM   21  H8  UNK     1      22.258  -9.649  39.238  1.00  0.00     0.217 HD
ENDBRANCH   8  20
BRANCH  10  22
HETATM   22  O4  UNK     1      21.743 -10.497  34.247  1.00  0.00    -0.361 OA
HETATM   23  H9  UNK     1      22.601 -10.923  34.410  1.00  0.00     0.217 HD
ENDBRANCH  10  22
TORSDOF 4
ENDMDL
MODEL 6
REMARK VINA RESULT:      -7.9     13.076     16.368
REMARK  4 active torsions:
REMARK  status: ('A' for Active; 'I' for Inactive)
REMARK    1  A    between atoms: C7_12  and  O2_2 
REMARK    2  A    between atoms: C9_14  and  O4_4 
REMARK    3  A    between atoms: C15_20  and  O5_5 
REMARK    4  A    between atoms: C3_8  and  C4_9 
ROOT
HETATM    1  O1  UNK     1      18.793   1.828  31.941  1.00  0.00    -0.309 OA
HETATM    2  O3  UNK     1      19.549   0.245  28.264  1.00  0.00    -0.287 OA
HETATM    3  C1  UNK     1      19.363  -0.110  30.593  1.00  0.00     0.081 A 
HETATM    4  C2  UNK     1      19.093   0.495  31.819  1.00  0.00     0.095 A 
HETATM    5  C3  UNK     1      18.764   2.607  30.794  1.00  0.00     0.090 A 
HETATM    6  C5  UNK     1      19.326   0.711  29.372  1.00  0.00     0.190 A 
HETATM    7  C6  UNK     1      18.999   2.140  29.558  1.00  0.00     0.094 A 
HETATM    8  C7  UNK     1      19.664  -1.473  30.527  1.00  0.00     0.085 A 
HETATM    9  C8  UNK     1      19.122  -0.262  32.990  1.00  0.00     0.075 A 
HETATM   10  C9  UNK     1      19.421  -1.624  32.929  1.00  0.00     0.071 A 
HETATM   11  C10 UNK     1      19.691  -2.227  31.701  1.00  0.00     0.074 A 
ENDROOT
BRANCH   5  12
HETATM   12  C4  UNK     1      18.425   4.023  31.039  1.00  0.00    -0.002 A 
HETATM   13  C11 UNK     1      17.645   4.378  32.141  1.00  0.00     0.017 A 
HETATM   14  C13 UNK     1      17.324   5.715  32.372  1.00  0.00     0.037 A 
HETATM   15  C15 UNK     1      17.782   6.703  31.499  1.00  0.00     0.068 A 
HETATM   16  C14 UNK     1      18.561   6.352  30.397  1.00  0.00     0.037 A 
HETATM   17  C12 UNK     1      18.883   5.014  30.167  1.00  0.00     0.017 A 
BRANCH  15  18
HETATM   18  O5  UNK     1      17.469   8.008  31.725  1.00  0.00    -0.356 OA
HETATM   19  C16 UNK     1      17.345   8.420  33.085  1.00  0.00     0.210 C 
ENDBRANCH  15  18
ENDBRANCH   5  12
BRANCH   8  20
HETATM   20  O2  UNK     1      19.934  -2.109  29.354  1.00  0.00    -0.360 OA
HETATM   21  H8  UNK     1      19.325  -1.817  28.660  1.00  0.00     0.217 HD
ENDBRANCH   8  20
BRANCH  10  22
HETATM   22  O4  UNK     1      19.448  -2.365  34.071  1.00  0.00    -0.361 OA
HETATM   23  H9  UNK     1      18.939  -3.180  33.930  1.00  0.00     0.217 HD
ENDBRANCH  10  22
TORSDOF 4
ENDMDL
MODEL 7
REMARK VINA RESULT:      -7.9     15.628     19.044
REMARK  4 active torsions:
REMARK  status: ('A' for Active; 'I' for Inactive)
REMARK    1  A    between atoms: C7_12  and  O2_2 
REMARK    2  A    between atoms: C9_14  and  O4_4 
REMARK    3  A    between atoms: C15_20  and  O5_5 
REMARK    4  A    between atoms: C3_8  and  C4_9 
ROOT
HETATM    1  O1  UNK     1      18.929   0.448  34.209  1.00  0.00    -0.309 OA
HETATM    2  O3  UNK     1      17.580   0.772  38.039  1.00  0.00    -0.287 OA
HETATM    3  C1  UNK     1      18.570  -0.585  36.377  1.00  0.00     0.081 A 
HETATM    4  C2  UNK     1      19.014  -0.626  35.057  1.00  0.00     0.095 A 
HETATM    5  C3  UNK     1      18.372   1.625  34.686  1.00  0.00     0.090 A 
HETATM    6  C5  UNK     1      17.986   0.664  36.891  1.00  0.00     0.190 A 
HETATM    7  C6  UNK     1      17.916   1.791  35.938  1.00  0.00     0.094 A 
HETATM    8  C7  UNK     1      18.682  -1.711  37.197  1.00  0.00     0.085 A 
HETATM    9  C8  UNK     1      19.573  -1.798  34.546  1.00  0.00     0.075 A 
HETATM   10  C9  UNK     1      19.687  -2.925  35.361  1.00  0.00     0.071 A 
HETATM   11  C10 UNK     1      19.242  -2.881  36.683  1.00  0.00     0.074 A 
ENDROOT
BRANCH   5  12
HETATM   12  C4  UNK     1      18.335   2.718  33.695  1.00  0.00    -0.002 A 
HETATM   13  C11 UNK     1      18.332   4.049  34.117  1.00  0.00     0.017 A 
HETATM   14  C13 UNK     1      18.298   5.082  33.180  1.00  0.00     0.037 A 
HETATM   15  C15 UNK     1      18.265   4.786  31.817  1.00  0.00     0.068 A 
HETATM   16  C14 UNK     1      18.268   3.458  31.392  1.00  0.00     0.037 A 
HETATM   17  C12 UNK     1      18.304   2.425  32.329  1.00  0.00     0.017 A 
BRANCH  15  18
HETATM   18  O5  UNK     1      18.232   5.794  30.903  1.00  0.00    -0.356 OA
HETATM   19  C16 UNK     1      19.368   5.936  30.051  1.00  0.00     0.210 C 
ENDBRANCH  15  18
ENDBRANCH   5  12
BRANCH   8  20
HETATM   20  O2  UNK     1      18.263  -1.719  38.493  1.00  0.00    -0.360 OA
HETATM   21  H8  UNK     1      17.395  -2.141  38.568  1.00  0.00     0.217 HD
ENDBRANCH   8  20
BRANCH  10  22
HETATM   22  O4  UNK     1      20.233  -4.069  34.866  1.00  0.00    -0.361 OA
HETATM   23  H9  UNK     1      19.861  -4.240  33.984  1.00  0.00     0.217 HD
ENDBRANCH  10  22
TORSDOF 4
ENDMDL
MODEL 8
REMARK VINA RESULT:      -7.7     14.919     17.423
REMARK  4 active torsions:
REMARK  status: ('A' for Active; 'I' for Inactive)
REMARK    1  A    between atoms: C7_12  and  O2_2 
REMARK    2  A    between atoms: C9_14  and  O4_4 
REMARK    3  A    between atoms: C15_20  and  O5_5 
REMARK    4  A    between atoms: C3_8  and  C4_9 
ROOT
HETATM    1  O1  UNK     1      16.699   5.609  32.430  1.00  0.00    -0.309 OA
HETATM    2  O3  UNK     1      19.588   8.227  33.614  1.00  0.00    -0.287 OA
HETATM    3  C1  UNK     1      17.311   7.863  33.096  1.00  0.00     0.081 A 
HETATM    4  C2  UNK     1      16.373   6.915  32.689  1.00  0.00     0.095 A 
HETATM    5  C3  UNK     1      18.022   5.217  32.573  1.00  0.00     0.090 A 
HETATM    6  C5  UNK     1      18.714   7.450  33.257  1.00  0.00     0.190 A 
HETATM    7  C6  UNK     1      19.013   6.033  32.964  1.00  0.00     0.094 A 
HETATM    8  C7  UNK     1      16.922   9.182  33.346  1.00  0.00     0.085 A 
HETATM    9  C8  UNK     1      15.036   7.283  32.529  1.00  0.00     0.075 A 
HETATM   10  C9  UNK     1      14.644   8.598  32.779  1.00  0.00     0.071 A 
HETATM   11  C10 UNK     1      15.584   9.545  33.186  1.00  0.00     0.074 A 
ENDROOT
BRANCH   5  12
HETATM   12  C4  UNK     1      18.261   3.791  32.276  1.00  0.00    -0.002 A 
HETATM   13  C11 UNK     1      18.184   2.838  33.295  1.00  0.00     0.017 A 
HETATM   14  C13 UNK     1      18.409   1.491  33.014  1.00  0.00     0.037 A 
HETATM   15  C15 UNK     1      18.714   1.092  31.713  1.00  0.00     0.068 A 
HETATM   16  C14 UNK     1      18.793   2.039  30.693  1.00  0.00     0.037 A 
HETATM   17  C12 UNK     1      18.566   3.387  30.973  1.00  0.00     0.017 A 
BRANCH  15  18
HETATM   18  O5  UNK     1      18.935  -0.223  31.439  1.00  0.00    -0.356 OA
HETATM   19  C16 UNK     1      18.904  -1.130  32.541  1.00  0.00     0.210 C 
ENDBRANCH  15  18
ENDBRANCH   5  12
BRANCH   8  20
HETATM   20  O2  UNK     1      17.800  10.142  33.745  1.00  0.00    -0.360 OA
HETATM   21  H8  UNK     1      17.365  10.782  34.327  1.00  0.00     0.217 HD
ENDBRANCH   8  20
BRANCH  10  22
HETATM   22  O4  UNK     1      13.340   8.958  32.625  1.00  0.00    -0.361 OA
HETATM   23  H9  UNK     1      13.286   9.926  32.553  1.00  0.00     0.217 HD
ENDBRANCH  10  22
TORSDOF 4
ENDMDL
MODEL 9
REMARK VINA RESULT:      -7.7      2.505      7.424
REMARK  4 active torsions:
REMARK  status: ('A' for Active; 'I' for Inactive)
REMARK    1  A    between atoms: C7_12  and  O2_2 
REMARK    2  A    between atoms: C9_14  and  O4_4 
REMARK    3  A    between atoms: C15_20  and  O5_5 
REMARK    4  A    between atoms: C3_8  and  C4_9 
ROOT
HETATM    1  O1  UNK     1      19.649  -0.721  14.800  1.00  0.00    -0.309 OA
HETATM    2  O3  UNK     1      17.570  -4.225  14.822  1.00  0.00    -0.287 OA
HETATM    3  C1  UNK     1      18.982  -2.746  13.637  1.00  0.00     0.081 A 
HETATM    4  C2  UNK     1      19.671  -1.536  13.697  1.00  0.00     0.095 A 
HETATM    5  C3  UNK     1      18.904  -1.117  15.900  1.00  0.00     0.090 A 
HETATM    6  C5  UNK     1      18.196  -3.174  14.805  1.00  0.00     0.190 A 
HETATM    7  C6  UNK     1      18.204  -2.261  15.966  1.00  0.00     0.094 A 
HETATM    8  C7  UNK     1      19.039  -3.536  12.486  1.00  0.00     0.085 A 
HETATM    9  C8  UNK     1      20.423  -1.108  12.603  1.00  0.00     0.075 A 
HETATM   10  C9  UNK     1      20.484  -1.894  11.452  1.00  0.00     0.071 A 
HETATM   11  C10 UNK     1      19.793  -3.105  11.394  1.00  0.00     0.074 A 
ENDROOT
BRANCH   5  12
HETATM   12  C4  UNK     1      18.955  -0.172  17.033  1.00  0.00    -0.002 A 
HETATM   13  C11 UNK     1      19.009   1.204  16.797  1.00  0.00     0.017 A 
HETATM   14  C13 UNK     1      19.058   2.097  17.867  1.00  0.00     0.037 A 
HETATM   15  C15 UNK     1      19.055   1.617  19.177  1.00  0.00     0.068 A 
HETATM   16  C14 UNK     1      19.002   0.244  19.416  1.00  0.00     0.037 A 
HETATM   17  C12 UNK     1      18.952  -0.650  18.346  1.00  0.00     0.017 A 
BRANCH  15  18
HETATM   18  O5  UNK     1      19.103   2.489  20.221  1.00  0.00    -0.356 OA
HETATM   19  C16 UNK     1      19.704   2.022  21.429  1.00  0.00     0.210 C 
ENDBRANCH  15  18
ENDBRANCH   5  12
BRANCH   8  20
HETATM   20  O2  UNK     1      18.384  -4.725  12.380  1.00  0.00    -0.360 OA
HETATM   21  H8  UNK     1      17.892  -4.771  11.546  1.00  0.00     0.217 HD
ENDBRANCH   8  20
BRANCH  10  22
HETATM   22  O4  UNK     1      21.219  -1.479  10.384  1.00  0.00    -0.361 OA
HETATM   23  H9  UNK     1      21.063  -2.084   9.640  1.00  0.00     0.217 HD
ENDBRANCH  10  22
TORSDOF 4
ENDMDL
MODEL 10
REMARK VINA RESULT:      -7.6     13.001     17.301
REMARK  4 active torsions:
REMARK  status: ('A' for Active; 'I' for Inactive)
REMARK    1  A    between atoms: C7_12  and  O2_2 
REMARK    2  A    between atoms: C9_14  and  O4_4 
REMARK    3  A    between atoms: C15_20  and  O5_5 
REMARK    4  A    between atoms: C3_8  and  C4_9 
ROOT
HETATM    1  O1  UNK     1      18.757   2.855  31.040  1.00  0.00    -0.309 OA
HETATM    2  O3  UNK     1      18.523   0.315  34.217  1.00  0.00    -0.287 OA
HETATM    3  C1  UNK     1      19.019   0.609  31.925  1.00  0.00     0.081 A 
HETATM    4  C2  UNK     1      19.078   1.532  30.882  1.00  0.00     0.095 A 
HETATM    5  C3  UNK     1      18.348   3.292  32.292  1.00  0.00     0.090 A 
HETATM    6  C5  UNK     1      18.595   1.069  33.257  1.00  0.00     0.190 A 
HETATM    7  C6  UNK     1      18.258   2.503  33.374  1.00  0.00     0.094 A 
HETATM    8  C7  UNK     1      19.359  -0.729  31.706  1.00  0.00     0.085 A 
HETATM    9  C8  UNK     1      19.479   1.120  29.610  1.00  0.00     0.075 A 
HETATM   10  C9  UNK     1      19.820  -0.214  29.388  1.00  0.00     0.071 A 
HETATM   11  C10 UNK     1      19.759  -1.136  30.434  1.00  0.00     0.074 A 
ENDROOT
BRANCH   5  12
HETATM   12  C4  UNK     1      18.033   4.732  32.352  1.00  0.00    -0.002 A 
HETATM   13  C11 UNK     1      18.113   5.518  31.200  1.00  0.00     0.017 A 
HETATM   14  C13 UNK     1      17.815   6.879  31.256  1.00  0.00     0.037 A 
HETATM   15  C15 UNK     1      17.438   7.460  32.468  1.00  0.00     0.068 A 
HETATM   16  C14 UNK     1      17.358   6.680  33.620  1.00  0.00     0.037 A 
HETATM   17  C12 UNK     1      17.654   5.318  33.563  1.00  0.00     0.017 A 
BRANCH  15  18
HETATM   18  O5  UNK     1      17.148   8.789  32.523  1.00  0.00    -0.356 OA
HETATM   19  C16 UNK     1      15.800   9.147  32.827  1.00  0.00     0.210 C 
ENDBRANCH  15  18
ENDBRANCH   5  12
BRANCH   8  20
HETATM   20  O2  UNK     1      19.317  -1.666  32.693  1.00  0.00    -0.360 OA
HETATM   21  H8  UNK     1      20.108  -2.226  32.665  1.00  0.00     0.217 HD
ENDBRANCH   8  20
BRANCH  10  22
HETATM   22  O4  UNK     1      20.212  -0.617  28.148  1.00  0.00    -0.361 OA
HETATM   23  H9  UNK     1      20.586  -1.512  28.211  1.00  0.00     0.217 HD
ENDBRANCH  10  22
TORSDOF 4
ENDMDL
