MODEL 1
REMARK VINA RESULT:      -8.3      0.000      0.000
REMARK  5 active torsions:
REMARK  status: ('A' for Active; 'I' for Inactive)
REMARK    1  A    between atoms: C14_21  and  O2_2 
REMARK    2  A    between atoms: C16_23  and  O2_2 
REMARK    3  A    between atoms: C1_8  and  C11_18 
REMARK    4  A    between atoms: C16_23  and  C5_12 
REMARK    5  A    between atoms: C10_17  and  C14_21 
ROOT
HETATM    1  O3  UNK     1      30.271  -4.899  36.659  1.00  0.00    -0.293 OA
HETATM    2  N1  UNK     1      32.468  -7.512  33.370  1.00  0.00    -0.362 N 
HETATM    3  C1  UNK     1      30.052  -7.095  34.802  1.00  0.00     0.104 C 
HETATM    4  C2  UNK     1      31.321  -6.279  35.037  1.00  0.00     0.024 C 
HETATM    5  C3  UNK     1      32.450  -6.528  34.340  1.00  0.00     0.020 C 
HETATM    6  C4  UNK     1      33.726  -5.748  34.525  1.00  0.00     0.058 C 
HETATM    7  C5  UNK     1      30.172  -8.040  33.605  1.00  0.00     0.052 C 
HETATM    8  C6  UNK     1      33.483  -4.376  35.143  1.00  0.00     0.014 C 
HETATM    9  C7  UNK     1      32.607  -4.484  36.377  1.00  0.00     0.084 C 
HETATM   10  C8  UNK     1      31.306  -5.186  36.058  1.00  0.00     0.158 C 
HETATM   11  C9  UNK     1      31.352  -8.229  32.969  1.00  0.00     0.018 C 
HETATM   12  C17 UNK     1      31.582  -9.172  31.819  1.00  0.00     0.069 C 
HETATM   13  H9  UNK     1      33.335  -7.669  32.869  1.00  0.00     0.165 HD
ENDROOT
BRANCH   3  14
HETATM   14  C11 UNK     1      29.688  -7.872  36.038  1.00  0.00     0.029 A 
HETATM   15  C18 UNK     1      28.327  -7.705  36.605  1.00  0.00     0.194 A 
HETATM   16  O6  UNK     1      27.498  -6.959  36.100  1.00  0.00    -0.287 OA
HETATM   17  C20 UNK     1      28.023  -8.487  37.818  1.00  0.00     0.048 A 
HETATM   18  C21 UNK     1      29.006  -9.320  38.351  1.00  0.00     0.089 A 
HETATM   19  C22 UNK     1      26.769  -8.398  38.427  1.00  0.00     0.018 A 
HETATM   20  O4  UNK     1      30.253  -9.446  37.793  1.00  0.00    -0.321 OA
HETATM   21  C23 UNK     1      28.740 -10.070  39.498  1.00  0.00     0.038 A 
HETATM   22  C19 UNK     1      30.522  -8.712  36.665  1.00  0.00     0.154 A 
HETATM   23  C25 UNK     1      27.490  -9.983  40.108  1.00  0.00     0.003 A 
HETATM   24  C24 UNK     1      26.506  -9.149  39.574  1.00  0.00     0.001 A 
ENDBRANCH   3  14
BRANCH   7  25
HETATM   25  C16 UNK     1      28.931  -8.688  33.149  1.00  0.00     0.292 C 
HETATM   26  O5  UNK     1      28.745  -9.890  33.203  1.00  0.00    -0.259 OA
BRANCH  25  27
HETATM   27  O2  UNK     1      28.093  -7.729  32.688  1.00  0.00    -0.315 OA
BRANCH  27  28
HETATM   28  C14 UNK     1      27.811  -7.793  31.286  1.00  0.00     0.211 C 
BRANCH  28  29
HETATM   29  C10 UNK     1      28.411  -6.578  30.606  1.00  0.00     0.145 C 
HETATM   30  O1  UNK     1      29.628  -6.945  29.934  1.00  0.00    -0.384 OA
HETATM   31  C15 UNK     1      30.598  -5.910  30.154  1.00  0.00     0.168 C 
HETATM   32  C13 UNK     1      29.869  -4.754  30.805  1.00  0.00     0.029 C 
HETATM   33  C12 UNK     1      28.779  -5.463  31.569  1.00  0.00     0.036 C 
ENDBRANCH  28  29
ENDBRANCH  27  28
ENDBRANCH  25  27
ENDBRANCH   7  25
TORSDOF 5
ENDMDL
MODEL 2
REMARK VINA RESULT:      -8.3      1.829      5.008
REMARK  5 active torsions:
REMARK  status: ('A' for Active; 'I' for Inactive)
REMARK    1  A    between atoms: C14_21  and  O2_2 
REMARK    2  A    between atoms: C16_23  and  O2_2 
REMARK    3  A    between atoms: C1_8  and  C11_18 
REMARK    4  A    between atoms: C16_23  and  C5_12 
REMARK    5  A    between atoms: C10_17  and  C14_21 
ROOT
HETATM    1  O3  UNK     1      30.033  -9.253  34.010  1.00  0.00    -0.293 OA
HETATM    2  N1  UNK     1      31.322  -4.694  34.164  1.00  0.00    -0.362 N 
HETATM    3  C1  UNK     1      30.985  -7.085  35.657  1.00  0.00     0.104 C 
HETATM    4  C2  UNK     1      30.648  -6.965  34.174  1.00  0.00     0.024 C 
HETATM    5  C3  UNK     1      30.811  -5.800  33.512  1.00  0.00     0.020 C 
HETATM    6  C4  UNK     1      30.503  -5.629  32.047  1.00  0.00     0.058 C 
HETATM    7  C5  UNK     1      31.676  -5.836  36.208  1.00  0.00     0.052 C 
HETATM    8  C6  UNK     1      30.508  -6.954  31.294  1.00  0.00     0.014 C 
HETATM    9  C7  UNK     1      29.667  -7.992  32.015  1.00  0.00     0.084 C 
HETATM   10  C8  UNK     1      30.129  -8.164  33.445  1.00  0.00     0.158 C 
HETATM   11  C9  UNK     1      31.790  -4.708  35.469  1.00  0.00     0.018 C 
HETATM   12  C17 UNK     1      32.404  -3.417  35.937  1.00  0.00     0.069 C 
HETATM   13  H9  UNK     1      31.428  -3.837  33.634  1.00  0.00     0.165 HD
ENDROOT
BRANCH   3  14
HETATM   14  C11 UNK     1      29.746  -7.383  36.458  1.00  0.00     0.029 A 
HETATM   15  C18 UNK     1      29.774  -8.523  37.409  1.00  0.00     0.194 A 
HETATM   16  O6  UNK     1      30.769  -9.220  37.561  1.00  0.00    -0.287 OA
HETATM   17  C20 UNK     1      28.534  -8.773  38.166  1.00  0.00     0.048 A 
HETATM   18  C21 UNK     1      27.430  -7.947  37.952  1.00  0.00     0.089 A 
HETATM   19  C22 UNK     1      28.460  -9.821  39.086  1.00  0.00     0.018 A 
HETATM   20  O4  UNK     1      27.448  -6.903  37.062  1.00  0.00    -0.321 OA
HETATM   21  C23 UNK     1      26.246  -8.165  38.658  1.00  0.00     0.038 A 
HETATM   22  C19 UNK     1      28.610  -6.681  36.364  1.00  0.00     0.154 A 
HETATM   23  C25 UNK     1      26.170  -9.211  39.577  1.00  0.00     0.003 A 
HETATM   24  C24 UNK     1      27.275 -10.038  39.790  1.00  0.00     0.001 A 
ENDBRANCH   3  14
BRANCH   7  25
HETATM   25  C16 UNK     1      32.257  -5.943  37.556  1.00  0.00     0.292 C 
HETATM   26  O5  UNK     1      31.799  -5.374  38.529  1.00  0.00    -0.259 OA
BRANCH  25  27
HETATM   27  O2  UNK     1      33.339  -6.757  37.492  1.00  0.00    -0.315 OA
BRANCH  27  28
HETATM   28  C14 UNK     1      34.601  -6.086  37.446  1.00  0.00     0.211 C 
BRANCH  28  29
HETATM   29  C10 UNK     1      35.276  -6.393  36.123  1.00  0.00     0.145 C 
HETATM   30  O1  UNK     1      35.233  -5.234  35.273  1.00  0.00    -0.384 OA
HETATM   31  C15 UNK     1      34.926  -5.663  33.938  1.00  0.00     0.168 C 
HETATM   32  C13 UNK     1      35.003  -7.175  33.931  1.00  0.00     0.029 C 
HETATM   33  C12 UNK     1      34.608  -7.513  35.347  1.00  0.00     0.036 C 
ENDBRANCH  28  29
ENDBRANCH  27  28
ENDBRANCH  25  27
ENDBRANCH   7  25
TORSDOF 5
ENDMDL
MODEL 3
REMARK VINA RESULT:      -8.2      2.734      5.938
REMARK  5 active torsions:
REMARK  status: ('A' for Active; 'I' for Inactive)
REMARK    1  A    between atoms: C14_21  and  O2_2 
REMARK    2  A    between atoms: C16_23  and  O2_2 
REMARK    3  A    between atoms: C1_8  and  C11_18 
REMARK    4  A    between atoms: C16_23  and  C5_12 
REMARK    5  A    between atoms: C10_17  and  C14_21 
ROOT
HETATM    1  O3  UNK     1      27.370  -5.820  32.870  1.00  0.00    -0.293 OA
HETATM    2  N1  UNK     1      29.080 -10.023  31.496  1.00  0.00    -0.362 N 
HETATM    3  C1  UNK     1      28.855  -8.171  33.636  1.00  0.00     0.104 C 
HETATM    4  C2  UNK     1      28.297  -7.914  32.240  1.00  0.00     0.024 C 
HETATM    5  C3  UNK     1      28.444  -8.820  31.250  1.00  0.00     0.020 C 
HETATM    6  C4  UNK     1      27.905  -8.621  29.858  1.00  0.00     0.058 C 
HETATM    7  C5  UNK     1      29.396  -9.593  33.802  1.00  0.00     0.052 C 
HETATM    8  C6  UNK     1      26.770  -7.605  29.814  1.00  0.00     0.014 C 
HETATM    9  C7  UNK     1      27.151  -6.333  30.547  1.00  0.00     0.084 C 
HETATM   10  C8  UNK     1      27.573  -6.633  31.969  1.00  0.00     0.158 C 
HETATM   11  C9  UNK     1      29.511 -10.433  32.747  1.00  0.00     0.018 C 
HETATM   12  C17 UNK     1      30.078 -11.826  32.799  1.00  0.00     0.069 C 
HETATM   13  H9  UNK     1      29.172 -10.677  30.727  1.00  0.00     0.165 HD
ENDROOT
BRANCH   3  14
HETATM   14  C11 UNK     1      29.928  -7.170  33.969  1.00  0.00     0.029 A 
HETATM   15  C18 UNK     1      29.794  -6.375  35.216  1.00  0.00     0.194 A 
HETATM   16  O6  UNK     1      28.844  -6.511  35.976  1.00  0.00    -0.287 OA
HETATM   17  C20 UNK     1      30.870  -5.406  35.493  1.00  0.00     0.048 A 
HETATM   18  C21 UNK     1      31.929  -5.293  34.591  1.00  0.00     0.089 A 
HETATM   19  C22 UNK     1      30.835  -4.612  36.641  1.00  0.00     0.018 A 
HETATM   20  O4  UNK     1      32.013  -6.048  33.449  1.00  0.00    -0.321 OA
HETATM   21  C23 UNK     1      32.958  -4.383  34.834  1.00  0.00     0.038 A 
HETATM   22  C19 UNK     1      31.004  -6.946  33.204  1.00  0.00     0.154 A 
HETATM   23  C25 UNK     1      32.926  -3.588  35.979  1.00  0.00     0.003 A 
HETATM   24  C24 UNK     1      31.866  -3.703  36.881  1.00  0.00     0.001 A 
ENDBRANCH   3  14
BRANCH   7  25
HETATM   25  C16 UNK     1      29.732 -10.016  35.172  1.00  0.00     0.292 C 
HETATM   26  O5  UNK     1      28.905 -10.131  36.058  1.00  0.00    -0.259 OA
BRANCH  25  27
HETATM   27  O2  UNK     1      31.067 -10.237  35.236  1.00  0.00    -0.315 OA
BRANCH  27  28
HETATM   28  C14 UNK     1      31.651 -10.047  36.528  1.00  0.00     0.211 C 
BRANCH  28  29
HETATM   29  C10 UNK     1      32.035  -8.589  36.688  1.00  0.00     0.145 C 
HETATM   30  O1  UNK     1      33.232  -8.314  35.941  1.00  0.00    -0.384 OA
HETATM   31  C15 UNK     1      34.075  -7.463  36.732  1.00  0.00     0.168 C 
HETATM   32  C13 UNK     1      33.257  -7.019  37.926  1.00  0.00     0.029 C 
HETATM   33  C12 UNK     1      32.331  -8.193  38.123  1.00  0.00     0.036 C 
ENDBRANCH  28  29
ENDBRANCH  27  28
ENDBRANCH  25  27
ENDBRANCH   7  25
TORSDOF 5
ENDMDL
MODEL 4
REMARK VINA RESULT:      -8.0      1.782      6.373
REMARK  5 active torsions:
REMARK  status: ('A' for Active; 'I' for Inactive)
REMARK    1  A    between atoms: C14_21  and  O2_2 
REMARK    2  A    between atoms: C16_23  and  O2_2 
REMARK    3  A    between atoms: C1_8  and  C11_18 
REMARK    4  A    between atoms: C16_23  and  C5_12 
REMARK    5  A    between atoms: C10_17  and  C14_21 
ROOT
HETATM    1  O3  UNK     1      32.995  -7.825  33.454  1.00  0.00    -0.293 OA
HETATM    2  N1  UNK     1      31.810  -4.488  36.605  1.00  0.00    -0.362 N 
HETATM    3  C1  UNK     1      30.927  -6.770  35.167  1.00  0.00     0.104 C 
HETATM    4  C2  UNK     1      32.315  -6.157  35.002  1.00  0.00     0.024 C 
HETATM    5  C3  UNK     1      32.681  -5.060  35.698  1.00  0.00     0.020 C 
HETATM    6  C4  UNK     1      34.041  -4.421  35.581  1.00  0.00     0.058 C 
HETATM    7  C5  UNK     1      30.130  -6.128  36.304  1.00  0.00     0.052 C 
HETATM    8  C6  UNK     1      35.092  -5.385  35.046  1.00  0.00     0.014 C 
HETATM    9  C7  UNK     1      34.599  -6.088  33.795  1.00  0.00     0.084 C 
HETATM   10  C8  UNK     1      33.283  -6.788  34.051  1.00  0.00     0.158 C 
HETATM   11  C9  UNK     1      30.578  -5.023  36.944  1.00  0.00     0.018 C 
HETATM   12  C17 UNK     1      29.845  -4.290  38.036  1.00  0.00     0.069 C 
HETATM   13  H9  UNK     1      32.121  -3.664  37.107  1.00  0.00     0.165 HD
ENDROOT
BRANCH   3  14
HETATM   14  C11 UNK     1      30.153  -6.679  33.880  1.00  0.00     0.029 A 
HETATM   15  C18 UNK     1      29.636  -7.931  33.272  1.00  0.00     0.194 A 
HETATM   16  O6  UNK     1      29.819  -9.027  33.786  1.00  0.00    -0.287 OA
HETATM   17  C20 UNK     1      28.888  -7.785  32.010  1.00  0.00     0.048 A 
HETATM   18  C21 UNK     1      28.711  -6.511  31.470  1.00  0.00     0.089 A 
HETATM   19  C22 UNK     1      28.361  -8.904  31.362  1.00  0.00     0.018 A 
HETATM   20  O4  UNK     1      29.206  -5.379  32.065  1.00  0.00    -0.321 OA
HETATM   21  C23 UNK     1      28.005  -6.350  30.277  1.00  0.00     0.038 A 
HETATM   22  C19 UNK     1      29.901  -5.529  33.240  1.00  0.00     0.154 A 
HETATM   23  C25 UNK     1      27.478  -7.466  29.628  1.00  0.00     0.003 A 
HETATM   24  C24 UNK     1      27.655  -8.741  30.169  1.00  0.00     0.001 A 
ENDBRANCH   3  14
BRANCH   7  25
HETATM   25  C16 UNK     1      28.884  -6.805  36.700  1.00  0.00     0.292 C 
HETATM   26  O5  UNK     1      27.783  -6.459  36.315  1.00  0.00    -0.259 OA
BRANCH  25  27
HETATM   27  O2  UNK     1      29.199  -7.829  37.530  1.00  0.00    -0.315 OA
BRANCH  27  28
HETATM   28  C14 UNK     1      28.870  -9.131  37.037  1.00  0.00     0.211 C 
BRANCH  28  29
HETATM   29  C10 UNK     1      27.865  -9.774  37.972  1.00  0.00     0.145 C 
HETATM   30  O1  UNK     1      26.662  -8.987  38.011  1.00  0.00    -0.384 OA
HETATM   31  C15 UNK     1      26.205  -8.924  39.370  1.00  0.00     0.168 C 
HETATM   32  C13 UNK     1      27.046  -9.901  40.164  1.00  0.00     0.029 C 
HETATM   33  C12 UNK     1      28.350  -9.877  39.407  1.00  0.00     0.036 C 
ENDBRANCH  28  29
ENDBRANCH  27  28
ENDBRANCH  25  27
ENDBRANCH   7  25
TORSDOF 5
ENDMDL
MODEL 5
REMARK VINA RESULT:      -8.0      1.911      6.113
REMARK  5 active torsions:
REMARK  status: ('A' for Active; 'I' for Inactive)
REMARK    1  A    between atoms: C14_21  and  O2_2 
REMARK    2  A    between atoms: C16_23  and  O2_2 
REMARK    3  A    between atoms: C1_8  and  C11_18 
REMARK    4  A    between atoms: C16_23  and  C5_12 
REMARK    5  A    between atoms: C10_17  and  C14_21 
ROOT
HETATM    1  O3  UNK     1      27.562  -7.832  36.334  1.00  0.00    -0.293 OA
HETATM    2  N1  UNK     1      32.154  -8.792  37.007  1.00  0.00    -0.362 N 
HETATM    3  C1  UNK     1      30.265  -7.356  35.448  1.00  0.00     0.104 C 
HETATM    4  C2  UNK     1      29.876  -8.302  36.581  1.00  0.00     0.024 C 
HETATM    5  C3  UNK     1      30.812  -8.975  37.282  1.00  0.00     0.020 C 
HETATM    6  C4  UNK     1      30.484  -9.913  38.415  1.00  0.00     0.058 C 
HETATM    7  C5  UNK     1      31.777  -7.138  35.355  1.00  0.00     0.052 C 
HETATM    8  C6  UNK     1      29.115  -9.634  39.022  1.00  0.00     0.014 C 
HETATM    9  C7  UNK     1      28.053  -9.527  37.942  1.00  0.00     0.084 C 
HETATM   10  C8  UNK     1      28.429  -8.482  36.916  1.00  0.00     0.158 C 
HETATM   11  C9  UNK     1      32.643  -7.866  36.099  1.00  0.00     0.018 C 
HETATM   12  C17 UNK     1      34.143  -7.762  36.041  1.00  0.00     0.069 C 
HETATM   13  H9  UNK     1      32.827  -9.316  37.555  1.00  0.00     0.165 HD
ENDROOT
BRANCH   3  14
HETATM   14  C11 UNK     1      29.736  -7.861  34.133  1.00  0.00     0.029 A 
HETATM   15  C18 UNK     1      28.761  -7.021  33.392  1.00  0.00     0.194 A 
HETATM   16  O6  UNK     1      28.380  -5.937  33.816  1.00  0.00    -0.287 OA
HETATM   17  C20 UNK     1      28.272  -7.563  32.111  1.00  0.00     0.048 A 
HETATM   18  C21 UNK     1      28.740  -8.803  31.677  1.00  0.00     0.089 A 
HETATM   19  C22 UNK     1      27.353  -6.848  31.340  1.00  0.00     0.018 A 
HETATM   20  O4  UNK     1      29.642  -9.547  32.394  1.00  0.00    -0.321 OA
HETATM   21  C23 UNK     1      28.290  -9.335  30.467  1.00  0.00     0.038 A 
HETATM   22  C19 UNK     1      30.089  -9.030  33.585  1.00  0.00     0.154 A 
HETATM   23  C25 UNK     1      27.374  -8.623  29.696  1.00  0.00     0.003 A 
HETATM   24  C24 UNK     1      26.905  -7.382  30.131  1.00  0.00     0.001 A 
ENDBRANCH   3  14
BRANCH   7  25
HETATM   25  C16 UNK     1      32.235  -6.063  34.461  1.00  0.00     0.292 C 
HETATM   26  O5  UNK     1      32.969  -6.252  33.509  1.00  0.00    -0.259 OA
BRANCH  25  27
HETATM   27  O2  UNK     1      31.701  -4.894  34.889  1.00  0.00    -0.315 OA
BRANCH  27  28
HETATM   28  C14 UNK     1      32.588  -4.062  35.643  1.00  0.00     0.211 C 
BRANCH  28  29
HETATM   29  C10 UNK     1      32.069  -3.946  37.063  1.00  0.00     0.145 C 
HETATM   30  O1  UNK     1      32.663  -4.966  37.885  1.00  0.00    -0.384 OA
HETATM   31  C15 UNK     1      31.649  -5.500  38.748  1.00  0.00     0.168 C 
HETATM   32  C13 UNK     1      30.431  -4.613  38.600  1.00  0.00     0.029 C 
HETATM   33  C12 UNK     1      30.567  -4.132  37.178  1.00  0.00     0.036 C 
ENDBRANCH  28  29
ENDBRANCH  27  28
ENDBRANCH  25  27
ENDBRANCH   7  25
TORSDOF 5
ENDMDL
MODEL 6
REMARK VINA RESULT:      -8.0      1.886      6.341
REMARK  5 active torsions:
REMARK  status: ('A' for Active; 'I' for Inactive)
REMARK    1  A    between atoms: C14_21  and  O2_2 
REMARK    2  A    between atoms: C16_23  and  O2_2 
REMARK    3  A    between atoms: C1_8  and  C11_18 
REMARK    4  A    between atoms: C16_23  and  C5_12 
REMARK    5  A    between atoms: C10_17  and  C14_21 
ROOT
HETATM    1  O3  UNK     1      27.731  -5.935  33.223  1.00  0.00    -0.293 OA
HETATM    2  N1  UNK     1      29.227 -10.135  31.615  1.00  0.00    -0.362 N 
HETATM    3  C1  UNK     1      29.281  -8.302  33.782  1.00  0.00     0.104 C 
HETATM    4  C2  UNK     1      28.557  -8.028  32.467  1.00  0.00     0.024 C 
HETATM    5  C3  UNK     1      28.575  -8.926  31.459  1.00  0.00     0.020 C 
HETATM    6  C4  UNK     1      27.870  -8.711  30.145  1.00  0.00     0.058 C 
HETATM    7  C5  UNK     1      29.828  -9.729  33.868  1.00  0.00     0.052 C 
HETATM    8  C6  UNK     1      26.747  -7.687  30.249  1.00  0.00     0.014 C 
HETATM    9  C7  UNK     1      27.225  -6.424  30.941  1.00  0.00     0.084 C 
HETATM   10  C8  UNK     1      27.816  -6.740  32.297  1.00  0.00     0.158 C 
HETATM   11  C9  UNK     1      29.806 -10.559  32.800  1.00  0.00     0.018 C 
HETATM   12  C17 UNK     1      30.363 -11.957  32.770  1.00  0.00     0.069 C 
HETATM   13  H9  UNK     1      29.219 -10.782  30.835  1.00  0.00     0.165 HD
ENDROOT
BRANCH   3  14
HETATM   14  C11 UNK     1      30.394  -7.311  33.989  1.00  0.00     0.029 A 
HETATM   15  C18 UNK     1      30.319  -6.394  35.154  1.00  0.00     0.194 A 
HETATM   16  O6  UNK     1      29.386  -6.422  35.946  1.00  0.00    -0.287 OA
HETATM   17  C20 UNK     1      31.433  -5.441  35.308  1.00  0.00     0.048 A 
HETATM   18  C21 UNK     1      32.470  -5.452  34.375  1.00  0.00     0.089 A 
HETATM   19  C22 UNK     1      31.455  -4.537  36.373  1.00  0.00     0.018 A 
HETATM   20  O4  UNK     1      32.499  -6.318  33.311  1.00  0.00    -0.321 OA
HETATM   21  C23 UNK     1      33.535  -4.559  34.503  1.00  0.00     0.038 A 
HETATM   22  C19 UNK     1      31.455  -7.200  33.180  1.00  0.00     0.154 A 
HETATM   23  C25 UNK     1      33.559  -3.656  35.564  1.00  0.00     0.003 A 
HETATM   24  C24 UNK     1      32.521  -3.645  36.499  1.00  0.00     0.001 A 
ENDBRANCH   3  14
BRANCH   7  25
HETATM   25  C16 UNK     1      30.325 -10.166  35.183  1.00  0.00     0.292 C 
HETATM   26  O5  UNK     1      31.358 -10.793  35.332  1.00  0.00    -0.259 OA
BRANCH  25  27
HETATM   27  O2  UNK     1      29.451  -9.751  36.131  1.00  0.00    -0.315 OA
BRANCH  27  28
HETATM   28  C14 UNK     1      30.025  -9.499  37.417  1.00  0.00     0.211 C 
BRANCH  28  29
HETATM   29  C10 UNK     1      28.922  -9.113  38.383  1.00  0.00     0.145 C 
HETATM   30  O1  UNK     1      28.695 -10.183  39.317  1.00  0.00    -0.384 OA
HETATM   31  C15 UNK     1      27.280 -10.325  39.508  1.00  0.00     0.168 C 
HETATM   32  C13 UNK     1      26.622  -9.143  38.828  1.00  0.00     0.029 C 
HETATM   33  C12 UNK     1      27.588  -8.850  37.708  1.00  0.00     0.036 C 
ENDBRANCH  28  29
ENDBRANCH  27  28
ENDBRANCH  25  27
ENDBRANCH   7  25
TORSDOF 5
ENDMDL
MODEL 7
REMARK VINA RESULT:      -7.9      2.440      4.400
REMARK  5 active torsions:
REMARK  status: ('A' for Active; 'I' for Inactive)
REMARK    1  A    between atoms: C14_21  and  O2_2 
REMARK    2  A    between atoms: C16_23  and  O2_2 
REMARK    3  A    between atoms: C1_8  and  C11_18 
REMARK    4  A    between atoms: C16_23  and  C5_12 
REMARK    5  A    between atoms: C10_17  and  C14_21 
ROOT
HETATM    1  O3  UNK     1      32.368  -9.332  34.992  1.00  0.00    -0.293 OA
HETATM    2  N1  UNK     1      28.912  -9.855  31.791  1.00  0.00    -0.362 N 
HETATM    3  C1  UNK     1      30.383  -8.011  33.370  1.00  0.00     0.104 C 
HETATM    4  C2  UNK     1      30.595  -9.521  33.425  1.00  0.00     0.024 C 
HETATM    5  C3  UNK     1      29.857 -10.358  32.665  1.00  0.00     0.020 C 
HETATM    6  C4  UNK     1      30.031 -11.855  32.673  1.00  0.00     0.058 C 
HETATM    7  C5  UNK     1      29.418  -7.591  32.260  1.00  0.00     0.052 C 
HETATM    8  C6  UNK     1      31.404 -12.277  33.180  1.00  0.00     0.014 C 
HETATM    9  C7  UNK     1      31.740 -11.580  34.486  1.00  0.00     0.084 C 
HETATM   10  C8  UNK     1      31.640 -10.078  34.338  1.00  0.00     0.158 C 
HETATM   11  C9  UNK     1      28.716  -8.505  31.550  1.00  0.00     0.018 C 
HETATM   12  C17 UNK     1      27.708  -8.190  30.478  1.00  0.00     0.069 C 
HETATM   13  H9  UNK     1      28.377 -10.516  31.239  1.00  0.00     0.165 HD
ENDROOT
BRANCH   3  14
HETATM   14  C11 UNK     1      29.895  -7.498  34.698  1.00  0.00     0.029 A 
HETATM   15  C18 UNK     1      30.580  -6.326  35.300  1.00  0.00     0.194 A 
HETATM   16  O6  UNK     1      31.522  -5.769  34.751  1.00  0.00    -0.287 OA
HETATM   17  C20 UNK     1      30.065  -5.866  36.603  1.00  0.00     0.048 A 
HETATM   18  C21 UNK     1      28.990  -6.539  37.183  1.00  0.00     0.089 A 
HETATM   19  C22 UNK     1      30.643  -4.771  37.250  1.00  0.00     0.018 A 
HETATM   20  O4  UNK     1      28.385  -7.618  36.590  1.00  0.00    -0.321 OA
HETATM   21  C23 UNK     1      28.485  -6.119  38.414  1.00  0.00     0.038 A 
HETATM   22  C19 UNK     1      28.875  -8.036  35.378  1.00  0.00     0.154 A 
HETATM   23  C25 UNK     1      29.060  -5.027  39.063  1.00  0.00     0.003 A 
HETATM   24  C24 UNK     1      30.136  -4.354  38.482  1.00  0.00     0.001 A 
ENDBRANCH   3  14
BRANCH   7  25
HETATM   25  C16 UNK     1      29.335  -6.150  31.967  1.00  0.00     0.292 C 
HETATM   26  O5  UNK     1      28.365  -5.467  32.239  1.00  0.00    -0.259 OA
BRANCH  25  27
HETATM   27  O2  UNK     1      30.491  -5.768  31.373  1.00  0.00    -0.315 OA
BRANCH  27  28
HETATM   28  C14 UNK     1      30.409  -5.571  29.958  1.00  0.00     0.211 C 
BRANCH  28  29
HETATM   29  C10 UNK     1      31.367  -6.524  29.270  1.00  0.00     0.145 C 
HETATM   30  O1  UNK     1      30.628  -7.568  28.613  1.00  0.00    -0.384 OA
HETATM   31  C15 UNK     1      31.310  -8.812  28.830  1.00  0.00     0.168 C 
HETATM   32  C13 UNK     1      32.645  -8.479  29.463  1.00  0.00     0.029 C 
HETATM   33  C12 UNK     1      32.322  -7.219  30.225  1.00  0.00     0.036 C 
ENDBRANCH  28  29
ENDBRANCH  27  28
ENDBRANCH  25  27
ENDBRANCH   7  25
TORSDOF 5
ENDMDL
MODEL 8
REMARK VINA RESULT:      -7.9      3.004      5.947
REMARK  5 active torsions:
REMARK  status: ('A' for Active; 'I' for Inactive)
REMARK    1  A    between atoms: C14_21  and  O2_2 
REMARK    2  A    between atoms: C16_23  and  O2_2 
REMARK    3  A    between atoms: C1_8  and  C11_18 
REMARK    4  A    between atoms: C16_23  and  C5_12 
REMARK    5  A    between atoms: C10_17  and  C14_21 
ROOT
HETATM    1  O3  UNK     1      29.181  -9.718  32.875  1.00  0.00    -0.293 OA
HETATM    2  N1  UNK     1      31.675  -7.364  29.602  1.00  0.00    -0.362 N 
HETATM    3  C1  UNK     1      31.766  -8.691  32.110  1.00  0.00     0.104 C 
HETATM    4  C2  UNK     1      30.484  -8.507  31.302  1.00  0.00     0.024 C 
HETATM    5  C3  UNK     1      30.491  -7.853  30.121  1.00  0.00     0.020 C 
HETATM    6  C4  UNK     1      29.258  -7.652  29.279  1.00  0.00     0.058 C 
HETATM    7  C5  UNK     1      33.013  -8.236  31.350  1.00  0.00     0.052 C 
HETATM    8  C6  UNK     1      28.166  -8.665  29.597  1.00  0.00     0.014 C 
HETATM    9  C7  UNK     1      27.921  -8.750  31.092  1.00  0.00     0.084 C 
HETATM   10  C8  UNK     1      29.201  -9.064  31.833  1.00  0.00     0.158 C 
HETATM   11  C9  UNK     1      32.921  -7.581  30.169  1.00  0.00     0.018 C 
HETATM   12  C17 UNK     1      34.082  -7.049  29.374  1.00  0.00     0.069 C 
HETATM   13  H9  UNK     1      31.639  -6.878  28.714  1.00  0.00     0.165 HD
ENDROOT
BRANCH   3  14
HETATM   14  C11 UNK     1      31.670  -7.966  33.425  1.00  0.00     0.029 A 
HETATM   15  C18 UNK     1      32.115  -8.667  34.656  1.00  0.00     0.194 A 
HETATM   16  O6  UNK     1      32.554  -9.809  34.632  1.00  0.00    -0.287 OA
HETATM   17  C20 UNK     1      31.996  -7.912  35.917  1.00  0.00     0.048 A 
HETATM   18  C21 UNK     1      31.487  -6.613  35.885  1.00  0.00     0.089 A 
HETATM   19  C22 UNK     1      32.389  -8.485  37.129  1.00  0.00     0.018 A 
HETATM   20  O4  UNK     1      31.088  -6.003  34.723  1.00  0.00    -0.321 OA
HETATM   21  C23 UNK     1      31.368  -5.881  37.067  1.00  0.00     0.038 A 
HETATM   22  C19 UNK     1      31.203  -6.717  33.557  1.00  0.00     0.154 A 
HETATM   23  C25 UNK     1      31.758  -6.450  38.278  1.00  0.00     0.003 A 
HETATM   24  C24 UNK     1      32.268  -7.750  38.309  1.00  0.00     0.001 A 
ENDBRANCH   3  14
BRANCH   7  25
HETATM   25  C16 UNK     1      34.313  -8.594  31.941  1.00  0.00     0.292 C 
HETATM   26  O5  UNK     1      34.780  -9.717  31.899  1.00  0.00    -0.259 OA
BRANCH  25  27
HETATM   27  O2  UNK     1      34.848  -7.483  32.503  1.00  0.00    -0.315 OA
BRANCH  27  28
HETATM   28  C14 UNK     1      35.680  -7.721  33.642  1.00  0.00     0.211 C 
BRANCH  28  29
HETATM   29  C10 UNK     1      35.806  -6.437  34.439  1.00  0.00     0.145 C 
HETATM   30  O1  UNK     1      35.853  -6.738  35.845  1.00  0.00    -0.384 OA
HETATM   31  C15 UNK     1      35.049  -5.775  36.541  1.00  0.00     0.168 C 
HETATM   32  C13 UNK     1      34.671  -4.706  35.538  1.00  0.00     0.029 C 
HETATM   33  C12 UNK     1      34.637  -5.487  34.248  1.00  0.00     0.036 C 
ENDBRANCH  28  29
ENDBRANCH  27  28
ENDBRANCH  25  27
ENDBRANCH   7  25
TORSDOF 5
ENDMDL
MODEL 9
REMARK VINA RESULT:      -7.9      2.330      6.057
REMARK  5 active torsions:
REMARK  status: ('A' for Active; 'I' for Inactive)
REMARK    1  A    between atoms: C14_21  and  O2_2 
REMARK    2  A    between atoms: C16_23  and  O2_2 
REMARK    3  A    between atoms: C1_8  and  C11_18 
REMARK    4  A    between atoms: C16_23  and  C5_12 
REMARK    5  A    between atoms: C10_17  and  C14_21 
ROOT
HETATM    1  O3  UNK     1      34.053  -8.716  32.086  1.00  0.00    -0.293 OA
HETATM    2  N1  UNK     1      34.116  -6.975  36.494  1.00  0.00    -0.362 N 
HETATM    3  C1  UNK     1      32.568  -8.310  34.525  1.00  0.00     0.104 C 
HETATM    4  C2  UNK     1      33.995  -7.826  34.286  1.00  0.00     0.024 C 
HETATM    5  C3  UNK     1      34.684  -7.180  35.251  1.00  0.00     0.020 C 
HETATM    6  C4  UNK     1      36.098  -6.689  35.072  1.00  0.00     0.058 C 
HETATM    7  C5  UNK     1      32.126  -8.150  35.981  1.00  0.00     0.052 C 
HETATM    8  C6  UNK     1      36.831  -7.425  33.958  1.00  0.00     0.014 C 
HETATM    9  C7  UNK     1      35.995  -7.464  32.691  1.00  0.00     0.084 C 
HETATM   10  C8  UNK     1      34.637  -8.074  32.958  1.00  0.00     0.158 C 
HETATM   11  C9  UNK     1      32.885  -7.480  36.880  1.00  0.00     0.018 C 
HETATM   12  C17 UNK     1      32.515  -7.225  38.316  1.00  0.00     0.069 C 
HETATM   13  H9  UNK     1      34.665  -6.485  37.192  1.00  0.00     0.165 HD
ENDROOT
BRANCH   3  14
HETATM   14  C11 UNK     1      31.608  -7.595  33.614  1.00  0.00     0.029 A 
HETATM   15  C18 UNK     1      30.686  -8.405  32.778  1.00  0.00     0.194 A 
HETATM   16  O6  UNK     1      30.683  -9.628  32.811  1.00  0.00    -0.287 OA
HETATM   17  C20 UNK     1      29.768  -7.654  31.901  1.00  0.00     0.048 A 
HETATM   18  C21 UNK     1      29.816  -6.260  31.905  1.00  0.00     0.089 A 
HETATM   19  C22 UNK     1      28.862  -8.326  31.077  1.00  0.00     0.018 A 
HETATM   20  O4  UNK     1      30.685  -5.550  32.694  1.00  0.00    -0.321 OA
HETATM   21  C23 UNK     1      28.956  -5.530  31.083  1.00  0.00     0.038 A 
HETATM   22  C19 UNK     1      31.534  -6.262  33.505  1.00  0.00     0.154 A 
HETATM   23  C25 UNK     1      28.051  -6.197  30.260  1.00  0.00     0.003 A 
HETATM   24  C24 UNK     1      28.004  -7.593  30.257  1.00  0.00     0.001 A 
ENDBRANCH   3  14
BRANCH   7  25
HETATM   25  C16 UNK     1      30.865  -8.806  36.364  1.00  0.00     0.292 C 
HETATM   26  O5  UNK     1      30.800  -9.962  36.739  1.00  0.00    -0.259 OA
BRANCH  25  27
HETATM   27  O2  UNK     1      29.858  -7.911  36.223  1.00  0.00    -0.315 OA
BRANCH  27  28
HETATM   28  C14 UNK     1      29.059  -7.707  37.393  1.00  0.00     0.211 C 
BRANCH  28  29
HETATM   29  C10 UNK     1      28.853  -6.219  37.597  1.00  0.00     0.145 C 
HETATM   30  O1  UNK     1      29.774  -5.480  36.775  1.00  0.00    -0.384 OA
HETATM   31  C15 UNK     1      30.284  -4.380  37.542  1.00  0.00     0.168 C 
HETATM   32  C13 UNK     1      29.470  -4.316  38.817  1.00  0.00     0.029 C 
HETATM   33  C12 UNK     1      29.100  -5.762  39.024  1.00  0.00     0.036 C 
ENDBRANCH  28  29
ENDBRANCH  27  28
ENDBRANCH  25  27
ENDBRANCH   7  25
TORSDOF 5
ENDMDL
MODEL 10
REMARK VINA RESULT:      -7.8      1.893      6.225
REMARK  5 active torsions:
REMARK  status: ('A' for Active; 'I' for Inactive)
REMARK    1  A    between atoms: C14_21  and  O2_2 
REMARK    2  A    between atoms: C16_23  and  O2_2 
REMARK    3  A    between atoms: C1_8  and  C11_18 
REMARK    4  A    between atoms: C16_23  and  C5_12 
REMARK    5  A    between atoms: C10_17  and  C14_21 
ROOT
HETATM    1  O3  UNK     1      33.359  -8.563  33.700  1.00  0.00    -0.293 OA
HETATM    2  N1  UNK     1      32.928  -5.141  36.952  1.00  0.00    -0.362 N 
HETATM    3  C1  UNK     1      31.586  -7.188  35.513  1.00  0.00     0.104 C 
HETATM    4  C2  UNK     1      33.056  -6.836  35.301  1.00  0.00     0.024 C 
HETATM    5  C3  UNK     1      33.644  -5.842  36.000  1.00  0.00     0.020 C 
HETATM    6  C4  UNK     1      35.093  -5.461  35.838  1.00  0.00     0.058 C 
HETATM    7  C5  UNK     1      30.964  -6.438  36.692  1.00  0.00     0.052 C 
HETATM    8  C6  UNK     1      35.928  -6.589  35.245  1.00  0.00     0.014 C 
HETATM    9  C7  UNK     1      35.267  -7.159  34.003  1.00  0.00     0.084 C 
HETATM   10  C8  UNK     1      33.855  -7.611  34.301  1.00  0.00     0.158 C 
HETATM   11  C9  UNK     1      31.631  -5.449  37.332  1.00  0.00     0.018 C 
HETATM   12  C17 UNK     1      31.087  -4.621  38.465  1.00  0.00     0.069 C 
HETATM   13  H9  UNK     1      33.404  -4.401  37.455  1.00  0.00     0.165 HD
ENDROOT
BRANCH   3  14
HETATM   14  C11 UNK     1      30.795  -6.924  34.260  1.00  0.00     0.029 A 
HETATM   15  C18 UNK     1      29.976  -8.026  33.694  1.00  0.00     0.194 A 
HETATM   16  O6  UNK     1      29.924  -9.133  34.214  1.00  0.00    -0.287 OA
HETATM   17  C20 UNK     1      29.223  -7.716  32.465  1.00  0.00     0.048 A 
HETATM   18  C21 UNK     1      29.320  -6.437  31.915  1.00  0.00     0.089 A 
HETATM   19  C22 UNK     1      28.423  -8.685  31.856  1.00  0.00     0.018 A 
HETATM   20  O4  UNK     1      30.090  -5.448  32.471  1.00  0.00    -0.321 OA
HETATM   21  C23 UNK     1      28.615  -6.122  30.752  1.00  0.00     0.038 A 
HETATM   22  C19 UNK     1      30.785  -5.750  33.616  1.00  0.00     0.154 A 
HETATM   23  C25 UNK     1      27.816  -7.088  30.143  1.00  0.00     0.003 A 
HETATM   24  C24 UNK     1      27.719  -8.367  30.694  1.00  0.00     0.001 A 
ENDBRANCH   3  14
BRANCH   7  25
HETATM   25  C16 UNK     1      29.630  -6.883  37.128  1.00  0.00     0.292 C 
HETATM   26  O5  UNK     1      28.596  -6.491  36.621  1.00  0.00    -0.259 OA
BRANCH  25  27
HETATM   27  O2  UNK     1      29.785  -7.766  38.144  1.00  0.00    -0.315 OA
BRANCH  27  28
HETATM   28  C14 UNK     1      29.565  -9.136  37.796  1.00  0.00     0.211 C 
BRANCH  28  29
HETATM   29  C10 UNK     1      28.207  -9.566  38.314  1.00  0.00     0.145 C 
HETATM   30  O1  UNK     1      27.223  -9.434  37.273  1.00  0.00    -0.384 OA
HETATM   31  C15 UNK     1      26.026  -8.889  37.847  1.00  0.00     0.168 C 
HETATM   32  C13 UNK     1      26.214  -8.894  39.349  1.00  0.00     0.029 C 
HETATM   33  C12 UNK     1      27.707  -8.726  39.477  1.00  0.00     0.036 C 
ENDBRANCH  28  29
ENDBRANCH  27  28
ENDBRANCH  25  27
ENDBRANCH   7  25
TORSDOF 5
ENDMDL
