MODEL 1
REMARK VINA RESULT:      -9.1      0.000      0.000
REMARK  6 active torsions:
REMARK  status: ('A' for Active; 'I' for Inactive)
REMARK    1  A    between atoms: C2_15  and  S1_1 
REMARK    2  A    between atoms: C4_17  and  S2_2 
REMARK       I    between atoms: C15_28  and  N1_12 
REMARK    3  A    between atoms: C7_20  and  N1_12 
REMARK    4  A    between atoms: C13_26  and  N2_13 
REMARK    5  A    between atoms: C1_14  and  C5_18 
REMARK    6  A    between atoms: C3_16  and  C8_21 
ROOT
HETATM    1  C1  UNK     1      17.375   6.256  32.416  1.00  0.00    -0.012 A 
HETATM    2  C2  UNK     1      18.180   7.105  33.177  1.00  0.00     0.093 A 
HETATM    3  C6  UNK     1      17.623   8.223  33.797  1.00  0.00     0.056 A 
HETATM    4  C7  UNK     1      16.262   8.493  33.657  1.00  0.00     0.036 A 
HETATM    5  C9  UNK     1      16.014   6.527  32.275  1.00  0.00     0.015 A 
HETATM    6  C10 UNK     1      15.457   7.644  32.896  1.00  0.00     0.030 A 
ENDROOT
BRANCH   1   7
HETATM    7  C5  UNK     1      17.915   5.077  31.750  1.00  0.00     0.014 C 
HETATM    8  C8  UNK     1      17.871   3.818  32.241  1.00  0.00     0.014 C 
BRANCH   8   9
HETATM    9  C3  UNK     1      18.399   2.624  31.560  1.00  0.00    -0.012 A 
HETATM   10  C11 UNK     1      18.693   2.733  30.208  1.00  0.00     0.015 A 
HETATM   11  C14 UNK     1      19.194   1.625  29.524  1.00  0.00     0.037 A 
HETATM   12  C13 UNK     1      19.396   0.421  30.199  1.00  0.00     0.104 A 
HETATM   13  C12 UNK     1      19.096   0.325  31.558  1.00  0.00     0.063 A 
HETATM   14  C4  UNK     1      18.595   1.433  32.242  1.00  0.00     0.093 A 
BRANCH  12  15
HETATM   15  N2  UNK     1      19.906  -0.706  29.502  1.00  0.00    -0.116 N 
HETATM   16  O7  UNK     1      20.165  -1.752  30.145  1.00  0.00    -0.532 OA
HETATM   17  O8  UNK     1      20.083  -0.625  28.263  1.00  0.00    -0.532 OA
ENDBRANCH  12  15
BRANCH  14  18
HETATM   18  S2  UNK     1      18.235   1.261  33.948  1.00  0.00     0.138 S 
HETATM   19  O4  UNK     1      19.018   0.085  34.349  1.00  0.00    -0.591 OA
HETATM   20  O5  UNK     1      18.681   2.514  34.575  1.00  0.00    -0.591 OA
HETATM   21  O6  UNK     1      16.778   1.070  33.978  1.00  0.00    -0.591 OA
ENDBRANCH  14  18
ENDBRANCH   8   9
ENDBRANCH   1   7
BRANCH   2  22
HETATM   22  S1  UNK     1      19.896   6.809  33.383  1.00  0.00     0.138 S 
HETATM   23  O1  UNK     1      19.939   5.694  34.339  1.00  0.00    -0.591 OA
HETATM   24  O2  UNK     1      20.402   6.466  32.046  1.00  0.00    -0.591 OA
HETATM   25  O3  UNK     1      20.406   8.086  33.901  1.00  0.00    -0.591 OA
ENDBRANCH   2  22
BRANCH   4  26
HETATM   26  N1  UNK     1      15.704   9.611  34.277  1.00  0.00    -0.327 N 
HETATM   27  C15 UNK     1      16.189  10.925  34.290  1.00  0.00     0.218 C 
HETATM   28  O9  UNK     1      17.206  11.350  33.750  1.00  0.00    -0.274 OA
HETATM   29  C16 UNK     1      15.288  11.846  35.076  1.00  0.00     0.117 C 
HETATM   30  H9  UNK     1      14.835   9.440  34.781  1.00  0.00     0.169 HD
ENDBRANCH   4  26
TORSDOF 6
ENDMDL
MODEL 2
REMARK VINA RESULT:      -8.7      3.774      8.780
REMARK  6 active torsions:
REMARK  status: ('A' for Active; 'I' for Inactive)
REMARK    1  A    between atoms: C2_15  and  S1_1 
REMARK    2  A    between atoms: C4_17  and  S2_2 
REMARK       I    between atoms: C15_28  and  N1_12 
REMARK    3  A    between atoms: C7_20  and  N1_12 
REMARK    4  A    between atoms: C13_26  and  N2_13 
REMARK    5  A    between atoms: C1_14  and  C5_18 
REMARK    6  A    between atoms: C3_16  and  C8_21 
ROOT
HETATM    1  C1  UNK     1      18.271   0.571  34.640  1.00  0.00    -0.012 A 
HETATM    2  C2  UNK     1      18.303   0.197  35.984  1.00  0.00     0.093 A 
HETATM    3  C6  UNK     1      18.684  -1.095  36.340  1.00  0.00     0.056 A 
HETATM    4  C7  UNK     1      19.035  -2.016  35.352  1.00  0.00     0.036 A 
HETATM    5  C9  UNK     1      18.621  -0.350  33.652  1.00  0.00     0.015 A 
HETATM    6  C10 UNK     1      19.004  -1.643  34.008  1.00  0.00     0.030 A 
ENDROOT
BRANCH   1   7
HETATM    7  C5  UNK     1      17.878   1.911  34.223  1.00  0.00     0.014 C 
HETATM    8  C8  UNK     1      18.661   2.773  33.538  1.00  0.00     0.014 C 
BRANCH   8   9
HETATM    9  C3  UNK     1      18.257   4.121  33.099  1.00  0.00    -0.012 A 
HETATM   10  C11 UNK     1      18.031   5.075  34.082  1.00  0.00     0.015 A 
HETATM   11  C14 UNK     1      17.647   6.362  33.710  1.00  0.00     0.037 A 
HETATM   12  C13 UNK     1      17.491   6.683  32.361  1.00  0.00     0.104 A 
HETATM   13  C12 UNK     1      17.721   5.714  31.384  1.00  0.00     0.063 A 
HETATM   14  C4  UNK     1      18.106   4.425  31.755  1.00  0.00     0.093 A 
BRANCH  12  15
HETATM   15  N2  UNK     1      17.099   7.994  31.984  1.00  0.00    -0.116 N 
HETATM   16  O7  UNK     1      16.511   8.161  30.888  1.00  0.00    -0.532 OA
HETATM   17  O8  UNK     1      17.351   8.950  32.757  1.00  0.00    -0.532 OA
ENDBRANCH  12  15
BRANCH  14  18
HETATM   18  S2  UNK     1      18.382   3.245  30.490  1.00  0.00     0.138 S 
HETATM   19  O4  UNK     1      18.667   4.068  29.308  1.00  0.00    -0.591 OA
HETATM   20  O5  UNK     1      19.527   2.440  30.944  1.00  0.00    -0.591 OA
HETATM   21  O6  UNK     1      17.119   2.497  30.432  1.00  0.00    -0.591 OA
ENDBRANCH  14  18
ENDBRANCH   8   9
ENDBRANCH   1   7
BRANCH   2  22
HETATM   22  S1  UNK     1      17.871   1.317  37.263  1.00  0.00     0.138 S 
HETATM   23  O1  UNK     1      18.871   2.386  37.135  1.00  0.00    -0.591 OA
HETATM   24  O2  UNK     1      16.498   1.748  36.964  1.00  0.00    -0.591 OA
HETATM   25  O3  UNK     1      17.986   0.508  38.484  1.00  0.00    -0.591 OA
ENDBRANCH   2  22
BRANCH   4  26
HETATM   26  N1  UNK     1      19.417  -3.310  35.707  1.00  0.00    -0.327 N 
HETATM   27  C15 UNK     1      20.112  -3.724  36.850  1.00  0.00     0.218 C 
HETATM   28  O9  UNK     1      20.521  -3.022  37.770  1.00  0.00    -0.274 OA
HETATM   29  C16 UNK     1      20.331  -5.217  36.862  1.00  0.00     0.117 C 
HETATM   30  H9  UNK     1      19.153  -4.038  35.045  1.00  0.00     0.169 HD
ENDBRANCH   4  26
TORSDOF 6
ENDMDL
MODEL 3
REMARK VINA RESULT:      -8.6      1.254      8.745
REMARK  6 active torsions:
REMARK  status: ('A' for Active; 'I' for Inactive)
REMARK    1  A    between atoms: C2_15  and  S1_1 
REMARK    2  A    between atoms: C4_17  and  S2_2 
REMARK       I    between atoms: C15_28  and  N1_12 
REMARK    3  A    between atoms: C7_20  and  N1_12 
REMARK    4  A    between atoms: C13_26  and  N2_13 
REMARK    5  A    between atoms: C1_14  and  C5_18 
REMARK    6  A    between atoms: C3_16  and  C8_21 
ROOT
HETATM    1  C1  UNK     1      18.294   2.749  31.855  1.00  0.00    -0.012 A 
HETATM    2  C2  UNK     1      18.459   1.611  32.644  1.00  0.00     0.093 A 
HETATM    3  C6  UNK     1      18.952   0.436  32.078  1.00  0.00     0.056 A 
HETATM    4  C7  UNK     1      19.280   0.398  30.723  1.00  0.00     0.036 A 
HETATM    5  C9  UNK     1      18.622   2.712  30.500  1.00  0.00     0.015 A 
HETATM    6  C10 UNK     1      19.116   1.536  29.934  1.00  0.00     0.030 A 
ENDROOT
BRANCH   1   7
HETATM    7  C5  UNK     1      17.781   3.999  32.404  1.00  0.00     0.014 C 
HETATM    8  C8  UNK     1      17.904   5.212  31.822  1.00  0.00     0.014 C 
BRANCH   8   9
HETATM    9  C3  UNK     1      17.370   6.472  32.368  1.00  0.00    -0.012 A 
HETATM   10  C11 UNK     1      16.035   6.764  32.121  1.00  0.00     0.015 A 
HETATM   11  C14 UNK     1      15.490   7.947  32.619  1.00  0.00     0.037 A 
HETATM   12  C13 UNK     1      16.284   8.825  33.358  1.00  0.00     0.104 A 
HETATM   13  C12 UNK     1      17.623   8.519  33.597  1.00  0.00     0.063 A 
HETATM   14  C4  UNK     1      18.170   7.337  33.099  1.00  0.00     0.093 A 
BRANCH  12  15
HETATM   15  N2  UNK     1      15.727  10.029  33.864  1.00  0.00    -0.116 N 
HETATM   16  O7  UNK     1      14.892  10.653  33.166  1.00  0.00    -0.532 OA
HETATM   17  O8  UNK     1      16.086  10.436  34.995  1.00  0.00    -0.532 OA
ENDBRANCH  12  15
BRANCH  14  18
HETATM   18  S2  UNK     1      19.857   6.999  33.428  1.00  0.00     0.138 S 
HETATM   19  O4  UNK     1      19.804   5.929  34.434  1.00  0.00    -0.591 OA
HETATM   20  O5  UNK     1      20.435   6.578  32.143  1.00  0.00    -0.591 OA
HETATM   21  O6  UNK     1      20.378   8.282  33.920  1.00  0.00    -0.591 OA
ENDBRANCH  14  18
ENDBRANCH   8   9
ENDBRANCH   1   7
BRANCH   2  22
HETATM   22  S1  UNK     1      18.060   1.606  34.352  1.00  0.00     0.138 S 
HETATM   23  O1  UNK     1      18.955   0.583  34.910  1.00  0.00    -0.591 OA
HETATM   24  O2  UNK     1      18.345   2.968  34.827  1.00  0.00    -0.591 OA
HETATM   25  O3  UNK     1      16.634   1.256  34.373  1.00  0.00    -0.591 OA
ENDBRANCH   2  22
BRANCH   4  26
HETATM   26  N1  UNK     1      19.774  -0.777  30.156  1.00  0.00    -0.327 N 
HETATM   27  C15 UNK     1      20.590  -1.748  30.750  1.00  0.00     0.218 C 
HETATM   28  O9  UNK     1      21.030  -1.754  31.895  1.00  0.00    -0.274 OA
HETATM   29  C16 UNK     1      20.903  -2.875  29.797  1.00  0.00     0.117 C 
HETATM   30  H9  UNK     1      19.500  -0.941  29.188  1.00  0.00     0.169 HD
ENDBRANCH   4  26
TORSDOF 6
ENDMDL
MODEL 4
REMARK VINA RESULT:      -8.4      6.872     10.353
REMARK  6 active torsions:
REMARK  status: ('A' for Active; 'I' for Inactive)
REMARK    1  A    between atoms: C2_15  and  S1_1 
REMARK    2  A    between atoms: C4_17  and  S2_2 
REMARK       I    between atoms: C15_28  and  N1_12 
REMARK    3  A    between atoms: C7_20  and  N1_12 
REMARK    4  A    between atoms: C13_26  and  N2_13 
REMARK    5  A    between atoms: C1_14  and  C5_18 
REMARK    6  A    between atoms: C3_16  and  C8_21 
ROOT
HETATM    1  C1  UNK     1      19.749  -2.362  34.625  1.00  0.00    -0.012 A 
HETATM    2  C2  UNK     1      18.805  -1.361  34.859  1.00  0.00     0.093 A 
HETATM    3  C6  UNK     1      18.428  -0.505  33.825  1.00  0.00     0.056 A 
HETATM    4  C7  UNK     1      18.993  -0.648  32.558  1.00  0.00     0.036 A 
HETATM    5  C9  UNK     1      20.315  -2.505  33.359  1.00  0.00     0.015 A 
HETATM    6  C10 UNK     1      19.937  -1.649  32.325  1.00  0.00     0.030 A 
ENDROOT
BRANCH   1   7
HETATM    7  C5  UNK     1      20.173  -3.280  35.676  1.00  0.00     0.014 C 
HETATM    8  C8  UNK     1      19.917  -4.607  35.700  1.00  0.00     0.014 C 
BRANCH   8   9
HETATM    9  C3  UNK     1      20.362  -5.537  36.752  1.00  0.00    -0.012 A 
HETATM   10  C11 UNK     1      21.404  -5.128  37.573  1.00  0.00     0.015 A 
HETATM   11  C14 UNK     1      21.857  -5.978  38.581  1.00  0.00     0.037 A 
HETATM   12  C13 UNK     1      21.264  -7.229  38.758  1.00  0.00     0.104 A 
HETATM   13  C12 UNK     1      20.218  -7.628  37.925  1.00  0.00     0.063 A 
HETATM   14  C4  UNK     1      19.765  -6.777  36.916  1.00  0.00     0.093 A 
BRANCH  12  15
HETATM   15  N2  UNK     1      21.725  -8.094  39.784  1.00  0.00    -0.116 N 
HETATM   16  O7  UNK     1      22.649  -7.704  40.538  1.00  0.00    -0.532 OA
HETATM   17  O8  UNK     1      21.196  -9.225  39.909  1.00  0.00    -0.532 OA
ENDBRANCH  12  15
BRANCH  14  18
HETATM   18  S2  UNK     1      18.449  -7.325  35.898  1.00  0.00     0.138 S 
HETATM   19  O4  UNK     1      18.271  -8.729  36.291  1.00  0.00    -0.591 OA
HETATM   20  O5  UNK     1      17.304  -6.464  36.234  1.00  0.00    -0.591 OA
HETATM   21  O6  UNK     1      18.959  -7.126  34.535  1.00  0.00    -0.591 OA
ENDBRANCH  14  18
ENDBRANCH   8   9
ENDBRANCH   1   7
BRANCH   2  22
HETATM   22  S1  UNK     1      18.065  -1.140  36.433  1.00  0.00     0.138 S 
HETATM   23  O1  UNK     1      17.041  -0.114  36.189  1.00  0.00    -0.591 OA
HETATM   24  O2  UNK     1      17.516  -2.453  36.800  1.00  0.00    -0.591 OA
HETATM   25  O3  UNK     1      19.182  -0.706  37.282  1.00  0.00    -0.591 OA
ENDBRANCH   2  22
BRANCH   4  26
HETATM   26  N1  UNK     1      18.616   0.208  31.524  1.00  0.00    -0.327 N 
HETATM   27  C15 UNK     1      19.361   0.589  30.401  1.00  0.00     0.218 C 
HETATM   28  O9  UNK     1      20.499   0.237  30.106  1.00  0.00    -0.274 OA
HETATM   29  C16 UNK     1      18.591   1.535  29.513  1.00  0.00     0.117 C 
HETATM   30  H9  UNK     1      17.680   0.601  31.604  1.00  0.00     0.169 HD
ENDBRANCH   4  26
TORSDOF 6
ENDMDL
MODEL 5
REMARK VINA RESULT:      -8.3      2.756      8.923
REMARK  6 active torsions:
REMARK  status: ('A' for Active; 'I' for Inactive)
REMARK    1  A    between atoms: C2_15  and  S1_1 
REMARK    2  A    between atoms: C4_17  and  S2_2 
REMARK       I    between atoms: C15_28  and  N1_12 
REMARK    3  A    between atoms: C7_20  and  N1_12 
REMARK    4  A    between atoms: C13_26  and  N2_13 
REMARK    5  A    between atoms: C1_14  and  C5_18 
REMARK    6  A    between atoms: C3_16  and  C8_21 
ROOT
HETATM    1  C1  UNK     1      18.500   5.009  32.669  1.00  0.00    -0.012 A 
HETATM    2  C2  UNK     1      18.718   4.421  31.423  1.00  0.00     0.093 A 
HETATM    3  C6  UNK     1      18.706   3.033  31.295  1.00  0.00     0.056 A 
HETATM    4  C7  UNK     1      18.474   2.232  32.413  1.00  0.00     0.036 A 
HETATM    5  C9  UNK     1      18.269   4.208  33.787  1.00  0.00     0.015 A 
HETATM    6  C10 UNK     1      18.255   2.820  33.660  1.00  0.00     0.030 A 
ENDROOT
BRANCH   1   7
HETATM    7  C5  UNK     1      18.505   6.456  32.848  1.00  0.00     0.014 C 
HETATM    8  C8  UNK     1      17.595   7.154  33.565  1.00  0.00     0.014 C 
BRANCH   8   9
HETATM    9  C3  UNK     1      17.611   8.614  33.762  1.00  0.00    -0.012 A 
HETATM   10  C11 UNK     1      18.829   9.209  34.061  1.00  0.00     0.015 A 
HETATM   11  C14 UNK     1      18.888  10.588  34.256  1.00  0.00     0.037 A 
HETATM   12  C13 UNK     1      17.729  11.359  34.150  1.00  0.00     0.104 A 
HETATM   13  C12 UNK     1      16.512  10.747  33.850  1.00  0.00     0.063 A 
HETATM   14  C4  UNK     1      16.452   9.368  33.655  1.00  0.00     0.093 A 
BRANCH  12  15
HETATM   15  N2  UNK     1      17.790  12.763  34.350  1.00  0.00    -0.116 N 
HETATM   16  O7  UNK     1      18.149  13.497  33.397  1.00  0.00    -0.532 OA
HETATM   17  O8  UNK     1      17.484  13.231  35.473  1.00  0.00    -0.532 OA
ENDBRANCH  12  15
BRANCH  14  18
HETATM   18  S2  UNK     1      14.899   8.649  33.278  1.00  0.00     0.138 S 
HETATM   19  O4  UNK     1      15.088   8.110  31.925  1.00  0.00    -0.591 OA
HETATM   20  O5  UNK     1      14.681   7.618  34.304  1.00  0.00    -0.591 OA
HETATM   21  O6  UNK     1      13.964   9.779  33.367  1.00  0.00    -0.591 OA
ENDBRANCH  14  18
ENDBRANCH   8   9
ENDBRANCH   1   7
BRANCH   2  22
HETATM   22  S1  UNK     1      19.014   5.384  29.987  1.00  0.00     0.138 S 
HETATM   23  O1  UNK     1      18.742   4.449  28.886  1.00  0.00    -0.591 OA
HETATM   24  O2  UNK     1      18.067   6.506  30.062  1.00  0.00    -0.591 OA
HETATM   25  O3  UNK     1      20.420   5.785  30.123  1.00  0.00    -0.591 OA
ENDBRANCH   2  22
BRANCH   4  26
HETATM   26  N1  UNK     1      18.461   0.843  32.287  1.00  0.00    -0.327 N 
HETATM   27  C15 UNK     1      19.442   0.016  31.725  1.00  0.00     0.218 C 
HETATM   28  O9  UNK     1      20.514   0.357  31.234  1.00  0.00    -0.274 OA
HETATM   29  C16 UNK     1      19.047  -1.439  31.782  1.00  0.00     0.117 C 
HETATM   30  H9  UNK     1      17.630   0.381  32.652  1.00  0.00     0.169 HD
ENDBRANCH   4  26
TORSDOF 6
ENDMDL
MODEL 6
REMARK VINA RESULT:      -8.2      2.882      4.577
REMARK  6 active torsions:
REMARK  status: ('A' for Active; 'I' for Inactive)
REMARK    1  A    between atoms: C2_15  and  S1_1 
REMARK    2  A    between atoms: C4_17  and  S2_2 
REMARK       I    between atoms: C15_28  and  N1_12 
REMARK    3  A    between atoms: C7_20  and  N1_12 
REMARK    4  A    between atoms: C13_26  and  N2_13 
REMARK    5  A    between atoms: C1_14  and  C5_18 
REMARK    6  A    between atoms: C3_16  and  C8_21 
ROOT
HETATM    1  C1  UNK     1      18.214   8.838  33.967  1.00  0.00    -0.012 A 
HETATM    2  C2  UNK     1      17.117   9.670  33.745  1.00  0.00     0.093 A 
HETATM    3  C6  UNK     1      17.253  11.052  33.875  1.00  0.00     0.056 A 
HETATM    4  C7  UNK     1      18.486  11.602  34.226  1.00  0.00     0.036 A 
HETATM    5  C9  UNK     1      19.447   9.387  34.319  1.00  0.00     0.015 A 
HETATM    6  C10 UNK     1      19.583  10.769  34.448  1.00  0.00     0.030 A 
ENDROOT
BRANCH   1   7
HETATM    7  C5  UNK     1      18.118   7.388  33.842  1.00  0.00     0.014 C 
HETATM    8  C8  UNK     1      18.667   6.655  32.848  1.00  0.00     0.014 C 
BRANCH   8   9
HETATM    9  C3  UNK     1      18.585   5.188  32.733  1.00  0.00    -0.012 A 
HETATM   10  C11 UNK     1      18.351   4.465  33.894  1.00  0.00     0.015 A 
HETATM   11  C14 UNK     1      18.268   3.074  33.829  1.00  0.00     0.037 A 
HETATM   12  C13 UNK     1      18.419   2.422  32.605  1.00  0.00     0.104 A 
HETATM   13  C12 UNK     1      18.655   3.162  31.446  1.00  0.00     0.063 A 
HETATM   14  C4  UNK     1      18.739   4.553  31.510  1.00  0.00     0.093 A 
BRANCH  12  15
HETATM   15  N2  UNK     1      18.335   1.006  32.541  1.00  0.00    -0.116 N 
HETATM   16  O7  UNK     1      17.850   0.381  33.514  1.00  0.00    -0.532 OA
HETATM   17  O8  UNK     1      18.747   0.419  31.511  1.00  0.00    -0.532 OA
ENDBRANCH  12  15
BRANCH  14  18
HETATM   18  S2  UNK     1      19.035   5.435  30.026  1.00  0.00     0.138 S 
HETATM   19  O4  UNK     1      18.748   4.450  28.976  1.00  0.00    -0.591 OA
HETATM   20  O5  UNK     1      18.100   6.571  30.048  1.00  0.00    -0.591 OA
HETATM   21  O6  UNK     1      20.447   5.829  30.133  1.00  0.00    -0.591 OA
ENDBRANCH  14  18
ENDBRANCH   8   9
ENDBRANCH   1   7
BRANCH   2  22
HETATM   22  S1  UNK     1      15.547   9.029  33.301  1.00  0.00     0.138 S 
HETATM   23  O1  UNK     1      14.634  10.152  33.553  1.00  0.00    -0.591 OA
HETATM   24  O2  UNK     1      15.658   8.659  31.882  1.00  0.00    -0.591 OA
HETATM   25  O3  UNK     1      15.375   7.881  34.202  1.00  0.00    -0.591 OA
ENDBRANCH   2  22
BRANCH   4  26
HETATM   26  N1  UNK     1      18.623  12.984  34.356  1.00  0.00    -0.327 N 
HETATM   27  C15 UNK     1      18.827  13.932  33.346  1.00  0.00     0.218 C 
HETATM   28  O9  UNK     1      18.923  13.728  32.140  1.00  0.00    -0.274 OA
HETATM   29  C16 UNK     1      18.921  15.331  33.903  1.00  0.00     0.117 C 
HETATM   30  H9  UNK     1      18.565  13.338  35.310  1.00  0.00     0.169 HD
ENDBRANCH   4  26
TORSDOF 6
ENDMDL
MODEL 7
REMARK VINA RESULT:      -8.1     23.245     25.264
REMARK  6 active torsions:
REMARK  status: ('A' for Active; 'I' for Inactive)
REMARK    1  A    between atoms: C2_15  and  S1_1 
REMARK    2  A    between atoms: C4_17  and  S2_2 
REMARK       I    between atoms: C15_28  and  N1_12 
REMARK    3  A    between atoms: C7_20  and  N1_12 
REMARK    4  A    between atoms: C13_26  and  N2_13 
REMARK    5  A    between atoms: C1_14  and  C5_18 
REMARK    6  A    between atoms: C3_16  and  C8_21 
ROOT
HETATM    1  C1  UNK     1      14.827   9.575   9.391  1.00  0.00    -0.012 A 
HETATM    2  C2  UNK     1      15.938   8.786   9.693  1.00  0.00     0.093 A 
HETATM    3  C6  UNK     1      17.222   9.308   9.549  1.00  0.00     0.056 A 
HETATM    4  C7  UNK     1      17.398  10.619   9.105  1.00  0.00     0.036 A 
HETATM    5  C9  UNK     1      15.001  10.885   8.946  1.00  0.00     0.015 A 
HETATM    6  C10 UNK     1      16.287  11.407   8.803  1.00  0.00     0.030 A 
ENDROOT
BRANCH   1   7
HETATM    7  C5  UNK     1      13.466   9.070   9.526  1.00  0.00     0.014 C 
HETATM    8  C8  UNK     1      12.667   8.704   8.499  1.00  0.00     0.014 C 
BRANCH   8   9
HETATM    9  C3  UNK     1      11.298   8.176   8.637  1.00  0.00    -0.012 A 
HETATM   10  C11 UNK     1      10.420   8.872   9.457  1.00  0.00     0.015 A 
HETATM   11  C14 UNK     1       9.116   8.406   9.615  1.00  0.00     0.037 A 
HETATM   12  C13 UNK     1       8.702   7.249   8.953  1.00  0.00     0.104 A 
HETATM   13  C12 UNK     1       9.595   6.560   8.132  1.00  0.00     0.063 A 
HETATM   14  C4  UNK     1      10.900   7.025   7.973  1.00  0.00     0.093 A 
BRANCH  12  15
HETATM   15  N2  UNK     1       7.374   6.775   9.115  1.00  0.00    -0.116 N 
HETATM   16  O7  UNK     1       6.453   7.604   9.312  1.00  0.00    -0.532 OA
HETATM   17  O8  UNK     1       7.158   5.541   9.057  1.00  0.00    -0.532 OA
ENDBRANCH  12  15
BRANCH  14  18
HETATM   18  S2  UNK     1      11.982   6.124   6.931  1.00  0.00     0.138 S 
HETATM   19  O4  UNK     1      11.156   5.825   5.754  1.00  0.00    -0.591 OA
HETATM   20  O5  UNK     1      13.109   7.028   6.654  1.00  0.00    -0.591 OA
HETATM   21  O6  UNK     1      12.348   4.953   7.741  1.00  0.00    -0.591 OA
ENDBRANCH  14  18
ENDBRANCH   8   9
ENDBRANCH   1   7
BRANCH   2  22
HETATM   22  S1  UNK     1      15.771   7.134  10.255  1.00  0.00     0.138 S 
HETATM   23  O1  UNK     1      14.957   7.266  11.471  1.00  0.00    -0.591 OA
HETATM   24  O2  UNK     1      15.099   6.411   9.165  1.00  0.00    -0.591 OA
HETATM   25  O3  UNK     1      17.158   6.706  10.484  1.00  0.00    -0.591 OA
ENDBRANCH   2  22
BRANCH   4  26
HETATM   26  N1  UNK     1      18.682  11.142   8.961  1.00  0.00    -0.327 N 
HETATM   27  C15 UNK     1      19.282  11.659   7.806  1.00  0.00     0.218 C 
HETATM   28  O9  UNK     1      18.786  11.755   6.687  1.00  0.00    -0.274 OA
HETATM   29  C16 UNK     1      20.691  12.129   8.069  1.00  0.00     0.117 C 
HETATM   30  H9  UNK     1      19.248  11.144   9.808  1.00  0.00     0.169 HD
ENDBRANCH   4  26
TORSDOF 6
ENDMDL
MODEL 8
REMARK VINA RESULT:      -8.0     23.236     24.890
REMARK  6 active torsions:
REMARK  status: ('A' for Active; 'I' for Inactive)
REMARK    1  A    between atoms: C2_15  and  S1_1 
REMARK    2  A    between atoms: C4_17  and  S2_2 
REMARK       I    between atoms: C15_28  and  N1_12 
REMARK    3  A    between atoms: C7_20  and  N1_12 
REMARK    4  A    between atoms: C13_26  and  N2_13 
REMARK    5  A    between atoms: C1_14  and  C5_18 
REMARK    6  A    between atoms: C3_16  and  C8_21 
ROOT
HETATM    1  C1  UNK     1      14.963   9.384   8.844  1.00  0.00    -0.012 A 
HETATM    2  C2  UNK     1      16.049   8.946   9.602  1.00  0.00     0.093 A 
HETATM    3  C6  UNK     1      17.184   9.746   9.720  1.00  0.00     0.056 A 
HETATM    4  C7  UNK     1      17.235  10.985   9.082  1.00  0.00     0.036 A 
HETATM    5  C9  UNK     1      15.013  10.623   8.204  1.00  0.00     0.015 A 
HETATM    6  C10 UNK     1      16.149  11.424   8.324  1.00  0.00     0.030 A 
ENDROOT
BRANCH   1   7
HETATM    7  C5  UNK     1      13.755   8.581   8.692  1.00  0.00     0.014 C 
HETATM    8  C8  UNK     1      12.522   8.944   9.109  1.00  0.00     0.014 C 
BRANCH   8   9
HETATM    9  C3  UNK     1      11.299   8.141   8.939  1.00  0.00    -0.012 A 
HETATM   10  C11 UNK     1      11.397   6.970   8.200  1.00  0.00     0.015 A 
HETATM   11  C14 UNK     1      10.263   6.180   8.014  1.00  0.00     0.037 A 
HETATM   12  C13 UNK     1       9.043   6.569   8.568  1.00  0.00     0.104 A 
HETATM   13  C12 UNK     1       8.959   7.749   9.308  1.00  0.00     0.063 A 
HETATM   14  C4  UNK     1      10.092   8.539   9.494  1.00  0.00     0.093 A 
BRANCH  12  15
HETATM   15  N2  UNK     1       7.889   5.764   8.377  1.00  0.00    -0.116 N 
HETATM   16  O7  UNK     1       6.960   5.825   9.218  1.00  0.00    -0.532 OA
HETATM   17  O8  UNK     1       7.830   5.015   7.373  1.00  0.00    -0.532 OA
ENDBRANCH  12  15
BRANCH  14  18
HETATM   18  S2  UNK     1       9.934  10.011  10.432  1.00  0.00     0.138 S 
HETATM   19  O4  UNK     1      10.962   9.869  11.471  1.00  0.00    -0.591 OA
HETATM   20  O5  UNK     1      10.188  11.110   9.489  1.00  0.00    -0.591 OA
HETATM   21  O6  UNK     1       8.550   9.961  10.923  1.00  0.00    -0.591 OA
ENDBRANCH  14  18
ENDBRANCH   8   9
ENDBRANCH   1   7
BRANCH   2  22
HETATM   22  S1  UNK     1      16.035   7.397  10.424  1.00  0.00     0.138 S 
HETATM   23  O1  UNK     1      15.079   7.600  11.521  1.00  0.00    -0.591 OA
HETATM   24  O2  UNK     1      15.588   6.420   9.420  1.00  0.00    -0.591 OA
HETATM   25  O3  UNK     1      17.430   7.217  10.846  1.00  0.00    -0.591 OA
ENDBRANCH   2  22
BRANCH   4  26
HETATM   26  N1  UNK     1      18.371  11.786   9.200  1.00  0.00    -0.327 N 
HETATM   27  C15 UNK     1      19.546  11.737   8.440  1.00  0.00     0.218 C 
HETATM   28  O9  UNK     1      19.806  10.975   7.514  1.00  0.00    -0.274 OA
HETATM   29  C16 UNK     1      20.542  12.780   8.884  1.00  0.00     0.117 C 
HETATM   30  H9  UNK     1      18.330  12.492   9.933  1.00  0.00     0.169 HD
ENDBRANCH   4  26
TORSDOF 6
ENDMDL
MODEL 9
REMARK VINA RESULT:      -8.0     18.967     23.265
REMARK  6 active torsions:
REMARK  status: ('A' for Active; 'I' for Inactive)
REMARK    1  A    between atoms: C2_15  and  S1_1 
REMARK    2  A    between atoms: C4_17  and  S2_2 
REMARK       I    between atoms: C15_28  and  N1_12 
REMARK    3  A    between atoms: C7_20  and  N1_12 
REMARK    4  A    between atoms: C13_26  and  N2_13 
REMARK    5  A    between atoms: C1_14  and  C5_18 
REMARK    6  A    between atoms: C3_16  and  C8_21 
ROOT
HETATM    1  C1  UNK     1      19.969  -4.508  13.473  1.00  0.00    -0.012 A 
HETATM    2  C2  UNK     1      20.564  -3.306  13.855  1.00  0.00     0.093 A 
HETATM    3  C6  UNK     1      21.235  -3.217  15.074  1.00  0.00     0.056 A 
HETATM    4  C7  UNK     1      21.311  -4.330  15.911  1.00  0.00     0.036 A 
HETATM    5  C9  UNK     1      20.044  -5.621  14.310  1.00  0.00     0.015 A 
HETATM    6  C10 UNK     1      20.716  -5.533  15.529  1.00  0.00     0.030 A 
ENDROOT
BRANCH   1   7
HETATM    7  C5  UNK     1      19.257  -4.646  12.208  1.00  0.00     0.014 C 
HETATM    8  C8  UNK     1      19.414  -5.666  11.335  1.00  0.00     0.014 C 
BRANCH   8   9
HETATM    9  C3  UNK     1      18.681  -5.815  10.065  1.00  0.00    -0.012 A 
HETATM   10  C11 UNK     1      19.043  -4.986   9.013  1.00  0.00     0.015 A 
HETATM   11  C14 UNK     1      18.374  -5.093   7.794  1.00  0.00     0.037 A 
HETATM   12  C13 UNK     1      17.350  -6.029   7.640  1.00  0.00     0.104 A 
HETATM   13  C12 UNK     1      16.996  -6.855   8.707  1.00  0.00     0.063 A 
HETATM   14  C4  UNK     1      17.664  -6.748   9.926  1.00  0.00     0.093 A 
BRANCH  12  15
HETATM   15  N2  UNK     1      16.669  -6.137   6.399  1.00  0.00    -0.116 N 
HETATM   16  O7  UNK     1      15.653  -6.870   6.325  1.00  0.00    -0.532 OA
HETATM   17  O8  UNK     1      17.101  -5.497   5.411  1.00  0.00    -0.532 OA
ENDBRANCH  12  15
BRANCH  14  18
HETATM   18  S2  UNK     1      17.182  -7.810  11.234  1.00  0.00     0.138 S 
HETATM   19  O4  UNK     1      18.392  -8.597  11.502  1.00  0.00    -0.591 OA
HETATM   20  O5  UNK     1      16.793  -6.923  12.341  1.00  0.00    -0.591 OA
HETATM   21  O6  UNK     1      16.063  -8.573  10.665  1.00  0.00    -0.591 OA
ENDBRANCH  14  18
ENDBRANCH   8   9
ENDBRANCH   1   7
BRANCH   2  22
HETATM   22  S1  UNK     1      20.497  -1.878  12.839  1.00  0.00     0.138 S 
HETATM   23  O1  UNK     1      21.440  -0.954  13.483  1.00  0.00    -0.591 OA
HETATM   24  O2  UNK     1      20.918  -2.324  11.503  1.00  0.00    -0.591 OA
HETATM   25  O3  UNK     1      19.087  -1.469  12.911  1.00  0.00    -0.591 OA
ENDBRANCH   2  22
BRANCH   4  26
HETATM   26  N1  UNK     1      21.982  -4.242  17.131  1.00  0.00    -0.327 N 
HETATM   27  C15 UNK     1      23.340  -4.468  17.390  1.00  0.00     0.218 C 
HETATM   28  O9  UNK     1      24.210  -4.786  16.585  1.00  0.00    -0.274 OA
HETATM   29  C16 UNK     1      23.673  -4.267  18.848  1.00  0.00     0.117 C 
HETATM   30  H9  UNK     1      21.403  -3.981  17.928  1.00  0.00     0.169 HD
ENDBRANCH   4  26
TORSDOF 6
ENDMDL
MODEL 10
REMARK VINA RESULT:      -7.8     23.121     25.084
REMARK  6 active torsions:
REMARK  status: ('A' for Active; 'I' for Inactive)
REMARK    1  A    between atoms: C2_15  and  S1_1 
REMARK    2  A    between atoms: C4_17  and  S2_2 
REMARK       I    between atoms: C15_28  and  N1_12 
REMARK    3  A    between atoms: C7_20  and  N1_12 
REMARK    4  A    between atoms: C13_26  and  N2_13 
REMARK    5  A    between atoms: C1_14  and  C5_18 
REMARK    6  A    between atoms: C3_16  and  C8_21 
ROOT
HETATM    1  C1  UNK     1      11.592   8.310   8.718  1.00  0.00    -0.012 A 
HETATM    2  C2  UNK     1      11.167   7.076   8.224  1.00  0.00     0.093 A 
HETATM    3  C6  UNK     1       9.876   6.624   8.494  1.00  0.00     0.056 A 
HETATM    4  C7  UNK     1       9.009   7.404   9.259  1.00  0.00     0.036 A 
HETATM    5  C9  UNK     1      10.725   9.090   9.483  1.00  0.00     0.015 A 
HETATM    6  C10 UNK     1       9.434   8.638   9.753  1.00  0.00     0.030 A 
ENDROOT
BRANCH   1   7
HETATM    7  C5  UNK     1      12.932   8.822   8.460  1.00  0.00     0.014 C 
HETATM    8  C8  UNK     1      13.771   9.313   9.399  1.00  0.00     0.014 C 
BRANCH   8   9
HETATM    9  C3  UNK     1      15.133   9.813   9.141  1.00  0.00    -0.012 A 
HETATM   10  C11 UNK     1      15.268  10.892   8.279  1.00  0.00     0.015 A 
HETATM   11  C14 UNK     1      16.540  11.396   8.007  1.00  0.00     0.037 A 
HETATM   12  C13 UNK     1      17.662  10.816   8.599  1.00  0.00     0.104 A 
HETATM   13  C12 UNK     1      17.511   9.731   9.463  1.00  0.00     0.063 A 
HETATM   14  C4  UNK     1      16.240   9.226   9.735  1.00  0.00     0.093 A 
BRANCH  12  15
HETATM   15  N2  UNK     1      18.956  11.329   8.321  1.00  0.00    -0.116 N 
HETATM   16  O7  UNK     1      19.790  11.412   9.254  1.00  0.00    -0.532 OA
HETATM   17  O8  UNK     1      19.230  11.684   7.149  1.00  0.00    -0.532 OA
ENDBRANCH  12  15
BRANCH  14  18
HETATM   18  S2  UNK     1      16.104   7.863  10.828  1.00  0.00     0.138 S 
HETATM   19  O4  UNK     1      15.482   8.443  12.025  1.00  0.00    -0.591 OA
HETATM   20  O5  UNK     1      15.256   6.882  10.133  1.00  0.00    -0.591 OA
HETATM   21  O6  UNK     1      17.494   7.423  11.007  1.00  0.00    -0.591 OA
ENDBRANCH  14  18
ENDBRANCH   8   9
ENDBRANCH   1   7
BRANCH   2  22
HETATM   22  S1  UNK     1      12.218   6.057   7.258  1.00  0.00     0.138 S 
HETATM   23  O1  UNK     1      11.889   6.436   5.877  1.00  0.00    -0.591 OA
HETATM   24  O2  UNK     1      13.588   6.409   7.661  1.00  0.00    -0.591 OA
HETATM   25  O3  UNK     1      11.821   4.694   7.635  1.00  0.00    -0.591 OA
ENDBRANCH   2  22
BRANCH   4  26
HETATM   26  N1  UNK     1       7.718   6.952   9.530  1.00  0.00    -0.327 N 
HETATM   27  C15 UNK     1       7.327   5.906  10.374  1.00  0.00     0.218 C 
HETATM   28  O9  UNK     1       8.052   5.179  11.047  1.00  0.00    -0.274 OA
HETATM   29  C16 UNK     1       5.828   5.734  10.395  1.00  0.00     0.117 C 
HETATM   30  H9  UNK     1       6.972   7.453   9.049  1.00  0.00     0.169 HD
ENDBRANCH   4  26
TORSDOF 6
ENDMDL
