MODEL 1
REMARK VINA RESULT:      -8.2      0.000      0.000
REMARK  5 active torsions:
REMARK  status: ('A' for Active; 'I' for Inactive)
REMARK    1  A    between atoms: C16_21  and  O2_2 
REMARK    2  A    between atoms: C3_8  and  O2_2 
REMARK    3  A    between atoms: C15_20  and  O4_4 
REMARK    4  A    between atoms: C1_6  and  C5_10 
REMARK    5  A    between atoms: C16_21  and  C17_22 
ROOT
HETATM    1  O1  UNK     1      19.076  -0.070  32.542  1.00  0.00    -0.306 OA
HETATM    2  O3  UNK     1      18.558   2.801  29.698  1.00  0.00    -0.284 OA
HETATM    3  C1  UNK     1      18.436   1.125  32.829  1.00  0.00     0.123 A 
HETATM    4  C2  UNK     1      19.377   0.659  30.246  1.00  0.00     0.051 A 
HETATM    5  C3  UNK     1      18.237   2.117  31.942  1.00  0.00     0.155 A 
HETATM    6  C4  UNK     1      19.526  -0.281  31.264  1.00  0.00     0.090 A 
HETATM    7  C6  UNK     1      18.711   1.936  30.549  1.00  0.00     0.221 A 
HETATM    8  C7  UNK     1      19.856   0.390  28.962  1.00  0.00     0.018 A 
HETATM    9  C8  UNK     1      20.156  -1.498  31.003  1.00  0.00     0.038 A 
HETATM   10  C11 UNK     1      20.484  -0.828  28.703  1.00  0.00     0.001 A 
HETATM   11  C12 UNK     1      20.635  -1.770  29.721  1.00  0.00     0.003 A 
ENDROOT
BRANCH   3  12
HETATM   12  C5  UNK     1      18.003   1.222  34.234  1.00  0.00     0.001 A 
HETATM   13  C10 UNK     1      18.762   1.954  35.148  1.00  0.00     0.017 A 
HETATM   14  C14 UNK     1      18.353   2.047  36.479  1.00  0.00     0.037 A 
HETATM   15  C15 UNK     1      17.186   1.408  36.896  1.00  0.00     0.068 A 
HETATM   16  C13 UNK     1      16.427   0.674  35.983  1.00  0.00     0.037 A 
HETATM   17  C9  UNK     1      16.836   0.582  34.652  1.00  0.00     0.017 A 
BRANCH  15  18
HETATM   18  O4  UNK     1      16.787   1.496  38.194  1.00  0.00    -0.356 OA
HETATM   19  C19 UNK     1      17.802   1.409  39.193  1.00  0.00     0.210 C 
ENDBRANCH  15  18
ENDBRANCH   3  12
BRANCH   5  20
HETATM   20  O2  UNK     1      17.624   3.307  32.269  1.00  0.00    -0.337 OA
BRANCH  20  21
HETATM   21  C16 UNK     1      18.581   4.335  32.440  1.00  0.00     0.253 C 
BRANCH  21  22
HETATM   22  C17 UNK     1      18.094   5.628  31.820  1.00  0.00     0.146 C 
HETATM   23  O5  UNK     1      17.095   6.219  32.227  1.00  0.00    -0.296 OA
HETATM   24  C18 UNK     1      18.903   6.160  30.667  1.00  0.00     0.093 C 
ENDBRANCH  21  22
ENDBRANCH  20  21
ENDBRANCH   5  20
TORSDOF 5
ENDMDL
MODEL 2
REMARK VINA RESULT:      -8.1      2.612      5.426
REMARK  5 active torsions:
REMARK  status: ('A' for Active; 'I' for Inactive)
REMARK    1  A    between atoms: C16_21  and  O2_2 
REMARK    2  A    between atoms: C3_8  and  O2_2 
REMARK    3  A    between atoms: C15_20  and  O4_4 
REMARK    4  A    between atoms: C1_6  and  C5_10 
REMARK    5  A    between atoms: C16_21  and  C17_22 
ROOT
HETATM    1  O1  UNK     1      18.294   3.672  34.621  1.00  0.00    -0.306 OA
HETATM    2  O3  UNK     1      18.279   1.325  31.290  1.00  0.00    -0.284 OA
HETATM    3  C1  UNK     1      18.202   4.220  33.351  1.00  0.00     0.123 A 
HETATM    4  C2  UNK     1      18.362   1.451  33.644  1.00  0.00     0.051 A 
HETATM    5  C3  UNK     1      18.199   3.506  32.211  1.00  0.00     0.155 A 
HETATM    6  C4  UNK     1      18.365   2.308  34.742  1.00  0.00     0.090 A 
HETATM    7  C6  UNK     1      18.280   2.027  32.292  1.00  0.00     0.221 A 
HETATM    8  C7  UNK     1      18.436   0.068  33.828  1.00  0.00     0.018 A 
HETATM    9  C8  UNK     1      18.445   1.787  36.034  1.00  0.00     0.038 A 
HETATM   10  C11 UNK     1      18.514  -0.451  35.120  1.00  0.00     0.001 A 
HETATM   11  C12 UNK     1      18.519   0.406  36.221  1.00  0.00     0.003 A 
ENDROOT
BRANCH   3  12
HETATM   12  C5  UNK     1      18.131   5.691  33.363  1.00  0.00     0.001 A 
HETATM   13  C10 UNK     1      19.206   6.437  33.847  1.00  0.00     0.017 A 
HETATM   14  C14 UNK     1      19.140   7.831  33.859  1.00  0.00     0.037 A 
HETATM   15  C15 UNK     1      17.999   8.479  33.387  1.00  0.00     0.068 A 
HETATM   16  C13 UNK     1      16.923   7.733  32.904  1.00  0.00     0.037 A 
HETATM   17  C9  UNK     1      16.989   6.340  32.893  1.00  0.00     0.017 A 
BRANCH  15  18
HETATM   18  O4  UNK     1      17.933   9.837  33.399  1.00  0.00    -0.356 OA
HETATM   19  C19 UNK     1      16.850  10.428  34.115  1.00  0.00     0.210 C 
ENDBRANCH  15  18
ENDBRANCH   3  12
BRANCH   5  20
HETATM   20  O2  UNK     1      18.139   4.084  30.961  1.00  0.00    -0.337 OA
BRANCH  20  21
HETATM   21  C16 UNK     1      19.429   4.174  30.387  1.00  0.00     0.253 C 
BRANCH  21  22
HETATM   22  C17 UNK     1      19.891   5.616  30.334  1.00  0.00     0.146 C 
HETATM   23  O5  UNK     1      19.188   6.517  29.881  1.00  0.00    -0.296 OA
HETATM   24  C18 UNK     1      21.270   5.894  30.872  1.00  0.00     0.093 C 
ENDBRANCH  21  22
ENDBRANCH  20  21
ENDBRANCH   5  20
TORSDOF 5
ENDMDL
MODEL 3
REMARK VINA RESULT:      -8.0      1.387      4.647
REMARK  5 active torsions:
REMARK  status: ('A' for Active; 'I' for Inactive)
REMARK    1  A    between atoms: C16_21  and  O2_2 
REMARK    2  A    between atoms: C3_8  and  O2_2 
REMARK    3  A    between atoms: C15_20  and  O4_4 
REMARK    4  A    between atoms: C1_6  and  C5_10 
REMARK    5  A    between atoms: C16_21  and  C17_22 
ROOT
HETATM    1  O1  UNK     1      18.100   3.549  33.169  1.00  0.00    -0.306 OA
HETATM    2  O3  UNK     1      19.062   2.099  29.485  1.00  0.00    -0.284 OA
HETATM    3  C1  UNK     1      18.240   2.190  32.942  1.00  0.00     0.123 A 
HETATM    4  C2  UNK     1      18.641   3.981  30.843  1.00  0.00     0.051 A 
HETATM    5  C3  UNK     1      18.549   1.643  31.752  1.00  0.00     0.155 A 
HETATM    6  C4  UNK     1      18.308   4.413  32.125  1.00  0.00     0.090 A 
HETATM    7  C6  UNK     1      18.777   2.538  30.591  1.00  0.00     0.221 A 
HETATM    8  C7  UNK     1      18.841   4.907  29.816  1.00  0.00     0.018 A 
HETATM    9  C8  UNK     1      18.170   5.776  32.388  1.00  0.00     0.038 A 
HETATM   10  C11 UNK     1      18.705   6.270  30.082  1.00  0.00     0.001 A 
HETATM   11  C12 UNK     1      18.369   6.704  31.365  1.00  0.00     0.003 A 
ENDROOT
BRANCH   3  12
HETATM   12  C5  UNK     1      17.992   1.377  34.144  1.00  0.00     0.001 A 
HETATM   13  C10 UNK     1      18.723   1.613  35.309  1.00  0.00     0.017 A 
HETATM   14  C14 UNK     1      18.488   0.843  36.449  1.00  0.00     0.037 A 
HETATM   15  C15 UNK     1      17.523  -0.164  36.424  1.00  0.00     0.068 A 
HETATM   16  C13 UNK     1      16.792  -0.401  35.259  1.00  0.00     0.037 A 
HETATM   17  C9  UNK     1      17.027   0.369  34.120  1.00  0.00     0.017 A 
BRANCH  15  18
HETATM   18  O4  UNK     1      17.294  -0.916  37.534  1.00  0.00    -0.356 OA
HETATM   19  C19 UNK     1      18.358  -1.755  37.981  1.00  0.00     0.210 C 
ENDBRANCH  15  18
ENDBRANCH   3  12
BRANCH   5  20
HETATM   20  O2  UNK     1      18.649   0.283  31.552  1.00  0.00    -0.337 OA
BRANCH  20  21
HETATM   21  C16 UNK     1      20.004  -0.113  31.459  1.00  0.00     0.253 C 
BRANCH  21  22
HETATM   22  C17 UNK     1      20.176  -1.192  30.410  1.00  0.00     0.146 C 
HETATM   23  O5  UNK     1      19.865  -2.364  30.614  1.00  0.00    -0.296 OA
HETATM   24  C18 UNK     1      20.752  -0.752  29.090  1.00  0.00     0.093 C 
ENDBRANCH  21  22
ENDBRANCH  20  21
ENDBRANCH   5  20
TORSDOF 5
ENDMDL
MODEL 4
REMARK VINA RESULT:      -7.8      1.227      5.019
REMARK  5 active torsions:
REMARK  status: ('A' for Active; 'I' for Inactive)
REMARK    1  A    between atoms: C16_21  and  O2_2 
REMARK    2  A    between atoms: C3_8  and  O2_2 
REMARK    3  A    between atoms: C15_20  and  O4_4 
REMARK    4  A    between atoms: C1_6  and  C5_10 
REMARK    5  A    between atoms: C16_21  and  C17_22 
ROOT
HETATM    1  O1  UNK     1      19.287   1.970  30.640  1.00  0.00    -0.306 OA
HETATM    2  O3  UNK     1      18.434  -0.608  33.678  1.00  0.00    -0.284 OA
HETATM    3  C1  UNK     1      18.699   2.408  31.815  1.00  0.00     0.123 A 
HETATM    4  C2  UNK     1      19.334  -0.291  31.521  1.00  0.00     0.051 A 
HETATM    5  C3  UNK     1      18.384   1.612  32.854  1.00  0.00     0.155 A 
HETATM    6  C4  UNK     1      19.597   0.640  30.518  1.00  0.00     0.090 A 
HETATM    7  C6  UNK     1      18.695   0.164  32.766  1.00  0.00     0.221 A 
HETATM    8  C7  UNK     1      19.672  -1.635  31.342  1.00  0.00     0.018 A 
HETATM    9  C8  UNK     1      20.200   0.232  29.328  1.00  0.00     0.038 A 
HETATM   10  C11 UNK     1      20.275  -2.040  30.151  1.00  0.00     0.001 A 
HETATM   11  C12 UNK     1      20.538  -1.109  29.145  1.00  0.00     0.003 A 
ENDROOT
BRANCH   3  12
HETATM   12  C5  UNK     1      18.420   3.854  31.816  1.00  0.00     0.001 A 
HETATM   13  C10 UNK     1      18.803   4.638  30.726  1.00  0.00     0.017 A 
HETATM   14  C14 UNK     1      18.540   6.008  30.725  1.00  0.00     0.037 A 
HETATM   15  C15 UNK     1      17.895   6.595  31.814  1.00  0.00     0.068 A 
HETATM   16  C13 UNK     1      17.513   5.812  32.904  1.00  0.00     0.037 A 
HETATM   17  C9  UNK     1      17.776   4.442  32.905  1.00  0.00     0.017 A 
BRANCH  15  18
HETATM   18  O4  UNK     1      17.639   7.931  31.815  1.00  0.00    -0.356 OA
HETATM   19  C19 UNK     1      17.403   8.546  33.080  1.00  0.00     0.210 C 
ENDBRANCH  15  18
ENDBRANCH   3  12
BRANCH   5  20
HETATM   20  O2  UNK     1      17.769   2.074  33.997  1.00  0.00    -0.337 OA
BRANCH  20  21
HETATM   21  C16 UNK     1      18.672   2.081  35.086  1.00  0.00     0.253 C 
BRANCH  21  22
HETATM   22  C17 UNK     1      17.978   1.641  36.358  1.00  0.00     0.146 C 
HETATM   23  O5  UNK     1      18.437   1.876  37.474  1.00  0.00    -0.296 OA
HETATM   24  C18 UNK     1      16.683   0.892  36.186  1.00  0.00     0.093 C 
ENDBRANCH  21  22
ENDBRANCH  20  21
ENDBRANCH   5  20
TORSDOF 5
ENDMDL
MODEL 5
REMARK VINA RESULT:      -7.7      1.899      5.683
REMARK  5 active torsions:
REMARK  status: ('A' for Active; 'I' for Inactive)
REMARK    1  A    between atoms: C16_21  and  O2_2 
REMARK    2  A    between atoms: C3_8  and  O2_2 
REMARK    3  A    between atoms: C15_20  and  O4_4 
REMARK    4  A    between atoms: C1_6  and  C5_10 
REMARK    5  A    between atoms: C16_21  and  C17_22 
ROOT
HETATM    1  O1  UNK     1      17.977   2.984  34.899  1.00  0.00    -0.306 OA
HETATM    2  O3  UNK     1      18.759   0.169  32.059  1.00  0.00    -0.284 OA
HETATM    3  C1  UNK     1      18.254   3.337  33.589  1.00  0.00     0.123 A 
HETATM    4  C2  UNK     1      18.210   0.642  34.303  1.00  0.00     0.051 A 
HETATM    5  C3  UNK     1      18.527   2.462  32.604  1.00  0.00     0.155 A 
HETATM    6  C4  UNK     1      17.954   1.653  35.228  1.00  0.00     0.090 A 
HETATM    7  C6  UNK     1      18.520   1.012  32.913  1.00  0.00     0.221 A 
HETATM    8  C7  UNK     1      18.173  -0.698  34.694  1.00  0.00     0.018 A 
HETATM    9  C8  UNK     1      17.661   1.328  36.553  1.00  0.00     0.038 A 
HETATM   10  C11 UNK     1      17.878  -1.020  36.019  1.00  0.00     0.001 A 
HETATM   11  C12 UNK     1      17.623  -0.010  36.947  1.00  0.00     0.003 A 
ENDROOT
BRANCH   3  12
HETATM   12  C5  UNK     1      18.246   4.794  33.372  1.00  0.00     0.001 A 
HETATM   13  C10 UNK     1      17.203   5.387  32.659  1.00  0.00     0.017 A 
HETATM   14  C14 UNK     1      17.194   6.767  32.452  1.00  0.00     0.037 A 
HETATM   15  C15 UNK     1      18.228   7.554  32.958  1.00  0.00     0.068 A 
HETATM   16  C13 UNK     1      19.272   6.962  33.670  1.00  0.00     0.037 A 
HETATM   17  C9  UNK     1      19.280   5.582  33.876  1.00  0.00     0.017 A 
BRANCH  15  18
HETATM   18  O4  UNK     1      18.221   8.899  32.757  1.00  0.00    -0.356 OA
HETATM   19  C19 UNK     1      18.024   9.727  33.902  1.00  0.00     0.210 C 
ENDBRANCH  15  18
ENDBRANCH   3  12
BRANCH   5  20
HETATM   20  O2  UNK     1      18.831   2.849  31.316  1.00  0.00    -0.337 OA
BRANCH  20  21
HETATM   21  C16 UNK     1      17.752   2.579  30.442  1.00  0.00     0.253 C 
BRANCH  21  22
HETATM   22  C17 UNK     1      18.260   2.080  29.105  1.00  0.00     0.146 C 
HETATM   23  O5  UNK     1      17.833   2.512  28.036  1.00  0.00    -0.296 OA
HETATM   24  C18 UNK     1      19.325   1.017  29.151  1.00  0.00     0.093 C 
ENDBRANCH  21  22
ENDBRANCH  20  21
ENDBRANCH   5  20
TORSDOF 5
ENDMDL
MODEL 6
REMARK VINA RESULT:      -7.4     23.662     25.853
REMARK  5 active torsions:
REMARK  status: ('A' for Active; 'I' for Inactive)
REMARK    1  A    between atoms: C16_21  and  O2_2 
REMARK    2  A    between atoms: C3_8  and  O2_2 
REMARK    3  A    between atoms: C15_20  and  O4_4 
REMARK    4  A    between atoms: C1_6  and  C5_10 
REMARK    5  A    between atoms: C16_21  and  C17_22 
ROOT
HETATM    1  O1  UNK     1      12.726   7.607   7.597  1.00  0.00    -0.306 OA
HETATM    2  O3  UNK     1       9.557   8.296  10.064  1.00  0.00    -0.284 OA
HETATM    3  C1  UNK     1      12.876   8.289   8.794  1.00  0.00     0.123 A 
HETATM    4  C2  UNK     1      10.356   7.347   8.058  1.00  0.00     0.051 A 
HETATM    5  C3  UNK     1      11.874   8.557   9.651  1.00  0.00     0.155 A 
HETATM    6  C4  UNK     1      11.479   7.147   7.258  1.00  0.00     0.090 A 
HETATM    7  C6  UNK     1      10.507   8.084   9.323  1.00  0.00     0.221 A 
HETATM    8  C7  UNK     1       9.111   6.856   7.662  1.00  0.00     0.018 A 
HETATM    9  C8  UNK     1      11.362   6.454   6.053  1.00  0.00     0.038 A 
HETATM   10  C11 UNK     1       8.996   6.162   6.457  1.00  0.00     0.001 A 
HETATM   11  C12 UNK     1      10.119   5.962   5.653  1.00  0.00     0.003 A 
ENDROOT
BRANCH   3  12
HETATM   12  C5  UNK     1      14.262   8.725   9.037  1.00  0.00     0.001 A 
HETATM   13  C10 UNK     1      15.100   7.962   9.851  1.00  0.00     0.017 A 
HETATM   14  C14 UNK     1      16.413   8.375  10.082  1.00  0.00     0.037 A 
HETATM   15  C15 UNK     1      16.887   9.550   9.501  1.00  0.00     0.068 A 
HETATM   16  C13 UNK     1      16.049  10.314   8.688  1.00  0.00     0.037 A 
HETATM   17  C9  UNK     1      14.737   9.902   8.457  1.00  0.00     0.017 A 
BRANCH  15  18
HETATM   18  O4  UNK     1      18.167   9.954   9.726  1.00  0.00    -0.356 OA
HETATM   19  C19 UNK     1      18.407  11.360   9.762  1.00  0.00     0.210 C 
ENDBRANCH  15  18
ENDBRANCH   3  12
BRANCH   5  20
HETATM   20  O2  UNK     1      12.052   9.267  10.819  1.00  0.00    -0.337 OA
BRANCH  20  21
HETATM   21  C16 UNK     1      11.736  10.632  10.630  1.00  0.00     0.253 C 
BRANCH  21  22
HETATM   22  C17 UNK     1      12.880  11.514  11.088  1.00  0.00     0.146 C 
HETATM   23  O5  UNK     1      13.008  12.677  10.708  1.00  0.00    -0.296 OA
HETATM   24  C18 UNK     1      13.863  10.889  12.042  1.00  0.00     0.093 C 
ENDBRANCH  21  22
ENDBRANCH  20  21
ENDBRANCH   5  20
TORSDOF 5
ENDMDL
MODEL 7
REMARK VINA RESULT:      -7.3     23.596     26.008
REMARK  5 active torsions:
REMARK  status: ('A' for Active; 'I' for Inactive)
REMARK    1  A    between atoms: C16_21  and  O2_2 
REMARK    2  A    between atoms: C3_8  and  O2_2 
REMARK    3  A    between atoms: C15_20  and  O4_4 
REMARK    4  A    between atoms: C1_6  and  C5_10 
REMARK    5  A    between atoms: C16_21  and  C17_22 
ROOT
HETATM    1  O1  UNK     1      14.522   9.843   7.888  1.00  0.00    -0.306 OA
HETATM    2  O3  UNK     1      17.142   8.824  10.836  1.00  0.00    -0.284 OA
HETATM    3  C1  UNK     1      14.356   8.687   8.634  1.00  0.00     0.123 A 
HETATM    4  C2  UNK     1      16.516  10.368   9.167  1.00  0.00     0.051 A 
HETATM    5  C3  UNK     1      15.186   8.288   9.615  1.00  0.00     0.155 A 
HETATM    6  C4  UNK     1      15.587  10.659   8.170  1.00  0.00     0.090 A 
HETATM    7  C6  UNK     1      16.355   9.135   9.953  1.00  0.00     0.221 A 
HETATM    8  C7  UNK     1      17.583  11.236   9.411  1.00  0.00     0.018 A 
HETATM    9  C8  UNK     1      15.720  11.820   7.409  1.00  0.00     0.038 A 
HETATM   10  C11 UNK     1      17.713  12.398   8.650  1.00  0.00     0.001 A 
HETATM   11  C12 UNK     1      16.784  12.690   7.651  1.00  0.00     0.003 A 
ENDROOT
BRANCH   3  12
HETATM   12  C5  UNK     1      13.176   7.905   8.229  1.00  0.00     0.001 A 
HETATM   13  C10 UNK     1      11.968   8.065   8.909  1.00  0.00     0.017 A 
HETATM   14  C14 UNK     1      10.848   7.324   8.527  1.00  0.00     0.037 A 
HETATM   15  C15 UNK     1      10.937   6.423   7.466  1.00  0.00     0.068 A 
HETATM   16  C13 UNK     1      12.146   6.263   6.786  1.00  0.00     0.037 A 
HETATM   17  C9  UNK     1      13.264   7.003   7.169  1.00  0.00     0.017 A 
BRANCH  15  18
HETATM   18  O4  UNK     1       9.847   5.700   7.093  1.00  0.00    -0.356 OA
HETATM   19  C19 UNK     1       8.570   6.205   7.478  1.00  0.00     0.210 C 
ENDBRANCH  15  18
ENDBRANCH   3  12
BRANCH   5  20
HETATM   20  O2  UNK     1      15.010   7.115  10.317  1.00  0.00    -0.337 OA
BRANCH  20  21
HETATM   21  C16 UNK     1      15.894   6.113   9.852  1.00  0.00     0.253 C 
BRANCH  21  22
HETATM   22  C17 UNK     1      15.213   4.760   9.848  1.00  0.00     0.146 C 
HETATM   23  O5  UNK     1      15.845   3.705   9.826  1.00  0.00    -0.296 OA
HETATM   24  C18 UNK     1      13.708   4.771   9.871  1.00  0.00     0.093 C 
ENDBRANCH  21  22
ENDBRANCH  20  21
ENDBRANCH   5  20
TORSDOF 5
ENDMDL
MODEL 8
REMARK VINA RESULT:      -7.3      4.103      5.445
REMARK  5 active torsions:
REMARK  status: ('A' for Active; 'I' for Inactive)
REMARK    1  A    between atoms: C16_21  and  O2_2 
REMARK    2  A    between atoms: C3_8  and  O2_2 
REMARK    3  A    between atoms: C15_20  and  O4_4 
REMARK    4  A    between atoms: C1_6  and  C5_10 
REMARK    5  A    between atoms: C16_21  and  C17_22 
ROOT
HETATM    1  O1  UNK     1      20.296  -2.630  33.114  1.00  0.00    -0.306 OA
HETATM    2  O3  UNK     1      18.158   0.830  33.366  1.00  0.00    -0.284 OA
HETATM    3  C1  UNK     1      19.722  -2.220  34.307  1.00  0.00     0.123 A 
HETATM    4  C2  UNK     1      19.396  -0.659  32.019  1.00  0.00     0.051 A 
HETATM    5  C3  UNK     1      19.011  -1.088  34.462  1.00  0.00     0.155 A 
HETATM    6  C4  UNK     1      20.118  -1.851  32.000  1.00  0.00     0.090 A 
HETATM    7  C6  UNK     1      18.797  -0.210  33.286  1.00  0.00     0.221 A 
HETATM    8  C7  UNK     1      19.247   0.095  30.853  1.00  0.00     0.018 A 
HETATM    9  C8  UNK     1      20.698  -2.296  30.812  1.00  0.00     0.038 A 
HETATM   10  C11 UNK     1      19.827  -0.353  29.666  1.00  0.00     0.001 A 
HETATM   11  C12 UNK     1      20.552  -1.545  29.645  1.00  0.00     0.003 A 
ENDROOT
BRANCH   3  12
HETATM   12  C5  UNK     1      19.988  -3.146  35.421  1.00  0.00     0.001 A 
HETATM   13  C10 UNK     1      19.833  -4.520  35.238  1.00  0.00     0.017 A 
HETATM   14  C14 UNK     1      20.084  -5.398  36.293  1.00  0.00     0.037 A 
HETATM   15  C15 UNK     1      20.490  -4.902  37.531  1.00  0.00     0.068 A 
HETATM   16  C13 UNK     1      20.644  -3.527  37.716  1.00  0.00     0.037 A 
HETATM   17  C9  UNK     1      20.392  -2.650  36.661  1.00  0.00     0.017 A 
BRANCH  15  18
HETATM   18  O4  UNK     1      20.734  -5.757  38.561  1.00  0.00    -0.356 OA
HETATM   19  C19 UNK     1      19.800  -6.817  38.760  1.00  0.00     0.210 C 
ENDBRANCH  15  18
ENDBRANCH   3  12
BRANCH   5  20
HETATM   20  O2  UNK     1      18.480  -0.693  35.671  1.00  0.00    -0.337 OA
BRANCH  20  21
HETATM   21  C16 UNK     1      17.114  -1.047  35.760  1.00  0.00     0.253 C 
BRANCH  21  22
HETATM   22  C17 UNK     1      16.270   0.163  36.108  1.00  0.00     0.146 C 
HETATM   23  O5  UNK     1      15.221   0.424  35.522  1.00  0.00    -0.296 OA
HETATM   24  C18 UNK     1      16.786   1.038  37.219  1.00  0.00     0.093 C 
ENDBRANCH  21  22
ENDBRANCH  20  21
ENDBRANCH   5  20
TORSDOF 5
ENDMDL
MODEL 9
REMARK VINA RESULT:      -7.3     14.824     19.677
REMARK  5 active torsions:
REMARK  status: ('A' for Active; 'I' for Inactive)
REMARK    1  A    between atoms: C16_21  and  O2_2 
REMARK    2  A    between atoms: C3_8  and  O2_2 
REMARK    3  A    between atoms: C15_20  and  O4_4 
REMARK    4  A    between atoms: C1_6  and  C5_10 
REMARK    5  A    between atoms: C16_21  and  C17_22 
ROOT
HETATM    1  O1  UNK     1      19.526   0.746  15.042  1.00  0.00    -0.306 OA
HETATM    2  O3  UNK     1      18.718  -1.546  18.312  1.00  0.00    -0.284 OA
HETATM    3  C1  UNK     1      19.423  -0.633  14.951  1.00  0.00     0.123 A 
HETATM    4  C2  UNK     1      19.052   0.611  17.419  1.00  0.00     0.051 A 
HETATM    5  C3  UNK     1      19.166  -1.449  15.989  1.00  0.00     0.155 A 
HETATM    6  C4  UNK     1      19.334   1.337  16.264  1.00  0.00     0.090 A 
HETATM    7  C6  UNK     1      18.957  -0.855  17.332  1.00  0.00     0.221 A 
HETATM    8  C7  UNK     1      18.866   1.267  18.638  1.00  0.00     0.018 A 
HETATM    9  C8  UNK     1      19.432   2.728  16.321  1.00  0.00     0.038 A 
HETATM   10  C11 UNK     1      18.963   2.658  18.692  1.00  0.00     0.001 A 
HETATM   11  C12 UNK     1      19.247   3.387  17.537  1.00  0.00     0.003 A 
ENDROOT
BRANCH   3  12
HETATM   12  C5  UNK     1      19.650  -1.138  13.586  1.00  0.00     0.001 A 
HETATM   13  C10 UNK     1      18.629  -1.066  12.637  1.00  0.00     0.017 A 
HETATM   14  C14 UNK     1      18.843  -1.544  11.344  1.00  0.00     0.037 A 
HETATM   15  C15 UNK     1      20.076  -2.095  10.999  1.00  0.00     0.068 A 
HETATM   16  C13 UNK     1      21.097  -2.169  11.948  1.00  0.00     0.037 A 
HETATM   17  C9  UNK     1      20.883  -1.691  13.240  1.00  0.00     0.017 A 
BRANCH  15  18
HETATM   18  O4  UNK     1      20.286  -2.563   9.739  1.00  0.00    -0.356 OA
HETATM   19  C19 UNK     1      21.639  -2.654   9.296  1.00  0.00     0.210 C 
ENDBRANCH  15  18
ENDBRANCH   3  12
BRANCH   5  20
HETATM   20  O2  UNK     1      19.103  -2.821  15.870  1.00  0.00    -0.337 OA
BRANCH  20  21
HETATM   21  C16 UNK     1      17.803  -3.233  15.495  1.00  0.00     0.253 C 
BRANCH  21  22
HETATM   22  C17 UNK     1      17.864  -4.486  14.645  1.00  0.00     0.146 C 
HETATM   23  O5  UNK     1      18.234  -4.469  13.472  1.00  0.00    -0.296 OA
HETATM   24  C18 UNK     1      17.444  -5.767  15.315  1.00  0.00     0.093 C 
ENDBRANCH  21  22
ENDBRANCH  20  21
ENDBRANCH   5  20
TORSDOF 5
ENDMDL
MODEL 10
REMARK VINA RESULT:      -7.3     23.450     25.416
REMARK  5 active torsions:
REMARK  status: ('A' for Active; 'I' for Inactive)
REMARK    1  A    between atoms: C16_21  and  O2_2 
REMARK    2  A    between atoms: C3_8  and  O2_2 
REMARK    3  A    between atoms: C15_20  and  O4_4 
REMARK    4  A    between atoms: C1_6  and  C5_10 
REMARK    5  A    between atoms: C16_21  and  C17_22 
ROOT
HETATM    1  O1  UNK     1      11.136   8.540   9.585  1.00  0.00    -0.306 OA
HETATM    2  O3  UNK     1      11.365   4.793   8.003  1.00  0.00    -0.284 OA
HETATM    3  C1  UNK     1      12.357   7.931   9.344  1.00  0.00     0.123 A 
HETATM    4  C2  UNK     1      10.000   6.578   8.719  1.00  0.00     0.051 A 
HETATM    5  C3  UNK     1      12.505   6.696   8.831  1.00  0.00     0.155 A 
HETATM    6  C4  UNK     1       9.990   7.860   9.265  1.00  0.00     0.090 A 
HETATM    7  C6  UNK     1      11.293   5.919   8.474  1.00  0.00     0.221 A 
HETATM    8  C7  UNK     1       8.801   5.932   8.412  1.00  0.00     0.018 A 
HETATM    9  C8  UNK     1       8.777   8.504   9.509  1.00  0.00     0.038 A 
HETATM   10  C11 UNK     1       7.589   6.579   8.656  1.00  0.00     0.001 A 
HETATM   11  C12 UNK     1       7.576   7.862   9.204  1.00  0.00     0.003 A 
ENDROOT
BRANCH   3  12
HETATM   12  C5  UNK     1      13.505   8.769   9.731  1.00  0.00     0.001 A 
HETATM   13  C10 UNK     1      14.311   9.344   8.748  1.00  0.00     0.017 A 
HETATM   14  C14 UNK     1      15.399  10.138   9.114  1.00  0.00     0.037 A 
HETATM   15  C15 UNK     1      15.680  10.357  10.462  1.00  0.00     0.068 A 
HETATM   16  C13 UNK     1      14.875   9.781  11.446  1.00  0.00     0.037 A 
HETATM   17  C9  UNK     1      13.788   8.987  11.080  1.00  0.00     0.017 A 
BRANCH  15  18
HETATM   18  O4  UNK     1      16.741  11.130  10.820  1.00  0.00    -0.356 OA
HETATM   19  C19 UNK     1      17.786  11.283   9.861  1.00  0.00     0.210 C 
ENDBRANCH  15  18
ENDBRANCH   3  12
BRANCH   5  20
HETATM   20  O2  UNK     1      13.735   6.107   8.633  1.00  0.00    -0.337 OA
BRANCH  20  21
HETATM   21  C16 UNK     1      14.204   5.509   9.826  1.00  0.00     0.253 C 
BRANCH  21  22
HETATM   22  C17 UNK     1      15.709   5.346   9.786  1.00  0.00     0.146 C 
HETATM   23  O5  UNK     1      16.249   4.266   9.555  1.00  0.00    -0.296 OA
HETATM   24  C18 UNK     1      16.522   6.587  10.047  1.00  0.00     0.093 C 
ENDBRANCH  21  22
ENDBRANCH  20  21
ENDBRANCH   5  20
TORSDOF 5
ENDMDL
