MODEL 1
REMARK VINA RESULT:      -8.5      0.000      0.000
REMARK  5 active torsions:
REMARK  status: ('A' for Active; 'I' for Inactive)
REMARK    1  A    between atoms: C13_20  and  O2_2 
REMARK    2  A    between atoms: C9_16  and  O2_2 
REMARK    3  A    between atoms: C5_12  and  N1_6 
REMARK       I    between atoms: C6_13  and  N1_6 
REMARK       I    between atoms: C13_20  and  N2_7 
REMARK    4  A    between atoms: C2_9  and  C6_13 
REMARK    5  A    between atoms: C5_12  and  C9_16 
ROOT
HETATM    1  O3  UNK     1      17.158  -1.762  17.034  1.00  0.00    -0.267 OA
HETATM    2  N1  UNK     1      19.397  -1.124  17.164  1.00  0.00    -0.355 N 
HETATM    3  C6  UNK     1      18.292  -1.698  16.561  1.00  0.00     0.257 C 
HETATM    4  H4  UNK     1      20.299  -1.139  16.699  1.00  0.00     0.162 HD
ENDROOT
BRANCH   3   5
HETATM    5  C2  UNK     1      18.589  -2.255  15.237  1.00  0.00     0.108 A 
HETATM    6  C4  UNK     1      18.333  -3.559  15.073  1.00  0.00     0.037 A 
HETATM    7  C1  UNK     1      18.596  -4.203  13.796  1.00  0.00    -0.001 A 
HETATM    8  C3  UNK     1      19.115  -3.443  12.753  1.00  0.00     0.089 A 
HETATM    9  C7  UNK     1      18.345  -5.560  13.580  1.00  0.00     0.014 A 
HETATM   10  C10 UNK     1      19.390  -3.998  11.506  1.00  0.00     0.038 A 
HETATM   11  O1  UNK     1      19.383  -2.071  12.932  1.00  0.00    -0.274 OA
HETATM   12  C12 UNK     1      19.136  -5.353  11.299  1.00  0.00     0.003 A 
HETATM   13  C11 UNK     1      18.614  -6.132  12.334  1.00  0.00     0.001 A 
HETATM   14  C8  UNK     1      19.141  -1.427  14.142  1.00  0.00     0.304 A 
HETATM   15  O4  UNK     1      19.378  -0.233  14.288  1.00  0.00    -0.259 OA
ENDBRANCH   3   5
BRANCH   2  16
HETATM   16  C5  UNK     1      19.350  -0.507  18.471  1.00  0.00     0.149 C 
BRANCH  16  17
HETATM   17  C9  UNK     1      19.119   0.991  18.373  1.00  0.00     0.200 C 
BRANCH  17  18
HETATM   18  O2  UNK     1      18.771   1.329  17.036  1.00  0.00    -0.303 OA
BRANCH  18  19
HETATM   19  C13 UNK     1      19.094   2.595  16.631  1.00  0.00     0.358 C 
HETATM   20  O5  UNK     1      19.404   2.908  15.486  1.00  0.00    -0.239 OA
HETATM   21  N2  UNK     1      19.027   3.475  17.682  1.00  0.00    -0.346 N 
HETATM   22  H11 UNK     1      18.766   3.167  18.613  1.00  0.00     0.161 HD
HETATM   23  H12 UNK     1      19.237   4.461  17.561  1.00  0.00     0.161 HD
ENDBRANCH  18  19
ENDBRANCH  17  18
ENDBRANCH  16  17
ENDBRANCH   2  16
TORSDOF 5
ENDMDL
MODEL 2
REMARK VINA RESULT:      -8.3     14.773     18.101
REMARK  5 active torsions:
REMARK  status: ('A' for Active; 'I' for Inactive)
REMARK    1  A    between atoms: C13_20  and  O2_2 
REMARK    2  A    between atoms: C9_16  and  O2_2 
REMARK    3  A    between atoms: C5_12  and  N1_6 
REMARK       I    between atoms: C6_13  and  N1_6 
REMARK       I    between atoms: C13_20  and  N2_7 
REMARK    4  A    between atoms: C2_9  and  C6_13 
REMARK    5  A    between atoms: C5_12  and  C9_16 
ROOT
HETATM    1  O3  UNK     1      18.456   1.316  28.702  1.00  0.00    -0.267 OA
HETATM    2  N1  UNK     1      20.058   0.520  30.197  1.00  0.00    -0.355 N 
HETATM    3  C6  UNK     1      19.054   1.373  29.775  1.00  0.00     0.257 C 
HETATM    4  H4  UNK     1      20.506   0.663  31.096  1.00  0.00     0.162 HD
ENDROOT
BRANCH   3   5
HETATM    5  C2  UNK     1      18.735   2.412  30.761  1.00  0.00     0.108 A 
HETATM    6  C4  UNK     1      18.825   3.678  30.337  1.00  0.00     0.037 A 
HETATM    7  C1  UNK     1      18.529   4.778  31.242  1.00  0.00    -0.001 A 
HETATM    8  C3  UNK     1      18.153   4.490  32.550  1.00  0.00     0.089 A 
HETATM    9  C7  UNK     1      18.609   6.114  30.842  1.00  0.00     0.014 A 
HETATM   10  C10 UNK     1      17.857   5.496  33.467  1.00  0.00     0.038 A 
HETATM   11  O1  UNK     1      18.061   3.155  32.991  1.00  0.00    -0.274 OA
HETATM   12  C12 UNK     1      17.940   6.826  33.059  1.00  0.00     0.003 A 
HETATM   13  C11 UNK     1      18.315   7.134  31.750  1.00  0.00     0.001 A 
HETATM   14  C8  UNK     1      18.337   2.082  32.148  1.00  0.00     0.304 A 
HETATM   15  O4  UNK     1      18.255   0.924  32.541  1.00  0.00    -0.259 OA
ENDBRANCH   3   5
BRANCH   2  16
HETATM   16  C5  UNK     1      20.543  -0.583  29.398  1.00  0.00     0.149 C 
BRANCH  16  17
HETATM   17  C9  UNK     1      20.503  -1.890  30.169  1.00  0.00     0.200 C 
BRANCH  17  18
HETATM   18  O2  UNK     1      19.678  -1.737  31.317  1.00  0.00    -0.303 OA
BRANCH  18  19
HETATM   19  C13 UNK     1      20.216  -2.152  32.505  1.00  0.00     0.358 C 
HETATM   20  O5  UNK     1      21.235  -2.827  32.616  1.00  0.00    -0.239 OA
HETATM   21  N2  UNK     1      19.460  -1.712  33.562  1.00  0.00    -0.346 N 
HETATM   22  H11 UNK     1      18.624  -1.156  33.419  1.00  0.00     0.161 HD
HETATM   23  H12 UNK     1      19.715  -1.930  34.521  1.00  0.00     0.161 HD
ENDBRANCH  18  19
ENDBRANCH  17  18
ENDBRANCH  16  17
ENDBRANCH   2  16
TORSDOF 5
ENDMDL
MODEL 3
REMARK VINA RESULT:      -8.2     14.810     16.641
REMARK  5 active torsions:
REMARK  status: ('A' for Active; 'I' for Inactive)
REMARK    1  A    between atoms: C13_20  and  O2_2 
REMARK    2  A    between atoms: C9_16  and  O2_2 
REMARK    3  A    between atoms: C5_12  and  N1_6 
REMARK       I    between atoms: C6_13  and  N1_6 
REMARK       I    between atoms: C13_20  and  N2_7 
REMARK    4  A    between atoms: C2_9  and  C6_13 
REMARK    5  A    between atoms: C5_12  and  C9_16 
ROOT
HETATM    1  O3  UNK     1      18.018   3.129  28.588  1.00  0.00    -0.267 OA
HETATM    2  N1  UNK     1      19.173   4.212  30.299  1.00  0.00    -0.355 N 
HETATM    3  C6  UNK     1      18.660   3.111  29.637  1.00  0.00     0.257 C 
HETATM    4  H4  UNK     1      19.674   4.095  31.174  1.00  0.00     0.162 HD
ENDROOT
BRANCH   3   5
HETATM    5  C2  UNK     1      18.957   1.846  30.318  1.00  0.00     0.108 A 
HETATM    6  C4  UNK     1      19.588   0.916  29.590  1.00  0.00     0.037 A 
HETATM    7  C1  UNK     1      19.926  -0.371  30.178  1.00  0.00    -0.001 A 
HETATM    8  C3  UNK     1      19.582  -0.617  31.503  1.00  0.00     0.089 A 
HETATM    9  C7  UNK     1      20.583  -1.369  29.455  1.00  0.00     0.014 A 
HETATM   10  C10 UNK     1      19.876  -1.828  32.125  1.00  0.00     0.038 A 
HETATM   11  O1  UNK     1      18.918   0.366  32.264  1.00  0.00    -0.274 OA
HETATM   12  C12 UNK     1      20.533  -2.818  31.397  1.00  0.00     0.003 A 
HETATM   13  C11 UNK     1      20.886  -2.590  30.065  1.00  0.00     0.001 A 
HETATM   14  C8  UNK     1      18.583   1.607  31.730  1.00  0.00     0.304 A 
HETATM   15  O4  UNK     1      18.004   2.454  32.400  1.00  0.00    -0.259 OA
ENDBRANCH   3   5
BRANCH   2  16
HETATM   16  C5  UNK     1      19.011   5.566  29.819  1.00  0.00     0.149 C 
BRANCH  16  17
HETATM   17  C9  UNK     1      18.835   6.547  30.965  1.00  0.00     0.200 C 
BRANCH  17  18
HETATM   18  O2  UNK     1      17.491   6.498  31.428  1.00  0.00    -0.303 OA
BRANCH  18  19
HETATM   19  C13 UNK     1      16.882   7.705  31.637  1.00  0.00     0.358 C 
HETATM   20  O5  UNK     1      16.275   8.342  30.782  1.00  0.00    -0.239 OA
HETATM   21  N2  UNK     1      17.041   8.112  32.938  1.00  0.00    -0.346 N 
HETATM   22  H11 UNK     1      17.553   7.549  33.608  1.00  0.00     0.161 HD
HETATM   23  H12 UNK     1      16.652   8.989  33.269  1.00  0.00     0.161 HD
ENDBRANCH  18  19
ENDBRANCH  17  18
ENDBRANCH  16  17
ENDBRANCH   2  16
TORSDOF 5
ENDMDL
MODEL 4
REMARK VINA RESULT:      -8.1     14.302     16.585
REMARK  5 active torsions:
REMARK  status: ('A' for Active; 'I' for Inactive)
REMARK    1  A    between atoms: C13_20  and  O2_2 
REMARK    2  A    between atoms: C9_16  and  O2_2 
REMARK    3  A    between atoms: C5_12  and  N1_6 
REMARK       I    between atoms: C6_13  and  N1_6 
REMARK       I    between atoms: C13_20  and  N2_7 
REMARK    4  A    between atoms: C2_9  and  C6_13 
REMARK    5  A    between atoms: C5_12  and  C9_16 
ROOT
HETATM    1  O3  UNK     1      17.592   3.658  32.598  1.00  0.00    -0.267 OA
HETATM    2  N1  UNK     1      18.765   4.997  31.093  1.00  0.00    -0.355 N 
HETATM    3  C6  UNK     1      18.279   3.800  31.588  1.00  0.00     0.257 C 
HETATM    4  H4  UNK     1      19.343   5.008  30.259  1.00  0.00     0.162 HD
ENDROOT
BRANCH   3   5
HETATM    5  C2  UNK     1      18.666   2.645  30.771  1.00  0.00     0.108 A 
HETATM    6  C4  UNK     1      19.125   1.577  31.435  1.00  0.00     0.037 A 
HETATM    7  C1  UNK     1      19.534   0.383  30.711  1.00  0.00    -0.001 A 
HETATM    8  C3  UNK     1      19.440   0.372  29.323  1.00  0.00     0.089 A 
HETATM    9  C7  UNK     1      20.019  -0.753  31.363  1.00  0.00     0.014 A 
HETATM   10  C10 UNK     1      19.816  -0.738  28.571  1.00  0.00     0.038 A 
HETATM   11  O1  UNK     1      18.956   1.499  28.630  1.00  0.00    -0.274 OA
HETATM   12  C12 UNK     1      20.298  -1.868  29.229  1.00  0.00     0.003 A 
HETATM   13  C11 UNK     1      20.399  -1.875  30.622  1.00  0.00     0.001 A 
HETATM   14  C8  UNK     1      18.557   2.655  29.295  1.00  0.00     0.304 A 
HETATM   15  O4  UNK     1      18.138   3.631  28.682  1.00  0.00    -0.259 OA
ENDBRANCH   3   5
BRANCH   2  16
HETATM   16  C5  UNK     1      18.513   6.272  31.726  1.00  0.00     0.149 C 
BRANCH  16  17
HETATM   17  C9  UNK     1      17.225   6.899  31.223  1.00  0.00     0.200 C 
BRANCH  17  18
HETATM   18  O2  UNK     1      16.241   6.845  32.248  1.00  0.00    -0.303 OA
BRANCH  18  19
HETATM   19  C13 UNK     1      15.011   7.355  31.931  1.00  0.00     0.358 C 
HETATM   20  O5  UNK     1      14.007   6.683  31.716  1.00  0.00    -0.239 OA
HETATM   21  N2  UNK     1      15.050   8.726  31.882  1.00  0.00    -0.346 N 
HETATM   22  H11 UNK     1      15.906   9.237  32.068  1.00  0.00     0.161 HD
HETATM   23  H12 UNK     1      14.223   9.271  31.660  1.00  0.00     0.161 HD
ENDBRANCH  18  19
ENDBRANCH  17  18
ENDBRANCH  16  17
ENDBRANCH   2  16
TORSDOF 5
ENDMDL
MODEL 5
REMARK VINA RESULT:      -8.1     14.312     16.697
REMARK  5 active torsions:
REMARK  status: ('A' for Active; 'I' for Inactive)
REMARK    1  A    between atoms: C13_20  and  O2_2 
REMARK    2  A    between atoms: C9_16  and  O2_2 
REMARK    3  A    between atoms: C5_12  and  N1_6 
REMARK       I    between atoms: C6_13  and  N1_6 
REMARK       I    between atoms: C13_20  and  N2_7 
REMARK    4  A    between atoms: C2_9  and  C6_13 
REMARK    5  A    between atoms: C5_12  and  C9_16 
ROOT
HETATM    1  O3  UNK     1      17.504   3.628  31.947  1.00  0.00    -0.267 OA
HETATM    2  N1  UNK     1      18.924   4.676  30.424  1.00  0.00    -0.355 N 
HETATM    3  C6  UNK     1      18.313   3.588  31.022  1.00  0.00     0.257 C 
HETATM    4  H4  UNK     1      19.596   4.538  29.676  1.00  0.00     0.162 HD
ENDROOT
BRANCH   3   5
HETATM    5  C2  UNK     1      18.724   2.309  30.435  1.00  0.00     0.108 A 
HETATM    6  C4  UNK     1      19.248   1.411  31.279  1.00  0.00     0.037 A 
HETATM    7  C1  UNK     1      19.686   0.113  30.790  1.00  0.00    -0.001 A 
HETATM    8  C3  UNK     1      19.552  -0.177  29.436  1.00  0.00     0.089 A 
HETATM    9  C7  UNK     1      20.238  -0.853  31.635  1.00  0.00     0.014 A 
HETATM   10  C10 UNK     1      19.952  -1.401  28.904  1.00  0.00     0.038 A 
HETATM   11  O1  UNK     1      19.000   0.772  28.552  1.00  0.00    -0.274 OA
HETATM   12  C12 UNK     1      20.501  -2.359  29.754  1.00  0.00     0.003 A 
HETATM   13  C11 UNK     1      20.644  -2.086  31.117  1.00  0.00     0.001 A 
HETATM   14  C8  UNK     1      18.571   2.022  28.991  1.00  0.00     0.304 A 
HETATM   15  O4  UNK     1      18.093   2.840  28.214  1.00  0.00    -0.259 OA
ENDBRANCH   3   5
BRANCH   2  16
HETATM   16  C5  UNK     1      18.675   6.041  30.829  1.00  0.00     0.149 C 
BRANCH  16  17
HETATM   17  C9  UNK     1      19.543   6.440  32.009  1.00  0.00     0.200 C 
BRANCH  17  18
HETATM   18  O2  UNK     1      18.762   7.170  32.946  1.00  0.00    -0.303 OA
BRANCH  18  19
HETATM   19  C13 UNK     1      18.067   6.427  33.861  1.00  0.00     0.358 C 
HETATM   20  O5  UNK     1      16.936   6.684  34.261  1.00  0.00    -0.239 OA
HETATM   21  N2  UNK     1      18.809   5.349  34.277  1.00  0.00    -0.346 N 
HETATM   22  H11 UNK     1      19.741   5.180  33.916  1.00  0.00     0.161 HD
HETATM   23  H12 UNK     1      18.446   4.689  34.957  1.00  0.00     0.161 HD
ENDBRANCH  18  19
ENDBRANCH  17  18
ENDBRANCH  16  17
ENDBRANCH   2  16
TORSDOF 5
ENDMDL
MODEL 6
REMARK VINA RESULT:      -8.0     19.948     21.838
REMARK  5 active torsions:
REMARK  status: ('A' for Active; 'I' for Inactive)
REMARK    1  A    between atoms: C13_20  and  O2_2 
REMARK    2  A    between atoms: C9_16  and  O2_2 
REMARK    3  A    between atoms: C5_12  and  N1_6 
REMARK       I    between atoms: C6_13  and  N1_6 
REMARK       I    between atoms: C13_20  and  N2_7 
REMARK    4  A    between atoms: C2_9  and  C6_13 
REMARK    5  A    between atoms: C5_12  and  C9_16 
ROOT
HETATM    1  O3  UNK     1      21.122  -4.751  37.105  1.00  0.00    -0.267 OA
HETATM    2  N1  UNK     1      19.823  -5.430  35.292  1.00  0.00    -0.355 N 
HETATM    3  C6  UNK     1      20.332  -4.512  36.194  1.00  0.00     0.257 C 
HETATM    4  H4  UNK     1      19.158  -5.137  34.584  1.00  0.00     0.162 HD
ENDROOT
BRANCH   3   5
HETATM    5  C2  UNK     1      19.832  -3.152  35.965  1.00  0.00     0.108 A 
HETATM    6  C4  UNK     1      19.133  -2.602  36.966  1.00  0.00     0.037 A 
HETATM    7  C1  UNK     1      18.596  -1.257  36.834  1.00  0.00    -0.001 A 
HETATM    8  C3  UNK     1      18.821  -0.556  35.654  1.00  0.00     0.089 A 
HETATM    9  C7  UNK     1      17.860  -0.646  37.852  1.00  0.00     0.014 A 
HETATM   10  C10 UNK     1      18.333   0.735  35.463  1.00  0.00     0.038 A 
HETATM   11  O1  UNK     1      19.558  -1.139  34.604  1.00  0.00    -0.274 OA
HETATM   12  C12 UNK     1      17.601   1.338  36.484  1.00  0.00     0.003 A 
HETATM   13  C11 UNK     1      17.365   0.649  37.676  1.00  0.00     0.001 A 
HETATM   14  C8  UNK     1      20.085  -2.423  34.701  1.00  0.00     0.304 A 
HETATM   15  O4  UNK     1      20.724  -2.922  33.782  1.00  0.00    -0.259 OA
ENDBRANCH   3   5
BRANCH   2  16
HETATM   16  C5  UNK     1      20.171  -6.833  35.316  1.00  0.00     0.149 C 
BRANCH  16  17
HETATM   17  C9  UNK     1      19.006  -7.690  35.776  1.00  0.00     0.200 C 
BRANCH  17  18
HETATM   18  O2  UNK     1      17.864  -7.404  34.978  1.00  0.00    -0.303 OA
BRANCH  18  19
HETATM   19  C13 UNK     1      16.808  -6.821  35.624  1.00  0.00     0.358 C 
HETATM   20  O5  UNK     1      16.884  -6.218  36.689  1.00  0.00    -0.239 OA
HETATM   21  N2  UNK     1      15.645  -7.004  34.919  1.00  0.00    -0.346 N 
HETATM   22  H11 UNK     1      15.634  -7.512  34.042  1.00  0.00     0.161 HD
HETATM   23  H12 UNK     1      14.760  -6.636  35.255  1.00  0.00     0.161 HD
ENDBRANCH  18  19
ENDBRANCH  17  18
ENDBRANCH  16  17
ENDBRANCH   2  16
TORSDOF 5
ENDMDL
MODEL 7
REMARK VINA RESULT:      -8.0     19.853     21.866
REMARK  5 active torsions:
REMARK  status: ('A' for Active; 'I' for Inactive)
REMARK    1  A    between atoms: C13_20  and  O2_2 
REMARK    2  A    between atoms: C9_16  and  O2_2 
REMARK    3  A    between atoms: C5_12  and  N1_6 
REMARK       I    between atoms: C6_13  and  N1_6 
REMARK       I    between atoms: C13_20  and  N2_7 
REMARK    4  A    between atoms: C2_9  and  C6_13 
REMARK    5  A    between atoms: C5_12  and  C9_16 
ROOT
HETATM    1  O3  UNK     1      21.022  -4.421  37.061  1.00  0.00    -0.267 OA
HETATM    2  N1  UNK     1      18.821  -5.017  36.574  1.00  0.00    -0.355 N 
HETATM    3  C6  UNK     1      19.882  -4.137  36.700  1.00  0.00     0.257 C 
HETATM    4  H4  UNK     1      17.908  -4.680  36.286  1.00  0.00     0.162 HD
ENDROOT
BRANCH   3   5
HETATM    5  C2  UNK     1      19.523  -2.758  36.350  1.00  0.00     0.108 A 
HETATM    6  C4  UNK     1      18.808  -2.083  37.260  1.00  0.00     0.037 A 
HETATM    7  C1  UNK     1      18.404  -0.710  37.003  1.00  0.00    -0.001 A 
HETATM    8  C3  UNK     1      18.772  -0.113  35.802  1.00  0.00     0.089 A 
HETATM    9  C7  UNK     1      17.658   0.031  37.923  1.00  0.00     0.014 A 
HETATM   10  C10 UNK     1      18.417   1.198  35.494  1.00  0.00     0.038 A 
HETATM   11  O1  UNK     1      19.525  -0.828  34.849  1.00  0.00    -0.274 OA
HETATM   12  C12 UNK     1      17.673   1.930  36.418  1.00  0.00     0.003 A 
HETATM   13  C11 UNK     1      17.295   1.348  37.630  1.00  0.00     0.001 A 
HETATM   14  C8  UNK     1      19.926  -2.143  35.066  1.00  0.00     0.304 A 
HETATM   15  O4  UNK     1      20.580  -2.757  34.230  1.00  0.00    -0.259 OA
ENDBRANCH   3   5
BRANCH   2  16
HETATM   16  C5  UNK     1      18.932  -6.430  36.860  1.00  0.00     0.149 C 
BRANCH  16  17
HETATM   17  C9  UNK     1      18.976  -7.255  35.586  1.00  0.00     0.200 C 
BRANCH  17  18
HETATM   18  O2  UNK     1      19.851  -6.636  34.651  1.00  0.00    -0.303 OA
BRANCH  18  19
HETATM   19  C13 UNK     1      20.664  -7.477  33.940  1.00  0.00     0.358 C 
HETATM   20  O5  UNK     1      20.962  -7.331  32.759  1.00  0.00    -0.239 OA
HETATM   21  N2  UNK     1      21.104  -8.511  34.728  1.00  0.00    -0.346 N 
HETATM   22  H11 UNK     1      20.829  -8.587  35.701  1.00  0.00     0.161 HD
HETATM   23  H12 UNK     1      21.719  -9.230  34.360  1.00  0.00     0.161 HD
ENDBRANCH  18  19
ENDBRANCH  17  18
ENDBRANCH  16  17
ENDBRANCH   2  16
TORSDOF 5
ENDMDL
MODEL 8
REMARK VINA RESULT:      -7.9     15.475     19.106
REMARK  5 active torsions:
REMARK  status: ('A' for Active; 'I' for Inactive)
REMARK    1  A    between atoms: C13_20  and  O2_2 
REMARK    2  A    between atoms: C9_16  and  O2_2 
REMARK    3  A    between atoms: C5_12  and  N1_6 
REMARK       I    between atoms: C6_13  and  N1_6 
REMARK       I    between atoms: C13_20  and  N2_7 
REMARK    4  A    between atoms: C2_9  and  C6_13 
REMARK    5  A    between atoms: C5_12  and  C9_16 
ROOT
HETATM    1  O3  UNK     1      18.563  -1.733  31.902  1.00  0.00    -0.267 OA
HETATM    2  N1  UNK     1      19.946   0.102  31.506  1.00  0.00    -0.355 N 
HETATM    3  C6  UNK     1      19.023  -0.639  32.223  1.00  0.00     0.257 C 
HETATM    4  H4  UNK     1      20.251   1.008  31.847  1.00  0.00     0.162 HD
ENDROOT
BRANCH   3   5
HETATM    5  C2  UNK     1      18.612   0.016  33.470  1.00  0.00     0.108 A 
HETATM    6  C4  UNK     1      18.666  -0.733  34.578  1.00  0.00     0.037 A 
HETATM    7  C1  UNK     1      18.278  -0.172  35.863  1.00  0.00    -0.001 A 
HETATM    8  C3  UNK     1      17.851   1.150  35.918  1.00  0.00     0.089 A 
HETATM    9  C7  UNK     1      18.319  -0.918  37.043  1.00  0.00     0.014 A 
HETATM   10  C10 UNK     1      17.464   1.747  37.116  1.00  0.00     0.038 A 
HETATM   11  O1  UNK     1      17.795   1.934  34.748  1.00  0.00    -0.274 OA
HETATM   12  C12 UNK     1      17.509   0.996  38.289  1.00  0.00     0.003 A 
HETATM   13  C11 UNK     1      17.935  -0.333  38.253  1.00  0.00     0.001 A 
HETATM   14  C8  UNK     1      18.161   1.426  33.505  1.00  0.00     0.304 A 
HETATM   15  O4  UNK     1      18.108   2.115  32.494  1.00  0.00    -0.259 OA
ENDBRANCH   3   5
BRANCH   2  16
HETATM   16  C5  UNK     1      20.501  -0.339  30.246  1.00  0.00     0.149 C 
BRANCH  16  17
HETATM   17  C9  UNK     1      19.765   0.272  29.067  1.00  0.00     0.200 C 
BRANCH  17  18
HETATM   18  O2  UNK     1      18.600   0.942  29.533  1.00  0.00    -0.303 OA
BRANCH  18  19
HETATM   19  C13 UNK     1      18.401   2.209  29.054  1.00  0.00     0.358 C 
HETATM   20  O5  UNK     1      17.826   2.480  28.005  1.00  0.00    -0.239 OA
HETATM   21  N2  UNK     1      18.935   3.141  29.908  1.00  0.00    -0.346 N 
HETATM   22  H11 UNK     1      19.402   2.866  30.766  1.00  0.00     0.161 HD
HETATM   23  H12 UNK     1      18.877   4.135  29.708  1.00  0.00     0.161 HD
ENDBRANCH  18  19
ENDBRANCH  17  18
ENDBRANCH  16  17
ENDBRANCH   2  16
TORSDOF 5
ENDMDL
MODEL 9
REMARK VINA RESULT:      -7.9     15.806     19.156
REMARK  5 active torsions:
REMARK  status: ('A' for Active; 'I' for Inactive)
REMARK    1  A    between atoms: C13_20  and  O2_2 
REMARK    2  A    between atoms: C9_16  and  O2_2 
REMARK    3  A    between atoms: C5_12  and  N1_6 
REMARK       I    between atoms: C6_13  and  N1_6 
REMARK       I    between atoms: C13_20  and  N2_7 
REMARK    4  A    between atoms: C2_9  and  C6_13 
REMARK    5  A    between atoms: C5_12  and  C9_16 
ROOT
HETATM    1  O3  UNK     1      16.999   2.733  30.828  1.00  0.00    -0.267 OA
HETATM    2  N1  UNK     1      19.305   2.537  30.549  1.00  0.00    -0.355 N 
HETATM    3  C6  UNK     1      18.141   3.174  30.942  1.00  0.00     0.257 C 
HETATM    4  H4  UNK     1      20.203   2.994  30.669  1.00  0.00     0.162 HD
ENDROOT
BRANCH   3   5
HETATM    5  C2  UNK     1      18.386   4.491  31.542  1.00  0.00     0.108 A 
HETATM    6  C4  UNK     1      17.677   4.781  32.640  1.00  0.00     0.037 A 
HETATM    7  C1  UNK     1      17.850   6.063  33.306  1.00  0.00    -0.001 A 
HETATM    8  C3  UNK     1      18.759   6.976  32.784  1.00  0.00     0.089 A 
HETATM    9  C7  UNK     1      17.131   6.408  34.453  1.00  0.00     0.014 A 
HETATM   10  C10 UNK     1      18.971   8.220  33.373  1.00  0.00     0.038 A 
HETATM   11  O1  UNK     1      19.503   6.664  31.628  1.00  0.00    -0.274 OA
HETATM   12  C12 UNK     1      18.251   8.556  34.517  1.00  0.00     0.003 A 
HETATM   13  C11 UNK     1      17.333   7.652  35.056  1.00  0.00     0.001 A 
HETATM   14  C8  UNK     1      19.360   5.446  30.969  1.00  0.00     0.304 A 
HETATM   15  O4  UNK     1      20.010   5.185  29.964  1.00  0.00    -0.259 OA
ENDBRANCH   3   5
BRANCH   2  16
HETATM   16  C5  UNK     1      19.319   1.228  29.936  1.00  0.00     0.149 C 
BRANCH  16  17
HETATM   17  C9  UNK     1      20.134   0.239  30.749  1.00  0.00     0.200 C 
BRANCH  17  18
HETATM   18  O2  UNK     1      19.527   0.061  32.023  1.00  0.00    -0.303 OA
BRANCH  18  19
HETATM   19  C13 UNK     1      19.196  -1.223  32.358  1.00  0.00     0.358 C 
HETATM   20  O5  UNK     1      20.000  -2.131  32.539  1.00  0.00    -0.239 OA
HETATM   21  N2  UNK     1      17.835  -1.362  32.466  1.00  0.00    -0.346 N 
HETATM   22  H11 UNK     1      17.210  -0.580  32.306  1.00  0.00     0.161 HD
HETATM   23  H12 UNK     1      17.412  -2.253  32.708  1.00  0.00     0.161 HD
ENDBRANCH  18  19
ENDBRANCH  17  18
ENDBRANCH  16  17
ENDBRANCH   2  16
TORSDOF 5
ENDMDL
MODEL 10
REMARK VINA RESULT:      -7.8      1.781      2.268
REMARK  5 active torsions:
REMARK  status: ('A' for Active; 'I' for Inactive)
REMARK    1  A    between atoms: C13_20  and  O2_2 
REMARK    2  A    between atoms: C9_16  and  O2_2 
REMARK    3  A    between atoms: C5_12  and  N1_6 
REMARK       I    between atoms: C6_13  and  N1_6 
REMARK       I    between atoms: C13_20  and  N2_7 
REMARK    4  A    between atoms: C2_9  and  C6_13 
REMARK    5  A    between atoms: C5_12  and  C9_16 
ROOT
HETATM    1  O3  UNK     1      17.349  -2.062  16.695  1.00  0.00    -0.267 OA
HETATM    2  N1  UNK     1      19.500  -1.208  16.977  1.00  0.00    -0.355 N 
HETATM    3  C6  UNK     1      18.460  -1.769  16.257  1.00  0.00     0.257 C 
HETATM    4  H4  UNK     1      20.390  -1.020  16.528  1.00  0.00     0.162 HD
ENDROOT
BRANCH   3   5
HETATM    5  C2  UNK     1      18.801  -1.999  14.849  1.00  0.00     0.108 A 
HETATM    6  C4  UNK     1      18.647  -3.251  14.400  1.00  0.00     0.037 A 
HETATM    7  C1  UNK     1      18.960  -3.578  13.018  1.00  0.00    -0.001 A 
HETATM    8  C3  UNK     1      19.419  -2.571  12.175  1.00  0.00     0.089 A 
HETATM    9  C7  UNK     1      18.814  -4.871  12.507  1.00  0.00     0.014 A 
HETATM   10  C10 UNK     1      19.736  -2.818  10.841  1.00  0.00     0.038 A 
HETATM   11  O1  UNK     1      19.578  -1.255  12.653  1.00  0.00    -0.274 OA
HETATM   12  C12 UNK     1      19.588  -4.110  10.340  1.00  0.00     0.003 A 
HETATM   13  C11 UNK     1      19.128  -5.134  11.171  1.00  0.00     0.001 A 
HETATM   14  C8  UNK     1      19.287  -0.912  13.970  1.00  0.00     0.304 A 
HETATM   15  O4  UNK     1      19.430   0.235  14.377  1.00  0.00    -0.259 OA
ENDBRANCH   3   5
BRANCH   2  16
HETATM   16  C5  UNK     1      19.401  -0.887  18.383  1.00  0.00     0.149 C 
BRANCH  16  17
HETATM   17  C9  UNK     1      18.691   0.437  18.605  1.00  0.00     0.200 C 
BRANCH  17  18
HETATM   18  O2  UNK     1      18.207   0.496  19.940  1.00  0.00    -0.303 OA
BRANCH  18  19
HETATM   19  C13 UNK     1      19.052   1.049  20.864  1.00  0.00     0.358 C 
HETATM   20  O5  UNK     1      19.224   2.253  21.025  1.00  0.00    -0.239 OA
HETATM   21  N2  UNK     1      19.687   0.072  21.588  1.00  0.00    -0.346 N 
HETATM   22  H11 UNK     1      19.511  -0.912  21.417  1.00  0.00     0.161 HD
HETATM   23  H12 UNK     1      20.353   0.305  22.319  1.00  0.00     0.161 HD
ENDBRANCH  18  19
ENDBRANCH  17  18
ENDBRANCH  16  17
ENDBRANCH   2  16
TORSDOF 5
ENDMDL
