MODEL 1
REMARK VINA RESULT:      -9.5      0.000      0.000
REMARK  3 active torsions:
REMARK  status: ('A' for Active; 'I' for Inactive)
REMARK    1  A    between atoms: C11_18  and  O4_4 
REMARK       I    between atoms: C10_17  and  N1_7 
REMARK    2  A    between atoms: C2_9  and  N1_7 
REMARK    3  A    between atoms: C10_17  and  C5_12 
ROOT
HETATM    1  O1  UNK     1      19.408  -1.109  34.640  1.00  0.00    -0.271 OA
HETATM    2  O6  UNK     1      20.577  -2.965  34.001  1.00  0.00    -0.259 OA
HETATM    3  C1  UNK     1      18.497  -0.979  36.890  1.00  0.00     0.002 A 
HETATM    4  C3  UNK     1      18.688  -0.416  35.633  1.00  0.00     0.123 A 
HETATM    5  C5  UNK     1      19.734  -2.950  36.216  1.00  0.00     0.108 A 
HETATM    6  C7  UNK     1      19.051  -2.297  37.162  1.00  0.00     0.037 A 
HETATM    7  C11 UNK     1      18.183   0.841  35.307  1.00  0.00     0.102 A 
HETATM    8  C13 UNK     1      17.779  -0.261  37.848  1.00  0.00     0.014 A 
HETATM    9  C14 UNK     1      19.951  -2.369  34.871  1.00  0.00     0.304 A 
HETATM   10  C16 UNK     1      17.468   1.551  36.269  1.00  0.00     0.040 A 
HETATM   11  C17 UNK     1      17.265   1.002  37.537  1.00  0.00     0.004 A 
ENDROOT
BRANCH   5  12
HETATM   12  C10 UNK     1      20.255  -4.272  36.587  1.00  0.00     0.262 C 
HETATM   13  O5  UNK     1      21.264  -4.356  37.284  1.00  0.00    -0.267 OA
HETATM   14  N1  UNK     1      19.485  -5.302  36.067  1.00  0.00    -0.323 N 
HETATM   15  H3  UNK     1      18.685  -5.063  35.486  1.00  0.00     0.169 HD
BRANCH  14  16
HETATM   16  C2  UNK     1      19.689  -6.696  36.219  1.00  0.00     0.037 A 
HETATM   17  C8  UNK     1      20.635  -7.327  35.425  1.00  0.00     0.069 A 
HETATM   18  C4  UNK     1      20.800  -8.684  35.610  1.00  0.00     0.107 A 
HETATM   19  O2  UNK     1      21.670  -9.483  34.933  1.00  0.00    -0.323 OA
HETATM   20  C6  UNK     1      20.063  -9.383  36.538  1.00  0.00     0.105 A 
HETATM   21  C15 UNK     1      21.398 -10.763  35.540  1.00  0.00     0.352 A 
HETATM   22  O3  UNK     1      20.379 -10.707  36.560  1.00  0.00    -0.323 OA
HETATM   23  C12 UNK     1      19.121  -8.764  37.334  1.00  0.00     0.042 A 
HETATM   24  C9  UNK     1      18.934  -7.390  37.166  1.00  0.00     0.032 A 
ENDBRANCH  14  16
ENDBRANCH   5  12
BRANCH   7  25
HETATM   25  O4  UNK     1      18.378   1.380  34.074  1.00  0.00    -0.353 OA
HETATM   26  C18 UNK     1      18.228   2.794  33.951  1.00  0.00     0.210 C 
ENDBRANCH   7  25
TORSDOF 3
ENDMDL
MODEL 2
REMARK VINA RESULT:      -9.5      0.691      1.450
REMARK  3 active torsions:
REMARK  status: ('A' for Active; 'I' for Inactive)
REMARK    1  A    between atoms: C11_18  and  O4_4 
REMARK       I    between atoms: C10_17  and  N1_7 
REMARK    2  A    between atoms: C2_9  and  N1_7 
REMARK    3  A    between atoms: C10_17  and  C5_12 
ROOT
HETATM    1  O1  UNK     1      19.421  -0.972  34.774  1.00  0.00    -0.271 OA
HETATM    2  O6  UNK     1      20.592  -2.844  34.188  1.00  0.00    -0.259 OA
HETATM    3  C1  UNK     1      18.427  -0.821  36.988  1.00  0.00     0.002 A 
HETATM    4  C3  UNK     1      18.672  -0.266  35.736  1.00  0.00     0.123 A 
HETATM    5  C5  UNK     1      19.666  -2.809  36.369  1.00  0.00     0.108 A 
HETATM    6  C7  UNK     1      18.956  -2.143  37.287  1.00  0.00     0.037 A 
HETATM    7  C11 UNK     1      18.194   0.995  35.387  1.00  0.00     0.102 A 
HETATM    8  C13 UNK     1      17.681  -0.091  37.915  1.00  0.00     0.014 A 
HETATM    9  C14 UNK     1      19.941  -2.237  35.031  1.00  0.00     0.304 A 
HETATM   10  C16 UNK     1      17.451   1.718  36.318  1.00  0.00     0.040 A 
HETATM   11  C17 UNK     1      17.195   1.177  37.579  1.00  0.00     0.004 A 
ENDROOT
BRANCH   5  12
HETATM   12  C10 UNK     1      20.157  -4.135  36.766  1.00  0.00     0.262 C 
HETATM   13  O5  UNK     1      21.040  -4.229  37.616  1.00  0.00    -0.267 OA
HETATM   14  N1  UNK     1      19.514  -5.156  36.082  1.00  0.00    -0.323 N 
HETATM   15  H3  UNK     1      18.814  -4.909  35.387  1.00  0.00     0.169 HD
BRANCH  14  16
HETATM   16  C2  UNK     1      19.732  -6.551  36.207  1.00  0.00     0.037 A 
HETATM   17  C8  UNK     1      19.118  -7.236  37.245  1.00  0.00     0.069 A 
HETATM   18  C4  UNK     1      19.359  -8.593  37.325  1.00  0.00     0.107 A 
HETATM   19  O2  UNK     1      18.855  -9.438  38.266  1.00  0.00    -0.323 OA
HETATM   20  C6  UNK     1      20.168  -9.240  36.421  1.00  0.00     0.105 A 
HETATM   21  C15 UNK     1      19.438 -10.690  37.850  1.00  0.00     0.352 A 
HETATM   22  O3  UNK     1      20.273 -10.571  36.680  1.00  0.00    -0.323 OA
HETATM   23  C12 UNK     1      20.782  -8.567  35.384  1.00  0.00     0.042 A 
HETATM   24  C9  UNK     1      20.555  -7.192  35.280  1.00  0.00     0.032 A 
ENDBRANCH  14  16
ENDBRANCH   5  12
BRANCH   7  25
HETATM   25  O4  UNK     1      18.442   1.526  34.160  1.00  0.00    -0.353 OA
HETATM   26  C18 UNK     1      18.282   2.937  34.017  1.00  0.00     0.210 C 
ENDBRANCH   7  25
TORSDOF 3
ENDMDL
MODEL 3
REMARK VINA RESULT:      -9.4      5.662     12.314
REMARK  3 active torsions:
REMARK  status: ('A' for Active; 'I' for Inactive)
REMARK    1  A    between atoms: C11_18  and  O4_4 
REMARK       I    between atoms: C10_17  and  N1_7 
REMARK    2  A    between atoms: C2_9  and  N1_7 
REMARK    3  A    between atoms: C10_17  and  C5_12 
ROOT
HETATM    1  O1  UNK     1      18.728   0.744  32.620  1.00  0.00    -0.271 OA
HETATM    2  O6  UNK     1      17.934   2.646  33.604  1.00  0.00    -0.259 OA
HETATM    3  C1  UNK     1      19.481   0.813  30.309  1.00  0.00     0.002 A 
HETATM    4  C3  UNK     1      19.263   0.103  31.485  1.00  0.00     0.123 A 
HETATM    5  C5  UNK     1      18.637   2.831  31.350  1.00  0.00     0.108 A 
HETATM    6  C7  UNK     1      19.145   2.228  30.269  1.00  0.00     0.037 A 
HETATM    7  C11 UNK     1      19.563  -1.254  31.590  1.00  0.00     0.102 A 
HETATM    8  C13 UNK     1      20.014   0.143  29.206  1.00  0.00     0.014 A 
HETATM    9  C14 UNK     1      18.398   2.096  32.613  1.00  0.00     0.304 A 
HETATM   10  C16 UNK     1      20.095  -1.915  30.485  1.00  0.00     0.040 A 
HETATM   11  C17 UNK     1      20.320  -1.219  29.295  1.00  0.00     0.004 A 
ENDROOT
BRANCH   5  12
HETATM   12  C10 UNK     1      18.332   4.261  31.211  1.00  0.00     0.262 C 
HETATM   13  O5  UNK     1      18.654   4.857  30.184  1.00  0.00    -0.267 OA
HETATM   14  N1  UNK     1      17.682   4.768  32.327  1.00  0.00    -0.323 N 
HETATM   15  H3  UNK     1      17.506   4.143  33.110  1.00  0.00     0.169 HD
BRANCH  14  16
HETATM   16  C2  UNK     1      17.241   6.097  32.541  1.00  0.00     0.037 A 
HETATM   17  C8  UNK     1      18.046   6.964  33.264  1.00  0.00     0.069 A 
HETATM   18  C4  UNK     1      17.575   8.249  33.445  1.00  0.00     0.107 A 
HETATM   19  O2  UNK     1      18.210   9.244  34.123  1.00  0.00    -0.323 OA
HETATM   20  C6  UNK     1      16.364   8.655  32.934  1.00  0.00     0.105 A 
HETATM   21  C15 UNK     1      17.263  10.322  33.979  1.00  0.00     0.352 A 
HETATM   22  O3  UNK     1      16.089   9.955  33.226  1.00  0.00    -0.323 OA
HETATM   23  C12 UNK     1      15.557   7.799  32.212  1.00  0.00     0.042 A 
HETATM   24  C9  UNK     1      16.010   6.493  32.014  1.00  0.00     0.032 A 
ENDBRANCH  14  16
ENDBRANCH   5  12
BRANCH   7  25
HETATM   25  O4  UNK     1      19.346  -1.936  32.746  1.00  0.00    -0.353 OA
HETATM   26  C18 UNK     1      20.488  -2.476  33.407  1.00  0.00     0.210 C 
ENDBRANCH   7  25
TORSDOF 3
ENDMDL
MODEL 4
REMARK VINA RESULT:      -9.3      1.543      8.553
REMARK  3 active torsions:
REMARK  status: ('A' for Active; 'I' for Inactive)
REMARK    1  A    between atoms: C11_18  and  O4_4 
REMARK       I    between atoms: C10_17  and  N1_7 
REMARK    2  A    between atoms: C2_9  and  N1_7 
REMARK    3  A    between atoms: C10_17  and  C5_12 
ROOT
HETATM    1  O1  UNK     1      20.297  -7.405  35.901  1.00  0.00    -0.271 OA
HETATM    2  O6  UNK     1      20.337  -5.395  34.818  1.00  0.00    -0.259 OA
HETATM    3  C1  UNK     1      20.105  -7.459  38.325  1.00  0.00     0.002 A 
HETATM    4  C3  UNK     1      20.217  -8.126  37.109  1.00  0.00     0.123 A 
HETATM    5  C5  UNK     1      20.149  -5.325  37.178  1.00  0.00     0.108 A 
HETATM    6  C7  UNK     1      20.073  -6.005  38.328  1.00  0.00     0.037 A 
HETATM    7  C11 UNK     1      20.253  -9.517  37.036  1.00  0.00     0.102 A 
HETATM    8  C13 UNK     1      20.027  -8.208  39.500  1.00  0.00     0.014 A 
HETATM    9  C14 UNK     1      20.268  -6.014  35.873  1.00  0.00     0.304 A 
HETATM   10  C16 UNK     1      20.175 -10.258  38.213  1.00  0.00     0.040 A 
HETATM   11  C17 UNK     1      20.062  -9.606  39.443  1.00  0.00     0.004 A 
ENDROOT
BRANCH   5  12
HETATM   12  C10 UNK     1      20.108  -3.862  37.286  1.00  0.00     0.262 C 
HETATM   13  O5  UNK     1      21.004  -3.268  37.883  1.00  0.00    -0.267 OA
HETATM   14  N1  UNK     1      18.994  -3.322  36.659  1.00  0.00    -0.323 N 
HETATM   15  H3  UNK     1      18.328  -3.956  36.224  1.00  0.00     0.169 HD
BRANCH  14  16
HETATM   16  C2  UNK     1      18.632  -1.955  36.565  1.00  0.00     0.037 A 
HETATM   17  C8  UNK     1      18.966  -1.249  35.419  1.00  0.00     0.069 A 
HETATM   18  C4  UNK     1      18.592   0.078  35.373  1.00  0.00     0.107 A 
HETATM   19  O2  UNK     1      18.826   0.938  34.344  1.00  0.00    -0.323 OA
HETATM   20  C6  UNK     1      17.919   0.678  36.412  1.00  0.00     0.105 A 
HETATM   21  C15 UNK     1      18.224   2.146  34.853  1.00  0.00     0.352 A 
HETATM   22  O3  UNK     1      17.646   1.988  36.165  1.00  0.00    -0.323 OA
HETATM   23  C12 UNK     1      17.581  -0.017  37.556  1.00  0.00     0.042 A 
HETATM   24  C9  UNK     1      17.949  -1.363  37.628  1.00  0.00     0.032 A 
ENDBRANCH  14  16
ENDBRANCH   5  12
BRANCH   7  25
HETATM   25  O4  UNK     1      20.362 -10.157  35.841  1.00  0.00    -0.353 OA
HETATM   26  C18 UNK     1      21.652 -10.652  35.483  1.00  0.00     0.210 C 
ENDBRANCH   7  25
TORSDOF 3
ENDMDL
MODEL 5
REMARK VINA RESULT:      -9.3      8.099     10.364
REMARK  3 active torsions:
REMARK  status: ('A' for Active; 'I' for Inactive)
REMARK    1  A    between atoms: C11_18  and  O4_4 
REMARK       I    between atoms: C10_17  and  N1_7 
REMARK    2  A    between atoms: C2_9  and  N1_7 
REMARK    3  A    between atoms: C10_17  and  C5_12 
ROOT
HETATM    1  O1  UNK     1      16.846   7.694  32.789  1.00  0.00    -0.271 OA
HETATM    2  O6  UNK     1      15.805   5.863  31.906  1.00  0.00    -0.259 OA
HETATM    3  C1  UNK     1      19.157   7.523  33.525  1.00  0.00     0.002 A 
HETATM    4  C3  UNK     1      18.000   8.275  33.350  1.00  0.00     0.123 A 
HETATM    5  C5  UNK     1      18.056   5.578  32.590  1.00  0.00     0.108 A 
HETATM    6  C7  UNK     1      19.155   6.125  33.121  1.00  0.00     0.037 A 
HETATM    7  C11 UNK     1      17.936   9.619  33.715  1.00  0.00     0.102 A 
HETATM    8  C13 UNK     1      20.282   8.135  34.082  1.00  0.00     0.014 A 
HETATM    9  C14 UNK     1      16.814   6.360  32.393  1.00  0.00     0.304 A 
HETATM   10  C16 UNK     1      19.062  10.222  34.271  1.00  0.00     0.040 A 
HETATM   11  C17 UNK     1      20.233   9.483  34.454  1.00  0.00     0.004 A 
ENDROOT
BRANCH   5  12
HETATM   12  C10 UNK     1      18.153   4.162  32.214  1.00  0.00     0.262 C 
HETATM   13  O5  UNK     1      17.927   3.292  33.052  1.00  0.00    -0.267 OA
HETATM   14  N1  UNK     1      18.507   3.998  30.882  1.00  0.00    -0.323 N 
HETATM   15  H3  UNK     1      18.681   4.828  30.321  1.00  0.00     0.169 HD
BRANCH  14  16
HETATM   16  C2  UNK     1      18.692   2.780  30.182  1.00  0.00     0.037 A 
HETATM   17  C8  UNK     1      19.604   1.856  30.670  1.00  0.00     0.069 A 
HETATM   18  C4  UNK     1      19.750   0.685  29.954  1.00  0.00     0.107 A 
HETATM   19  O2  UNK     1      20.589  -0.340  30.264  1.00  0.00    -0.323 OA
HETATM   20  C6  UNK     1      19.026   0.441  28.810  1.00  0.00     0.105 A 
HETATM   21  C15 UNK     1      20.312  -1.258  29.187  1.00  0.00     0.352 A 
HETATM   22  O3  UNK     1      19.320  -0.768  28.260  1.00  0.00    -0.323 OA
HETATM   23  C12 UNK     1      18.116   1.353  28.318  1.00  0.00     0.042 A 
HETATM   24  C9  UNK     1      17.949   2.548  29.023  1.00  0.00     0.032 A 
ENDBRANCH  14  16
ENDBRANCH   5  12
BRANCH   7  25
HETATM   25  O4  UNK     1      16.799  10.343  33.538  1.00  0.00    -0.353 OA
HETATM   26  C18 UNK     1      15.977  10.555  34.685  1.00  0.00     0.210 C 
ENDBRANCH   7  25
TORSDOF 3
ENDMDL
MODEL 6
REMARK VINA RESULT:      -9.2      8.209     10.361
REMARK  3 active torsions:
REMARK  status: ('A' for Active; 'I' for Inactive)
REMARK    1  A    between atoms: C11_18  and  O4_4 
REMARK       I    between atoms: C10_17  and  N1_7 
REMARK    2  A    between atoms: C2_9  and  N1_7 
REMARK    3  A    between atoms: C10_17  and  C5_12 
ROOT
HETATM    1  O1  UNK     1      19.017   7.810  33.035  1.00  0.00    -0.271 OA
HETATM    2  O6  UNK     1      20.345   6.104  32.299  1.00  0.00    -0.259 OA
HETATM    3  C1  UNK     1      16.649   7.410  33.414  1.00  0.00     0.002 A 
HETATM    4  C3  UNK     1      17.743   8.269  33.422  1.00  0.00     0.123 A 
HETATM    5  C5  UNK     1      18.054   5.599  32.631  1.00  0.00     0.108 A 
HETATM    6  C7  UNK     1      16.842   6.030  32.997  1.00  0.00     0.037 A 
HETATM    7  C11 UNK     1      17.626   9.603  33.810  1.00  0.00     0.102 A 
HETATM    8  C13 UNK     1      15.402   7.902  33.805  1.00  0.00     0.014 A 
HETATM    9  C14 UNK     1      19.233   6.495  32.633  1.00  0.00     0.304 A 
HETATM   10  C16 UNK     1      16.379  10.086  34.199  1.00  0.00     0.040 A 
HETATM   11  C17 UNK     1      15.269   9.239  34.197  1.00  0.00     0.004 A 
ENDROOT
BRANCH   5  12
HETATM   12  C10 UNK     1      18.147   4.190  32.228  1.00  0.00     0.262 C 
HETATM   13  O5  UNK     1      17.924   3.304  33.051  1.00  0.00    -0.267 OA
HETATM   14  N1  UNK     1      18.495   4.050  30.892  1.00  0.00    -0.323 N 
HETATM   15  H3  UNK     1      18.668   4.890  30.346  1.00  0.00     0.169 HD
BRANCH  14  16
HETATM   16  C2  UNK     1      18.675   2.846  30.167  1.00  0.00     0.037 A 
HETATM   17  C8  UNK     1      19.617   1.930  30.611  1.00  0.00     0.069 A 
HETATM   18  C4  UNK     1      19.757   0.772  29.874  1.00  0.00     0.107 A 
HETATM   19  O2  UNK     1      20.622  -0.245  30.140  1.00  0.00    -0.323 OA
HETATM   20  C6  UNK     1      18.998   0.532  28.751  1.00  0.00     0.105 A 
HETATM   21  C15 UNK     1      20.322  -1.152  29.059  1.00  0.00     0.352 A 
HETATM   22  O3  UNK     1      19.293  -0.665  28.174  1.00  0.00    -0.323 OA
HETATM   23  C12 UNK     1      18.058   1.436  28.303  1.00  0.00     0.042 A 
HETATM   24  C9  UNK     1      17.897   2.618  29.031  1.00  0.00     0.032 A 
ENDBRANCH  14  16
ENDBRANCH   5  12
BRANCH   7  25
HETATM   25  O4  UNK     1      18.704  10.431  33.814  1.00  0.00    -0.353 OA
HETATM   26  C18 UNK     1      18.448  11.832  33.908  1.00  0.00     0.210 C 
ENDBRANCH   7  25
TORSDOF 3
ENDMDL
MODEL 7
REMARK VINA RESULT:      -9.1      2.965      4.431
REMARK  3 active torsions:
REMARK  status: ('A' for Active; 'I' for Inactive)
REMARK    1  A    between atoms: C11_18  and  O4_4 
REMARK       I    between atoms: C10_17  and  N1_7 
REMARK    2  A    between atoms: C2_9  and  N1_7 
REMARK    3  A    between atoms: C10_17  and  C5_12 
ROOT
HETATM    1  O1  UNK     1      18.592   0.326  32.871  1.00  0.00    -0.271 OA
HETATM    2  O6  UNK     1      18.020   0.243  35.081  1.00  0.00    -0.259 OA
HETATM    3  C1  UNK     1      19.921  -1.468  31.907  1.00  0.00     0.002 A 
HETATM    4  C3  UNK     1      19.247  -0.259  31.769  1.00  0.00     0.123 A 
HETATM    5  C5  UNK     1      19.317  -1.558  34.252  1.00  0.00     0.108 A 
HETATM    6  C7  UNK     1      19.940  -2.118  33.209  1.00  0.00     0.037 A 
HETATM    7  C11 UNK     1      19.191   0.415  30.551  1.00  0.00     0.102 A 
HETATM    8  C13 UNK     1      20.557  -2.017  30.792  1.00  0.00     0.014 A 
HETATM    9  C14 UNK     1      18.592  -0.272  34.128  1.00  0.00     0.304 A 
HETATM   10  C16 UNK     1      19.828  -0.139  29.442  1.00  0.00     0.040 A 
HETATM   11  C17 UNK     1      20.509  -1.352  29.562  1.00  0.00     0.004 A 
ENDROOT
BRANCH   5  12
HETATM   12  C10 UNK     1      19.392  -2.290  35.522  1.00  0.00     0.262 C 
HETATM   13  O5  UNK     1      19.116  -1.717  36.574  1.00  0.00    -0.267 OA
HETATM   14  N1  UNK     1      19.789  -3.608  35.343  1.00  0.00    -0.323 N 
HETATM   15  H3  UNK     1      20.004  -3.926  34.401  1.00  0.00     0.169 HD
BRANCH  14  16
HETATM   16  C2  UNK     1      19.970  -4.599  36.340  1.00  0.00     0.037 A 
HETATM   17  C8  UNK     1      19.103  -5.681  36.376  1.00  0.00     0.069 A 
HETATM   18  C4  UNK     1      19.319  -6.621  37.363  1.00  0.00     0.107 A 
HETATM   19  O2  UNK     1      18.583  -7.747  37.568  1.00  0.00    -0.323 OA
HETATM   20  C6  UNK     1      20.344  -6.495  38.271  1.00  0.00     0.105 A 
HETATM   21  C15 UNK     1      19.261  -8.316  38.706  1.00  0.00     0.352 A 
HETATM   22  O3  UNK     1      20.380  -7.526  39.158  1.00  0.00    -0.323 OA
HETATM   23  C12 UNK     1      21.213  -5.422  38.242  1.00  0.00     0.042 A 
HETATM   24  C9  UNK     1      21.016  -4.456  37.252  1.00  0.00     0.032 A 
ENDBRANCH  14  16
ENDBRANCH   5  12
BRANCH   7  25
HETATM   25  O4  UNK     1      18.528   1.596  30.430  1.00  0.00    -0.353 OA
HETATM   26  C18 UNK     1      18.111   1.977  29.119  1.00  0.00     0.210 C 
ENDBRANCH   7  25
TORSDOF 3
ENDMDL
MODEL 8
REMARK VINA RESULT:      -8.8     19.427     22.044
REMARK  3 active torsions:
REMARK  status: ('A' for Active; 'I' for Inactive)
REMARK    1  A    between atoms: C11_18  and  O4_4 
REMARK       I    between atoms: C10_17  and  N1_7 
REMARK    2  A    between atoms: C2_9  and  N1_7 
REMARK    3  A    between atoms: C10_17  and  C5_12 
ROOT
HETATM    1  O1  UNK     1      18.319  -4.708  13.668  1.00  0.00    -0.271 OA
HETATM    2  O6  UNK     1      17.478  -4.624  15.790  1.00  0.00    -0.259 OA
HETATM    3  C1  UNK     1      19.259  -2.701  12.669  1.00  0.00     0.002 A 
HETATM    4  C3  UNK     1      18.934  -4.051  12.585  1.00  0.00     0.123 A 
HETATM    5  C5  UNK     1      18.366  -2.608  14.920  1.00  0.00     0.108 A 
HETATM    6  C7  UNK     1      18.950  -1.978  13.894  1.00  0.00     0.037 A 
HETATM    7  C11 UNK     1      19.202  -4.800  11.441  1.00  0.00     0.102 A 
HETATM    8  C13 UNK     1      19.869  -2.084  11.575  1.00  0.00     0.014 A 
HETATM    9  C14 UNK     1      18.013  -4.044  14.853  1.00  0.00     0.304 A 
HETATM   10  C16 UNK     1      19.811  -4.178  10.353  1.00  0.00     0.040 A 
HETATM   11  C17 UNK     1      20.144  -2.823  10.419  1.00  0.00     0.004 A 
ENDROOT
BRANCH   5  12
HETATM   12  C10 UNK     1      18.096  -1.794  16.111  1.00  0.00     0.262 C 
HETATM   13  O5  UNK     1      17.074  -1.990  16.766  1.00  0.00    -0.267 OA
HETATM   14  N1  UNK     1      19.097  -0.861  16.345  1.00  0.00    -0.323 N 
HETATM   15  H3  UNK     1      19.874  -0.811  15.692  1.00  0.00     0.169 HD
BRANCH  14  16
HETATM   16  C2  UNK     1      19.167   0.086  17.397  1.00  0.00     0.037 A 
HETATM   17  C8  UNK     1      19.392  -0.362  18.690  1.00  0.00     0.069 A 
HETATM   18  C4  UNK     1      19.454   0.597  19.680  1.00  0.00     0.107 A 
HETATM   19  O2  UNK     1      19.663   0.364  21.005  1.00  0.00    -0.323 OA
HETATM   20  C6  UNK     1      19.299   1.935  19.403  1.00  0.00     0.105 A 
HETATM   21  C15 UNK     1      19.625   1.707  21.530  1.00  0.00     0.352 A 
HETATM   22  O3  UNK     1      19.394   2.709  20.519  1.00  0.00    -0.323 OA
HETATM   23  C12 UNK     1      19.076   2.390  18.120  1.00  0.00     0.042 A 
HETATM   24  C9  UNK     1      19.009   1.440  17.098  1.00  0.00     0.032 A 
ENDBRANCH  14  16
ENDBRANCH   5  12
BRANCH   7  25
HETATM   25  O4  UNK     1      18.880  -6.119  11.372  1.00  0.00    -0.353 OA
HETATM   26  C18 UNK     1      19.887  -7.011  10.896  1.00  0.00     0.210 C 
ENDBRANCH   7  25
TORSDOF 3
ENDMDL
MODEL 9
REMARK VINA RESULT:      -8.8     18.362     20.003
REMARK  3 active torsions:
REMARK  status: ('A' for Active; 'I' for Inactive)
REMARK    1  A    between atoms: C11_18  and  O4_4 
REMARK       I    between atoms: C10_17  and  N1_7 
REMARK    2  A    between atoms: C2_9  and  N1_7 
REMARK    3  A    between atoms: C10_17  and  C5_12 
ROOT
HETATM    1  O1  UNK     1      19.343   1.716  17.191  1.00  0.00    -0.271 OA
HETATM    2  O6  UNK     1      19.120   0.834  15.096  1.00  0.00    -0.259 OA
HETATM    3  C1  UNK     1      19.184   0.258  19.131  1.00  0.00     0.002 A 
HETATM    4  C3  UNK     1      19.367   1.525  18.587  1.00  0.00     0.123 A 
HETATM    5  C5  UNK     1      18.945  -0.680  16.910  1.00  0.00     0.108 A 
HETATM    6  C7  UNK     1      18.966  -0.867  18.234  1.00  0.00     0.037 A 
HETATM    7  C11 UNK     1      19.579   2.644  19.389  1.00  0.00     0.102 A 
HETATM    8  C13 UNK     1      19.215   0.109  20.519  1.00  0.00     0.014 A 
HETATM    9  C14 UNK     1      19.138   0.659  16.309  1.00  0.00     0.304 A 
HETATM   10  C16 UNK     1      19.609   2.487  20.773  1.00  0.00     0.040 A 
HETATM   11  C17 UNK     1      19.428   1.223  21.337  1.00  0.00     0.004 A 
ENDROOT
BRANCH   5  12
HETATM   12  C10 UNK     1      18.719  -1.877  16.090  1.00  0.00     0.262 C 
HETATM   13  O5  UNK     1      17.598  -2.378  16.036  1.00  0.00    -0.267 OA
HETATM   14  N1  UNK     1      19.876  -2.298  15.450  1.00  0.00    -0.323 N 
HETATM   15  H3  UNK     1      20.737  -1.782  15.616  1.00  0.00     0.169 HD
BRANCH  14  16
HETATM   16  C2  UNK     1      20.030  -3.411  14.586  1.00  0.00     0.037 A 
HETATM   17  C8  UNK     1      20.687  -4.539  15.054  1.00  0.00     0.069 A 
HETATM   18  C4  UNK     1      20.812  -5.597  14.178  1.00  0.00     0.107 A 
HETATM   19  O2  UNK     1      21.421  -6.786  14.442  1.00  0.00    -0.323 OA
HETATM   20  C6  UNK     1      20.309  -5.541  12.899  1.00  0.00     0.105 A 
HETATM   21  C15 UNK     1      21.243  -7.471  13.186  1.00  0.00     0.352 A 
HETATM   22  O3  UNK     1      20.539  -6.687  12.201  1.00  0.00    -0.323 OA
HETATM   23  C12 UNK     1      19.652  -4.424  12.424  1.00  0.00     0.042 A 
HETATM   24  C9  UNK     1      19.513  -3.337  13.292  1.00  0.00     0.032 A 
ENDBRANCH  14  16
ENDBRANCH   5  12
BRANCH   7  25
HETATM   25  O4  UNK     1      19.757   3.877  18.845  1.00  0.00    -0.353 OA
HETATM   26  C18 UNK     1      21.094   4.263  18.529  1.00  0.00     0.210 C 
ENDBRANCH   7  25
TORSDOF 3
ENDMDL
MODEL 10
REMARK VINA RESULT:      -8.7     19.137     21.044
REMARK  3 active torsions:
REMARK  status: ('A' for Active; 'I' for Inactive)
REMARK    1  A    between atoms: C11_18  and  O4_4 
REMARK       I    between atoms: C10_17  and  N1_7 
REMARK    2  A    between atoms: C2_9  and  N1_7 
REMARK    3  A    between atoms: C10_17  and  C5_12 
ROOT
HETATM    1  O1  UNK     1      19.385   1.919  17.282  1.00  0.00    -0.271 OA
HETATM    2  O6  UNK     1      19.223   1.312  15.087  1.00  0.00    -0.259 OA
HETATM    3  C1  UNK     1      19.195   0.223  19.014  1.00  0.00     0.002 A 
HETATM    4  C3  UNK     1      19.376   1.551  18.642  1.00  0.00     0.123 A 
HETATM    5  C5  UNK     1      19.022  -0.424  16.686  1.00  0.00     0.108 A 
HETATM    6  C7  UNK     1      19.013  -0.779  17.976  1.00  0.00     0.037 A 
HETATM    7  C11 UNK     1      19.556   2.560  19.587  1.00  0.00     0.102 A 
HETATM    8  C13 UNK     1      19.194  -0.103  20.372  1.00  0.00     0.014 A 
HETATM    9  C14 UNK     1      19.214   0.983  16.267  1.00  0.00     0.304 A 
HETATM   10  C16 UNK     1      19.554   2.227  20.940  1.00  0.00     0.040 A 
HETATM   11  C17 UNK     1      19.373   0.899  21.332  1.00  0.00     0.004 A 
ENDROOT
BRANCH   5  12
HETATM   12  C10 UNK     1      18.831  -1.507  15.714  1.00  0.00     0.262 C 
HETATM   13  O5  UNK     1      17.933  -2.330  15.885  1.00  0.00    -0.267 OA
HETATM   14  N1  UNK     1      19.747  -1.444  14.673  1.00  0.00    -0.323 N 
HETATM   15  H3  UNK     1      20.446  -0.706  14.688  1.00  0.00     0.169 HD
BRANCH  14  16
HETATM   16  C2  UNK     1      19.859  -2.321  13.565  1.00  0.00     0.037 A 
HETATM   17  C8  UNK     1      19.704  -1.809  12.286  1.00  0.00     0.069 A 
HETATM   18  C4  UNK     1      19.823  -2.701  11.239  1.00  0.00     0.107 A 
HETATM   19  O2  UNK     1      19.704  -2.400   9.917  1.00  0.00    -0.323 OA
HETATM   20  C6  UNK     1      20.083  -4.035  11.450  1.00  0.00     0.105 A 
HETATM   21  C15 UNK     1      19.920  -3.695   9.320  1.00  0.00     0.352 A 
HETATM   22  O3  UNK     1      20.160  -4.737  10.287  1.00  0.00    -0.323 OA
HETATM   23  C12 UNK     1      20.239  -4.552  12.720  1.00  0.00     0.042 A 
HETATM   24  C9  UNK     1      20.123  -3.671  13.798  1.00  0.00     0.032 A 
ENDBRANCH  14  16
ENDBRANCH   5  12
BRANCH   7  25
HETATM   25  O4  UNK     1      19.732   3.854  19.210  1.00  0.00    -0.353 OA
HETATM   26  C18 UNK     1      20.970   4.186  18.582  1.00  0.00     0.210 C 
ENDBRANCH   7  25
TORSDOF 3
ENDMDL
