MODEL 1
REMARK VINA RESULT:      -7.2      0.000      0.000
REMARK  4 active torsions:
REMARK  status: ('A' for Active; 'I' for Inactive)
REMARK    1  A    between atoms: C1_6  and  N1_5 
REMARK    2  A    between atoms: C2_7  and  N1_5 
REMARK    3  A    between atoms: C3_8  and  N1_5 
REMARK    4  A    between atoms: C12_17  and  C14_19 
ROOT
HETATM    1 Cl1  UNK     1      19.795   0.018  29.182  1.00  0.00    -0.082 Cl
HETATM    2  O1  UNK     1      18.028   2.088  32.834  1.00  0.00    -0.274 OA
HETATM    3  O2  UNK     1      17.588   3.927  31.571  1.00  0.00    -0.259 OA
HETATM    4  C1  UNK     1      18.953  -1.099  34.376  1.00  0.00     0.032 A 
HETATM    5  C4  UNK     1      18.466   0.190  34.202  1.00  0.00     0.067 A 
HETATM    6  C5  UNK     1      18.539   0.784  32.939  1.00  0.00     0.093 A 
HETATM    7  C6  UNK     1      19.082   0.134  31.833  1.00  0.00     0.021 A 
HETATM    8  C7  UNK     1      19.503  -1.779  33.293  1.00  0.00     0.030 A 
HETATM    9  C8  UNK     1      19.567  -1.168  32.034  1.00  0.00     0.018 A 
HETATM   10  C11 UNK     1      19.109   0.852  30.547  1.00  0.00     0.066 A 
HETATM   11  C12 UNK     1      18.618   2.102  30.452  1.00  0.00     0.100 A 
HETATM   12  C13 UNK     1      18.040   2.788  31.638  1.00  0.00     0.303 A 
ENDROOT
BRANCH   4  13
HETATM   13  N1  UNK     1      18.891  -1.715  35.641  1.00  0.00    -0.382 N 
BRANCH  13  14
HETATM   14  C2  UNK     1      20.054  -2.387  36.189  1.00  0.00     0.118 C 
HETATM   15  C9  UNK     1      19.753  -3.859  36.402  1.00  0.00     0.026 C 
ENDBRANCH  13  14
BRANCH  13  16
HETATM   16  C3  UNK     1      17.670  -1.674  36.421  1.00  0.00     0.118 C 
HETATM   17  C10 UNK     1      17.898  -0.908  37.710  1.00  0.00     0.026 C 
ENDBRANCH  13  16
ENDBRANCH   4  13
BRANCH  11  18
HETATM   18  C14 UNK     1      18.639   2.831  29.166  1.00  0.00     0.277 C 
HETATM   19  O3  UNK     1      17.931   2.509  28.230  1.00  0.00    -0.301 OA
ENDBRANCH  11  18
TORSDOF 4
ENDMDL
MODEL 2
REMARK VINA RESULT:      -7.0      1.719      2.631
REMARK  4 active torsions:
REMARK  status: ('A' for Active; 'I' for Inactive)
REMARK    1  A    between atoms: C1_6  and  N1_5 
REMARK    2  A    between atoms: C2_7  and  N1_5 
REMARK    3  A    between atoms: C3_8  and  N1_5 
REMARK    4  A    between atoms: C12_17  and  C14_19 
ROOT
HETATM    1 Cl1  UNK     1      20.580  -2.528  30.608  1.00  0.00    -0.082 Cl
HETATM    2  O1  UNK     1      18.597   1.406  31.765  1.00  0.00    -0.274 OA
HETATM    3  O2  UNK     1      18.867   2.161  29.638  1.00  0.00    -0.259 OA
HETATM    4  C1  UNK     1      18.421  -0.296  35.000  1.00  0.00     0.032 A 
HETATM    5  C4  UNK     1      18.289   0.666  34.006  1.00  0.00     0.067 A 
HETATM    6  C5  UNK     1      18.762   0.390  32.721  1.00  0.00     0.093 A 
HETATM    7  C6  UNK     1      19.365  -0.820  32.385  1.00  0.00     0.021 A 
HETATM    8  C7  UNK     1      19.018  -1.517  34.701  1.00  0.00     0.030 A 
HETATM    9  C8  UNK     1      19.486  -1.776  33.406  1.00  0.00     0.018 A 
HETATM   10  C11 UNK     1      19.828  -1.008  31.000  1.00  0.00     0.066 A 
HETATM   11  C12 UNK     1      19.668  -0.030  30.088  1.00  0.00     0.100 A 
HETATM   12  C13 UNK     1      19.023   1.259  30.455  1.00  0.00     0.303 A 
ENDROOT
BRANCH   4  13
HETATM   13  N1  UNK     1      17.952  -0.038  36.303  1.00  0.00    -0.382 N 
BRANCH  13  14
HETATM   14  C2  UNK     1      17.978   1.310  36.840  1.00  0.00     0.118 C 
HETATM   15  C9  UNK     1      16.606   1.688  37.366  1.00  0.00     0.026 C 
ENDBRANCH  13  14
BRANCH  13  16
HETATM   16  C3  UNK     1      17.423  -1.110  37.122  1.00  0.00     0.118 C 
HETATM   17  C10 UNK     1      18.421  -1.487  38.200  1.00  0.00     0.026 C 
ENDBRANCH  13  16
ENDBRANCH   4  13
BRANCH  11  18
HETATM   18  C14 UNK     1      20.128  -0.207  28.694  1.00  0.00     0.277 C 
HETATM   19  O3  UNK     1      19.388  -0.613  27.817  1.00  0.00    -0.301 OA
ENDBRANCH  11  18
TORSDOF 4
ENDMDL
MODEL 3
REMARK VINA RESULT:      -6.9      2.473      3.340
REMARK  4 active torsions:
REMARK  status: ('A' for Active; 'I' for Inactive)
REMARK    1  A    between atoms: C1_6  and  N1_5 
REMARK    2  A    between atoms: C2_7  and  N1_5 
REMARK    3  A    between atoms: C3_8  and  N1_5 
REMARK    4  A    between atoms: C12_17  and  C14_19 
ROOT
HETATM    1 Cl1  UNK     1      19.053   1.963  29.899  1.00  0.00    -0.082 Cl
HETATM    2  O1  UNK     1      19.743  -1.860  32.277  1.00  0.00    -0.274 OA
HETATM    3  O2  UNK     1      20.665  -2.829  30.440  1.00  0.00    -0.259 OA
HETATM    4  C1  UNK     1      18.188   0.170  34.896  1.00  0.00     0.032 A 
HETATM    5  C4  UNK     1      18.786  -0.894  34.231  1.00  0.00     0.067 A 
HETATM    6  C5  UNK     1      19.142  -0.747  32.888  1.00  0.00     0.093 A 
HETATM    7  C6  UNK     1      18.924   0.432  32.177  1.00  0.00     0.021 A 
HETATM    8  C7  UNK     1      17.955   1.362  34.217  1.00  0.00     0.030 A 
HETATM    9  C8  UNK     1      18.318   1.491  32.870  1.00  0.00     0.018 A 
HETATM   10  C11 UNK     1      19.338   0.480  30.764  1.00  0.00     0.066 A 
HETATM   11  C12 UNK     1      19.913  -0.591  30.184  1.00  0.00     0.100 A 
HETATM   12  C13 UNK     1      20.143  -1.844  30.951  1.00  0.00     0.303 A 
ENDROOT
BRANCH   4  13
HETATM   13  N1  UNK     1      17.820   0.041  36.250  1.00  0.00    -0.382 N 
BRANCH  13  14
HETATM   14  C2  UNK     1      17.459  -1.254  36.794  1.00  0.00     0.118 C 
HETATM   15  C9  UNK     1      18.371  -1.604  37.955  1.00  0.00     0.026 C 
ENDBRANCH  13  14
BRANCH  13  16
HETATM   16  C3  UNK     1      17.810   1.198  37.123  1.00  0.00     0.118 C 
HETATM   17  C10 UNK     1      16.384   1.579  37.470  1.00  0.00     0.026 C 
ENDBRANCH  13  16
ENDBRANCH   4  13
BRANCH  11  18
HETATM   18  C14 UNK     1      20.334  -0.553  28.767  1.00  0.00     0.277 C 
HETATM   19  O3  UNK     1      19.542  -0.697  27.855  1.00  0.00    -0.301 OA
ENDBRANCH  11  18
TORSDOF 4
ENDMDL
MODEL 4
REMARK VINA RESULT:      -6.9     24.262     25.916
REMARK  4 active torsions:
REMARK  status: ('A' for Active; 'I' for Inactive)
REMARK    1  A    between atoms: C1_6  and  N1_5 
REMARK    2  A    between atoms: C2_7  and  N1_5 
REMARK    3  A    between atoms: C3_8  and  N1_5 
REMARK    4  A    between atoms: C12_17  and  C14_19 
ROOT
HETATM    1 Cl1  UNK     1      15.166   9.274  10.028  1.00  0.00    -0.082 Cl
HETATM    2  O1  UNK     1      13.970   4.949   9.247  1.00  0.00    -0.274 OA
HETATM    3  O2  UNK     1      16.108   4.291   9.651  1.00  0.00    -0.259 OA
HETATM    4  C1  UNK     1      10.722   6.546   8.706  1.00  0.00     0.032 A 
HETATM    5  C4  UNK     1      11.716   5.582   8.816  1.00  0.00     0.067 A 
HETATM    6  C5  UNK     1      13.014   5.974   9.153  1.00  0.00     0.093 A 
HETATM    7  C6  UNK     1      13.361   7.303   9.390  1.00  0.00     0.021 A 
HETATM    8  C7  UNK     1      11.033   7.884   8.935  1.00  0.00     0.030 A 
HETATM    9  C8  UNK     1      12.339   8.258   9.273  1.00  0.00     0.018 A 
HETATM   10  C11 UNK     1      14.759   7.606   9.740  1.00  0.00     0.066 A 
HETATM   11  C12 UNK     1      15.671   6.619   9.828  1.00  0.00     0.100 A 
HETATM   12  C13 UNK     1      15.292   5.203   9.575  1.00  0.00     0.303 A 
ENDROOT
BRANCH   4  13
HETATM   13  N1  UNK     1       9.407   6.173   8.365  1.00  0.00    -0.382 N 
BRANCH  13  14
HETATM   14  C2  UNK     1       8.830   6.587   7.100  1.00  0.00     0.118 C 
HETATM   15  C9  UNK     1       9.702   6.117   5.951  1.00  0.00     0.026 C 
ENDBRANCH  13  14
BRANCH  13  16
HETATM   16  C3  UNK     1       8.617   5.356   9.265  1.00  0.00     0.118 C 
HETATM   17  C10 UNK     1       7.452   6.159   9.812  1.00  0.00     0.026 C 
ENDBRANCH  13  16
ENDBRANCH   4  13
BRANCH  11  18
HETATM   18  C14 UNK     1      17.076   6.912  10.180  1.00  0.00     0.277 C 
HETATM   19  O3  UNK     1      17.960   6.939   9.343  1.00  0.00    -0.301 OA
ENDBRANCH  11  18
TORSDOF 4
ENDMDL
MODEL 5
REMARK VINA RESULT:      -6.8      3.258      6.169
REMARK  4 active torsions:
REMARK  status: ('A' for Active; 'I' for Inactive)
REMARK    1  A    between atoms: C1_6  and  N1_5 
REMARK    2  A    between atoms: C2_7  and  N1_5 
REMARK    3  A    between atoms: C3_8  and  N1_5 
REMARK    4  A    between atoms: C12_17  and  C14_19 
ROOT
HETATM    1 Cl1  UNK     1      19.789   0.387  29.059  1.00  0.00    -0.082 Cl
HETATM    2  O1  UNK     1      18.489   0.968  33.386  1.00  0.00    -0.274 OA
HETATM    3  O2  UNK     1      18.815  -1.247  33.775  1.00  0.00    -0.259 OA
HETATM    4  C1  UNK     1      18.136   4.418  32.215  1.00  0.00     0.032 A 
HETATM    5  C4  UNK     1      18.131   3.295  33.033  1.00  0.00     0.067 A 
HETATM    6  C5  UNK     1      18.517   2.061  32.503  1.00  0.00     0.093 A 
HETATM    7  C6  UNK     1      18.912   1.903  31.177  1.00  0.00     0.021 A 
HETATM    8  C7  UNK     1      18.525   4.297  30.884  1.00  0.00     0.030 A 
HETATM    9  C8  UNK     1      18.909   3.052  30.370  1.00  0.00     0.018 A 
HETATM   10  C11 UNK     1      19.301   0.557  30.721  1.00  0.00     0.066 A 
HETATM   11  C12 UNK     1      19.271  -0.487  31.572  1.00  0.00     0.100 A 
HETATM   12  C13 UNK     1      18.848  -0.309  32.986  1.00  0.00     0.303 A 
ENDROOT
BRANCH   4  13
HETATM   13  N1  UNK     1      17.749   5.671  32.728  1.00  0.00    -0.382 N 
BRANCH  13  14
HETATM   14  C2  UNK     1      16.544   6.322  32.249  1.00  0.00     0.118 C 
HETATM   15  C9  UNK     1      16.901   7.592  31.500  1.00  0.00     0.026 C 
ENDBRANCH  13  14
BRANCH  13  16
HETATM   16  C3  UNK     1      18.539   6.322  33.755  1.00  0.00     0.118 C 
HETATM   17  C10 UNK     1      19.941   6.591  33.243  1.00  0.00     0.026 C 
ENDBRANCH  13  16
ENDBRANCH   4  13
BRANCH  11  18
HETATM   18  C14 UNK     1      19.659  -1.841  31.125  1.00  0.00     0.277 C 
HETATM   19  O3  UNK     1      20.787  -2.273  31.277  1.00  0.00    -0.301 OA
ENDBRANCH  11  18
TORSDOF 4
ENDMDL
MODEL 6
REMARK VINA RESULT:      -6.7      3.515      6.955
REMARK  4 active torsions:
REMARK  status: ('A' for Active; 'I' for Inactive)
REMARK    1  A    between atoms: C1_6  and  N1_5 
REMARK    2  A    between atoms: C2_7  and  N1_5 
REMARK    3  A    between atoms: C3_8  and  N1_5 
REMARK    4  A    between atoms: C12_17  and  C14_19 
ROOT
HETATM    1 Cl1  UNK     1      18.337  -0.961  33.031  1.00  0.00    -0.082 Cl
HETATM    2  O1  UNK     1      18.322   2.855  35.517  1.00  0.00    -0.274 OA
HETATM    3  O2  UNK     1      18.370   1.610  37.418  1.00  0.00    -0.259 OA
HETATM    4  C1  UNK     1      18.248   4.349  32.177  1.00  0.00     0.032 A 
HETATM    5  C4  UNK     1      18.272   4.208  33.559  1.00  0.00     0.067 A 
HETATM    6  C5  UNK     1      18.298   2.926  34.115  1.00  0.00     0.093 A 
HETATM    7  C6  UNK     1      18.304   1.769  33.338  1.00  0.00     0.021 A 
HETATM    8  C7  UNK     1      18.252   3.215  31.370  1.00  0.00     0.030 A 
HETATM    9  C8  UNK     1      18.279   1.938  31.944  1.00  0.00     0.018 A 
HETATM   10  C11 UNK     1      18.333   0.467  34.025  1.00  0.00     0.066 A 
HETATM   11  C12 UNK     1      18.355   0.406  35.371  1.00  0.00     0.100 A 
HETATM   12  C13 UNK     1      18.350   1.646  36.193  1.00  0.00     0.303 A 
ENDROOT
BRANCH   4  13
HETATM   13  N1  UNK     1      18.219   5.632  31.597  1.00  0.00    -0.382 N 
BRANCH  13  14
HETATM   14  C2  UNK     1      17.620   6.747  32.307  1.00  0.00     0.118 C 
HETATM   15  C9  UNK     1      16.808   7.599  31.350  1.00  0.00     0.026 C 
ENDBRANCH  13  14
BRANCH  13  16
HETATM   16  C3  UNK     1      18.800   5.862  30.289  1.00  0.00     0.118 C 
HETATM   17  C10 UNK     1      20.313   5.899  30.388  1.00  0.00     0.026 C 
ENDBRANCH  13  16
ENDBRANCH   4  13
BRANCH  11  18
HETATM   18  C14 UNK     1      18.386  -0.895  36.071  1.00  0.00     0.277 C 
HETATM   19  O3  UNK     1      17.368  -1.497  36.360  1.00  0.00    -0.301 OA
ENDBRANCH  11  18
TORSDOF 4
ENDMDL
MODEL 7
REMARK VINA RESULT:      -6.7      3.710      6.365
REMARK  4 active torsions:
REMARK  status: ('A' for Active; 'I' for Inactive)
REMARK    1  A    between atoms: C1_6  and  N1_5 
REMARK    2  A    between atoms: C2_7  and  N1_5 
REMARK    3  A    between atoms: C3_8  and  N1_5 
REMARK    4  A    between atoms: C12_17  and  C14_19 
ROOT
HETATM    1 Cl1  UNK     1      18.858  -1.055  33.225  1.00  0.00    -0.082 Cl
HETATM    2  O1  UNK     1      19.448   1.543  29.530  1.00  0.00    -0.274 OA
HETATM    3  O2  UNK     1      20.119  -0.286  28.359  1.00  0.00    -0.259 OA
HETATM    4  C1  UNK     1      18.306   4.120  31.864  1.00  0.00     0.032 A 
HETATM    5  C4  UNK     1      18.753   3.490  30.709  1.00  0.00     0.067 A 
HETATM    6  C5  UNK     1      18.998   2.115  30.731  1.00  0.00     0.093 A 
HETATM    7  C6  UNK     1      18.811   1.336  31.872  1.00  0.00     0.021 A 
HETATM    8  C7  UNK     1      18.108   3.374  33.022  1.00  0.00     0.030 A 
HETATM    9  C8  UNK     1      18.358   1.996  33.026  1.00  0.00     0.018 A 
HETATM   10  C11 UNK     1      19.098  -0.106  31.786  1.00  0.00     0.066 A 
HETATM   11  C12 UNK     1      19.530  -0.648  30.631  1.00  0.00     0.100 A 
HETATM   12  C13 UNK     1      19.727   0.190  29.419  1.00  0.00     0.303 A 
ENDROOT
BRANCH   4  13
HETATM   13  N1  UNK     1      18.055   5.507  31.863  1.00  0.00    -0.382 N 
BRANCH  13  14
HETATM   14  C2  UNK     1      16.758   6.019  32.262  1.00  0.00     0.118 C 
HETATM   15  C9  UNK     1      16.560   7.420  31.716  1.00  0.00     0.026 C 
ENDBRANCH  13  14
BRANCH  13  16
HETATM   16  C3  UNK     1      19.093   6.442  31.477  1.00  0.00     0.118 C 
HETATM   17  C10 UNK     1      20.177   6.486  32.536  1.00  0.00     0.026 C 
ENDBRANCH  13  16
ENDBRANCH   4  13
BRANCH  11  18
HETATM   18  C14 UNK     1      19.821  -2.094  30.534  1.00  0.00     0.277 C 
HETATM   19  O3  UNK     1      20.865  -2.572  30.938  1.00  0.00    -0.301 OA
ENDBRANCH  11  18
TORSDOF 4
ENDMDL
MODEL 8
REMARK VINA RESULT:      -6.6     24.110     25.896
REMARK  4 active torsions:
REMARK  status: ('A' for Active; 'I' for Inactive)
REMARK    1  A    between atoms: C1_6  and  N1_5 
REMARK    2  A    between atoms: C2_7  and  N1_5 
REMARK    3  A    between atoms: C3_8  and  N1_5 
REMARK    4  A    between atoms: C12_17  and  C14_19 
ROOT
HETATM    1 Cl1  UNK     1      15.611   4.665   9.830  1.00  0.00    -0.082 Cl
HETATM    2  O1  UNK     1      13.543   8.720   9.657  1.00  0.00    -0.274 OA
HETATM    3  O2  UNK     1      15.463   9.722  10.345  1.00  0.00    -0.259 OA
HETATM    4  C1  UNK     1      10.752   6.608   8.584  1.00  0.00     0.032 A 
HETATM    5  C4  UNK     1      11.506   7.722   8.934  1.00  0.00     0.067 A 
HETATM    6  C5  UNK     1      12.839   7.552   9.317  1.00  0.00     0.093 A 
HETATM    7  C6  UNK     1      13.455   6.303   9.363  1.00  0.00     0.021 A 
HETATM    8  C7  UNK     1      11.335   5.345   8.619  1.00  0.00     0.030 A 
HETATM    9  C8  UNK     1      12.673   5.194   9.005  1.00  0.00     0.018 A 
HETATM   10  C11 UNK     1      14.866   6.237   9.780  1.00  0.00     0.066 A 
HETATM   11  C12 UNK     1      15.535   7.360  10.105  1.00  0.00     0.100 A 
HETATM   12  C13 UNK     1      14.870   8.689  10.053  1.00  0.00     0.303 A 
ENDROOT
BRANCH   4  13
HETATM   13  N1  UNK     1       9.406   6.757   8.197  1.00  0.00    -0.382 N 
BRANCH  13  14
HETATM   14  C2  UNK     1       8.895   6.061   7.031  1.00  0.00     0.118 C 
HETATM   15  C9  UNK     1       9.664   6.484   5.794  1.00  0.00     0.026 C 
ENDBRANCH  13  14
BRANCH  13  16
HETATM   16  C3  UNK     1       8.507   7.596   8.966  1.00  0.00     0.118 C 
HETATM   17  C10 UNK     1       7.631   6.740   9.860  1.00  0.00     0.026 C 
ENDBRANCH  13  16
ENDBRANCH   4  13
BRANCH  11  18
HETATM   18  C14 UNK     1      16.952   7.305  10.524  1.00  0.00     0.277 C 
HETATM   19  O3  UNK     1      17.866   7.414   9.727  1.00  0.00    -0.301 OA
ENDBRANCH  11  18
TORSDOF 4
ENDMDL
MODEL 9
REMARK VINA RESULT:      -6.4      2.659      3.721
REMARK  4 active torsions:
REMARK  status: ('A' for Active; 'I' for Inactive)
REMARK    1  A    between atoms: C1_6  and  N1_5 
REMARK    2  A    between atoms: C2_7  and  N1_5 
REMARK    3  A    between atoms: C3_8  and  N1_5 
REMARK    4  A    between atoms: C12_17  and  C14_19 
ROOT
HETATM    1 Cl1  UNK     1      18.894   6.331  32.980  1.00  0.00    -0.082 Cl
HETATM    2  O1  UNK     1      18.371   2.166  31.211  1.00  0.00    -0.274 OA
HETATM    3  O2  UNK     1      18.539   3.040  29.120  1.00  0.00    -0.259 OA
HETATM    4  C1  UNK     1      18.171   1.308  34.764  1.00  0.00     0.032 A 
HETATM    5  C4  UNK     1      18.188   1.199  33.379  1.00  0.00     0.067 A 
HETATM    6  C5  UNK     1      18.362   2.349  32.604  1.00  0.00     0.093 A 
HETATM    7  C6  UNK     1      18.522   3.615  33.163  1.00  0.00     0.021 A 
HETATM    8  C7  UNK     1      18.327   2.558  35.357  1.00  0.00     0.030 A 
HETATM    9  C8  UNK     1      18.500   3.700  34.565  1.00  0.00     0.018 A 
HETATM   10  C11 UNK     1      18.699   4.761  32.255  1.00  0.00     0.066 A 
HETATM   11  C12 UNK     1      18.706   4.580  30.920  1.00  0.00     0.100 A 
HETATM   12  C13 UNK     1      18.535   3.225  30.332  1.00  0.00     0.303 A 
ENDROOT
BRANCH   4  13
HETATM   13  N1  UNK     1      17.995   0.161  35.563  1.00  0.00    -0.382 N 
BRANCH  13  14
HETATM   14  C2  UNK     1      16.869   0.065  36.472  1.00  0.00     0.118 C 
HETATM   15  C9  UNK     1      15.566   0.177  35.702  1.00  0.00     0.026 C 
ENDBRANCH  13  14
BRANCH  13  16
HETATM   16  C3  UNK     1      18.927  -0.945  35.478  1.00  0.00     0.118 C 
HETATM   17  C10 UNK     1      18.584  -1.999  36.512  1.00  0.00     0.026 C 
ENDBRANCH  13  16
ENDBRANCH   4  13
BRANCH  11  18
HETATM   18  C14 UNK     1      18.883   5.722  30.000  1.00  0.00     0.277 C 
HETATM   19  O3  UNK     1      19.984   6.157  29.714  1.00  0.00    -0.301 OA
ENDBRANCH  11  18
TORSDOF 4
ENDMDL
MODEL 10
REMARK VINA RESULT:      -6.4      3.761      7.127
REMARK  4 active torsions:
REMARK  status: ('A' for Active; 'I' for Inactive)
REMARK    1  A    between atoms: C1_6  and  N1_5 
REMARK    2  A    between atoms: C2_7  and  N1_5 
REMARK    3  A    between atoms: C3_8  and  N1_5 
REMARK    4  A    between atoms: C12_17  and  C14_19 
ROOT
HETATM    1 Cl1  UNK     1      18.331   1.559  36.760  1.00  0.00    -0.082 Cl
HETATM    2  O1  UNK     1      18.333   1.019  32.237  1.00  0.00    -0.274 OA
HETATM    3  O2  UNK     1      18.356  -1.237  32.513  1.00  0.00    -0.259 OA
HETATM    4  C1  UNK     1      18.296   4.676  32.376  1.00  0.00     0.032 A 
HETATM    5  C4  UNK     1      18.308   3.374  31.891  1.00  0.00     0.067 A 
HETATM    6  C5  UNK     1      18.321   2.308  32.795  1.00  0.00     0.093 A 
HETATM    7  C6  UNK     1      18.319   2.493  34.176  1.00  0.00     0.021 A 
HETATM    8  C7  UNK     1      18.293   4.898  33.750  1.00  0.00     0.030 A 
HETATM    9  C8  UNK     1      18.305   3.818  34.641  1.00  0.00     0.018 A 
HETATM   10  C11 UNK     1      18.332   1.300  35.039  1.00  0.00     0.066 A 
HETATM   11  C12 UNK     1      18.344   0.066  34.498  1.00  0.00     0.100 A 
HETATM   12  C13 UNK     1      18.345  -0.122  33.023  1.00  0.00     0.303 A 
ENDROOT
BRANCH   4  13
HETATM   13  N1  UNK     1      18.285   5.765  31.481  1.00  0.00    -0.382 N 
BRANCH  13  14
HETATM   14  C2  UNK     1      17.797   7.062  31.909  1.00  0.00     0.118 C 
HETATM   15  C9  UNK     1      16.285   7.112  31.799  1.00  0.00     0.026 C 
ENDBRANCH  13  14
BRANCH  13  16
HETATM   16  C3  UNK     1      18.775   5.609  30.126  1.00  0.00     0.118 C 
HETATM   17  C10 UNK     1      20.259   5.919  30.068  1.00  0.00     0.026 C 
ENDBRANCH  13  16
ENDBRANCH   4  13
BRANCH  11  18
HETATM   18  C14 UNK     1      18.356  -1.138  35.355  1.00  0.00     0.277 C 
HETATM   19  O3  UNK     1      19.391  -1.624  35.772  1.00  0.00    -0.301 OA
ENDBRANCH  11  18
TORSDOF 4
ENDMDL
