MODEL 1
REMARK VINA RESULT:      -9.9      0.000      0.000
REMARK  6 active torsions:
REMARK  status: ('A' for Active; 'I' for Inactive)
REMARK    1  A    between atoms: C9_18  and  S1_1 
REMARK    2  A    between atoms: N2_8  and  S1_1 
REMARK    3  A    between atoms: C12_21  and  N1_7 
REMARK    4  A    between atoms: C4_13  and  N1_7 
REMARK    5  A    between atoms: N2_8  and  N3_9 
REMARK    6  A    between atoms: C12_21  and  N3_9 
ROOT
HETATM    1  S2  UNK     1      18.256  -1.290  37.404  1.00  0.00    -0.039 SA
HETATM    2  C12 UNK     1      18.980  -2.371  36.348  1.00  0.00     0.191 C 
ENDROOT
BRANCH   2   3
HETATM    3  N1  UNK     1      18.830  -3.765  36.291  1.00  0.00    -0.332 N 
HETATM    4  H8  UNK     1      17.857  -4.046  36.181  1.00  0.00     0.168 HD
BRANCH   3   5
HETATM    5  C4  UNK     1      19.683  -4.832  36.572  1.00  0.00     0.037 A 
HETATM    6  C5  UNK     1      19.796  -5.891  35.677  1.00  0.00     0.067 A 
HETATM    7  C2  UNK     1      20.657  -6.948  35.977  1.00  0.00     0.092 A 
HETATM    8  C1  UNK     1      21.415  -6.982  37.149  1.00  0.00     0.004 A 
HETATM    9  O1  UNK     1      20.729  -7.990  35.031  1.00  0.00    -0.275 OA
HETATM   10  C3  UNK     1      22.296  -8.135  37.382  1.00  0.00    -0.043 A 
HETATM   11  C6  UNK     1      21.287  -5.906  38.037  1.00  0.00     0.017 A 
HETATM   12  C10 UNK     1      23.122  -8.202  38.634  1.00  0.00     0.049 C 
HETATM   13  C8  UNK     1      22.344  -9.111  36.467  1.00  0.00     0.090 A 
HETATM   14  C11 UNK     1      21.552  -9.090  35.226  1.00  0.00     0.288 A 
HETATM   15  O4  UNK     1      21.622 -10.002  34.410  1.00  0.00    -0.260 OA
HETATM   16  C7  UNK     1      20.429  -4.839  37.750  1.00  0.00     0.030 A 
ENDBRANCH   3   5
ENDBRANCH   2   3
BRANCH   2  17
HETATM   17  N3  UNK     1      19.872  -1.858  35.416  1.00  0.00    -0.266 N 
HETATM   18  H12 UNK     1      20.700  -1.339  35.690  1.00  0.00     0.190 HD
BRANCH  17  19
HETATM   19  N2  UNK     1      19.634  -1.993  33.995  1.00  0.00    -0.221 N 
HETATM   20  H9  UNK     1      20.450  -2.339  33.476  1.00  0.00     0.200 HD
BRANCH  19  21
HETATM   21  S1  UNK     1      18.694  -0.788  33.246  1.00  0.00     0.276 S 
HETATM   22  O2  UNK     1      18.997   0.496  33.850  1.00  0.00    -0.199 OA
HETATM   23  O3  UNK     1      17.320  -1.233  33.124  1.00  0.00    -0.199 OA
BRANCH  21  24
HETATM   24  C9  UNK     1      19.409  -0.777  31.629  1.00  0.00     0.081 A 
HETATM   25  C13 UNK     1      19.406   0.397  30.898  1.00  0.00     0.025 A 
HETATM   26  C15 UNK     1      19.970   0.406  29.621  1.00  0.00     0.002 A 
HETATM   27  C17 UNK     1      20.527  -0.761  29.097  1.00  0.00     0.000 A 
HETATM   28  C16 UNK     1      20.520  -1.935  29.849  1.00  0.00     0.002 A 
HETATM   29  C14 UNK     1      19.957  -1.944  31.125  1.00  0.00     0.025 A 
ENDBRANCH  21  24
ENDBRANCH  19  21
ENDBRANCH  17  19
ENDBRANCH   2  17
TORSDOF 6
ENDMDL
MODEL 2
REMARK VINA RESULT:      -9.5      1.538      2.002
REMARK  6 active torsions:
REMARK  status: ('A' for Active; 'I' for Inactive)
REMARK    1  A    between atoms: C9_18  and  S1_1 
REMARK    2  A    between atoms: N2_8  and  S1_1 
REMARK    3  A    between atoms: C12_21  and  N1_7 
REMARK    4  A    between atoms: C4_13  and  N1_7 
REMARK    5  A    between atoms: N2_8  and  N3_9 
REMARK    6  A    between atoms: C12_21  and  N3_9 
ROOT
HETATM    1  S2  UNK     1      20.333  -3.147  37.604  1.00  0.00    -0.039 SA
HETATM    2  C12 UNK     1      19.615  -3.517  36.135  1.00  0.00     0.191 C 
ENDROOT
BRANCH   2   3
HETATM    3  N1  UNK     1      19.568  -4.755  35.476  1.00  0.00    -0.332 N 
HETATM    4  H8  UNK     1      19.217  -4.676  34.524  1.00  0.00     0.168 HD
BRANCH   3   5
HETATM    5  C4  UNK     1      19.686  -6.075  35.912  1.00  0.00     0.037 A 
HETATM    6  C5  UNK     1      20.577  -6.941  35.287  1.00  0.00     0.067 A 
HETATM    7  C2  UNK     1      20.680  -8.257  35.739  1.00  0.00     0.092 A 
HETATM    8  C1  UNK     1      19.918  -8.741  36.804  1.00  0.00     0.004 A 
HETATM    9  O1  UNK     1      21.602  -9.085  35.067  1.00  0.00    -0.275 OA
HETATM   10  C3  UNK     1      20.091 -10.141  37.213  1.00  0.00    -0.043 A 
HETATM   11  C6  UNK     1      19.025  -7.854  37.420  1.00  0.00     0.017 A 
HETATM   12  C10 UNK     1      19.284 -10.693  38.352  1.00  0.00     0.049 C 
HETATM   13  C8  UNK     1      20.974 -10.905  36.556  1.00  0.00     0.090 A 
HETATM   14  C11 UNK     1      21.787 -10.410  35.432  1.00  0.00     0.288 A 
HETATM   15  O4  UNK     1      22.585 -11.138  34.855  1.00  0.00    -0.260 OA
HETATM   16  C7  UNK     1      18.912  -6.531  36.978  1.00  0.00     0.030 A 
ENDBRANCH   3   5
ENDBRANCH   2   3
BRANCH   2  17
HETATM   17  N3  UNK     1      19.005  -2.481  35.440  1.00  0.00    -0.266 N 
HETATM   18  H12 UNK     1      18.106  -2.101  35.718  1.00  0.00     0.190 HD
BRANCH  17  19
HETATM   19  N2  UNK     1      19.602  -1.924  34.245  1.00  0.00    -0.221 N 
HETATM   20  H9  UNK     1      20.612  -1.758  34.334  1.00  0.00     0.200 HD
BRANCH  19  21
HETATM   21  S1  UNK     1      18.697  -0.761  33.394  1.00  0.00     0.276 S 
HETATM   22  O2  UNK     1      19.001   0.556  33.919  1.00  0.00    -0.199 OA
HETATM   23  O3  UNK     1      17.320  -1.198  33.266  1.00  0.00    -0.199 OA
BRANCH  21  24
HETATM   24  C9  UNK     1      19.453  -0.867  31.799  1.00  0.00     0.081 A 
HETATM   25  C13 UNK     1      20.027  -2.063  31.403  1.00  0.00     0.025 A 
HETATM   26  C15 UNK     1      20.624  -2.147  30.144  1.00  0.00     0.002 A 
HETATM   27  C17 UNK     1      20.638  -1.034  29.303  1.00  0.00     0.000 A 
HETATM   28  C16 UNK     1      20.055   0.162  29.720  1.00  0.00     0.002 A 
HETATM   29  C14 UNK     1      19.458   0.247  30.978  1.00  0.00     0.025 A 
ENDBRANCH  21  24
ENDBRANCH  19  21
ENDBRANCH  17  19
ENDBRANCH   2  17
TORSDOF 6
ENDMDL
MODEL 3
REMARK VINA RESULT:      -9.5      1.948      2.606
REMARK  6 active torsions:
REMARK  status: ('A' for Active; 'I' for Inactive)
REMARK    1  A    between atoms: C9_18  and  S1_1 
REMARK    2  A    between atoms: N2_8  and  S1_1 
REMARK    3  A    between atoms: C12_21  and  N1_7 
REMARK    4  A    between atoms: C4_13  and  N1_7 
REMARK    5  A    between atoms: N2_8  and  N3_9 
REMARK    6  A    between atoms: C12_21  and  N3_9 
ROOT
HETATM    1  S2  UNK     1      18.276  -1.770  37.210  1.00  0.00    -0.039 SA
HETATM    2  C12 UNK     1      19.688  -2.198  36.414  1.00  0.00     0.191 C 
ENDROOT
BRANCH   2   3
HETATM    3  N1  UNK     1      20.588  -3.227  36.731  1.00  0.00    -0.332 N 
HETATM    4  H8  UNK     1      21.541  -3.009  36.448  1.00  0.00     0.168 HD
BRANCH   3   5
HETATM    5  C4  UNK     1      20.422  -4.550  37.139  1.00  0.00     0.037 A 
HETATM    6  C5  UNK     1      21.323  -5.125  38.029  1.00  0.00     0.067 A 
HETATM    7  C2  UNK     1      21.139  -6.451  38.425  1.00  0.00     0.092 A 
HETATM    8  C1  UNK     1      20.075  -7.226  37.960  1.00  0.00     0.004 A 
HETATM    9  O1  UNK     1      22.083  -6.977  39.328  1.00  0.00    -0.275 OA
HETATM   10  C3  UNK     1      19.957  -8.613  38.430  1.00  0.00    -0.043 A 
HETATM   11  C6  UNK     1      19.178  -6.629  37.064  1.00  0.00     0.017 A 
HETATM   12  C10 UNK     1      18.826  -9.474  37.947  1.00  0.00     0.049 C 
HETATM   13  C8  UNK     1      20.870  -9.087  39.289  1.00  0.00     0.090 A 
HETATM   14  C11 UNK     1      21.997  -8.282  39.790  1.00  0.00     0.288 A 
HETATM   15  O4  UNK     1      22.813  -8.749  40.576  1.00  0.00    -0.260 OA
HETATM   16  C7  UNK     1      19.350  -5.301  36.659  1.00  0.00     0.030 A 
ENDBRANCH   3   5
ENDBRANCH   2   3
BRANCH   2  17
HETATM   17  N3  UNK     1      20.059  -1.437  35.314  1.00  0.00    -0.266 N 
HETATM   18  H12 UNK     1      20.587  -0.575  35.407  1.00  0.00     0.190 HD
BRANCH  17  19
HETATM   19  N2  UNK     1      19.663  -1.812  33.973  1.00  0.00    -0.221 N 
HETATM   20  H9  UNK     1      20.411  -2.272  33.441  1.00  0.00     0.200 HD
BRANCH  19  21
HETATM   21  S1  UNK     1      18.664  -0.726  33.126  1.00  0.00     0.276 S 
HETATM   22  O2  UNK     1      18.857   0.610  33.655  1.00  0.00    -0.199 OA
HETATM   23  O3  UNK     1      17.329  -1.276  32.996  1.00  0.00    -0.199 OA
BRANCH  21  24
HETATM   24  C9  UNK     1      19.426  -0.763  31.531  1.00  0.00     0.081 A 
HETATM   25  C13 UNK     1      19.968  -1.950  31.069  1.00  0.00     0.025 A 
HETATM   26  C15 UNK     1      20.570  -1.980  29.811  1.00  0.00     0.002 A 
HETATM   27  C17 UNK     1      20.621  -0.822  29.035  1.00  0.00     0.000 A 
HETATM   28  C16 UNK     1      20.070   0.365  29.516  1.00  0.00     0.002 A 
HETATM   29  C14 UNK     1      19.467   0.395  30.774  1.00  0.00     0.025 A 
ENDBRANCH  21  24
ENDBRANCH  19  21
ENDBRANCH  17  19
ENDBRANCH   2  17
TORSDOF 6
ENDMDL
MODEL 4
REMARK VINA RESULT:      -9.4      2.352      8.806
REMARK  6 active torsions:
REMARK  status: ('A' for Active; 'I' for Inactive)
REMARK    1  A    between atoms: C9_18  and  S1_1 
REMARK    2  A    between atoms: N2_8  and  S1_1 
REMARK    3  A    between atoms: C12_21  and  N1_7 
REMARK    4  A    between atoms: C4_13  and  N1_7 
REMARK    5  A    between atoms: N2_8  and  N3_9 
REMARK    6  A    between atoms: C12_21  and  N3_9 
ROOT
HETATM    1  S2  UNK     1      17.926  -1.346  37.232  1.00  0.00    -0.039 SA
HETATM    2  C12 UNK     1      18.615  -2.617  36.383  1.00  0.00     0.191 C 
ENDROOT
BRANCH   2   3
HETATM    3  N1  UNK     1      19.617  -2.566  35.402  1.00  0.00    -0.332 N 
HETATM    4  H8  UNK     1      20.522  -2.873  35.755  1.00  0.00     0.168 HD
BRANCH   3   5
HETATM    5  C4  UNK     1      19.688  -1.985  34.137  1.00  0.00     0.037 A 
HETATM    6  C5  UNK     1      18.975  -0.822  33.860  1.00  0.00     0.067 A 
HETATM    7  C2  UNK     1      19.061  -0.256  32.587  1.00  0.00     0.092 A 
HETATM    8  C1  UNK     1      19.843  -0.815  31.574  1.00  0.00     0.004 A 
HETATM    9  O1  UNK     1      18.318   0.921  32.369  1.00  0.00    -0.275 OA
HETATM   10  C3  UNK     1      19.875  -0.151  30.264  1.00  0.00    -0.043 A 
HETATM   11  C6  UNK     1      20.553  -1.986  31.872  1.00  0.00     0.017 A 
HETATM   12  C10 UNK     1      20.702  -0.729  29.153  1.00  0.00     0.049 C 
HETATM   13  C8  UNK     1      19.157   0.966  30.084  1.00  0.00     0.090 A 
HETATM   14  C11 UNK     1      18.330   1.569  31.142  1.00  0.00     0.288 A 
HETATM   15  O4  UNK     1      17.687   2.593  30.942  1.00  0.00    -0.260 OA
HETATM   16  C7  UNK     1      20.477  -2.564  33.144  1.00  0.00     0.030 A 
ENDBRANCH   3   5
ENDBRANCH   2   3
BRANCH   2  17
HETATM   17  N3  UNK     1      18.134  -3.894  36.637  1.00  0.00    -0.266 N 
HETATM   18  H12 UNK     1      17.218  -4.055  37.045  1.00  0.00     0.190 HD
BRANCH  17  19
HETATM   19  N2  UNK     1      18.943  -5.066  36.381  1.00  0.00    -0.221 N 
HETATM   20  H9  UNK     1      19.722  -4.890  35.735  1.00  0.00     0.200 HD
BRANCH  19  21
HETATM   21  S1  UNK     1      18.130  -6.553  36.227  1.00  0.00     0.276 S 
HETATM   22  O2  UNK     1      18.487  -7.163  34.961  1.00  0.00    -0.199 OA
HETATM   23  O3  UNK     1      16.737  -6.400  36.598  1.00  0.00    -0.199 OA
BRANCH  21  24
HETATM   24  C9  UNK     1      18.930  -7.492  37.494  1.00  0.00     0.081 A 
HETATM   25  C13 UNK     1      19.583  -6.826  38.517  1.00  0.00     0.025 A 
HETATM   26  C15 UNK     1      20.215  -7.566  39.517  1.00  0.00     0.002 A 
HETATM   27  C17 UNK     1      20.184  -8.960  39.478  1.00  0.00     0.000 A 
HETATM   28  C16 UNK     1      19.521  -9.614  38.439  1.00  0.00     0.002 A 
HETATM   29  C14 UNK     1      18.889  -8.875  37.440  1.00  0.00     0.025 A 
ENDBRANCH  21  24
ENDBRANCH  19  21
ENDBRANCH  17  19
ENDBRANCH   2  17
TORSDOF 6
ENDMDL
MODEL 5
REMARK VINA RESULT:      -9.4      2.202      8.708
REMARK  6 active torsions:
REMARK  status: ('A' for Active; 'I' for Inactive)
REMARK    1  A    between atoms: C9_18  and  S1_1 
REMARK    2  A    between atoms: N2_8  and  S1_1 
REMARK    3  A    between atoms: C12_21  and  N1_7 
REMARK    4  A    between atoms: C4_13  and  N1_7 
REMARK    5  A    between atoms: N2_8  and  N3_9 
REMARK    6  A    between atoms: C12_21  and  N3_9 
ROOT
HETATM    1  S2  UNK     1      18.138  -0.298  36.437  1.00  0.00    -0.039 SA
HETATM    2  C12 UNK     1      18.709  -1.840  36.114  1.00  0.00     0.191 C 
ENDROOT
BRANCH   2   3
HETATM    3  N1  UNK     1      19.387  -2.296  34.973  1.00  0.00    -0.332 N 
HETATM    4  H8  UNK     1      20.006  -3.079  35.176  1.00  0.00     0.168 HD
BRANCH   3   5
HETATM    5  C4  UNK     1      19.562  -1.773  33.692  1.00  0.00     0.037 A 
HETATM    6  C5  UNK     1      18.920  -0.595  33.324  1.00  0.00     0.067 A 
HETATM    7  C2  UNK     1      19.109  -0.089  32.037  1.00  0.00     0.092 A 
HETATM    8  C1  UNK     1      19.926  -0.723  31.099  1.00  0.00     0.004 A 
HETATM    9  O1  UNK     1      18.433   1.108  31.724  1.00  0.00    -0.275 OA
HETATM   10  C3  UNK     1      20.068  -0.118  29.768  1.00  0.00    -0.043 A 
HETATM   11  C6  UNK     1      20.564  -1.908  31.489  1.00  0.00     0.017 A 
HETATM   12  C10 UNK     1      20.936  -0.778  28.736  1.00  0.00     0.049 C 
HETATM   13  C8  UNK     1      19.414   1.019  29.498  1.00  0.00     0.090 A 
HETATM   14  C11 UNK     1      18.550   1.701  30.476  1.00  0.00     0.288 A 
HETATM   15  O4  UNK     1      17.967   2.741  30.194  1.00  0.00    -0.260 OA
HETATM   16  C7  UNK     1      20.384  -2.428  32.776  1.00  0.00     0.030 A 
ENDBRANCH   3   5
ENDBRANCH   2   3
BRANCH   2  17
HETATM   17  N3  UNK     1      18.470  -2.825  37.064  1.00  0.00    -0.266 N 
HETATM   18  H12 UNK     1      18.321  -2.605  38.043  1.00  0.00     0.190 HD
BRANCH  17  19
HETATM   19  N2  UNK     1      18.476  -4.228  36.709  1.00  0.00    -0.221 N 
HETATM   20  H9  UNK     1      17.767  -4.778  37.211  1.00  0.00     0.200 HD
BRANCH  19  21
HETATM   21  S1  UNK     1      19.991  -4.960  36.459  1.00  0.00     0.276 S 
HETATM   22  O2  UNK     1      21.024  -4.131  37.048  1.00  0.00    -0.199 OA
HETATM   23  O3  UNK     1      20.107  -5.406  35.084  1.00  0.00    -0.199 OA
BRANCH  21  24
HETATM   24  C9  UNK     1      19.832  -6.392  37.483  1.00  0.00     0.081 A 
HETATM   25  C13 UNK     1      19.135  -7.489  37.007  1.00  0.00     0.025 A 
HETATM   26  C15 UNK     1      19.008  -8.619  37.816  1.00  0.00     0.002 A 
HETATM   27  C17 UNK     1      19.580  -8.633  39.088  1.00  0.00     0.000 A 
HETATM   28  C16 UNK     1      20.278  -7.519  39.551  1.00  0.00     0.002 A 
HETATM   29  C14 UNK     1      20.405  -6.389  38.743  1.00  0.00     0.025 A 
ENDBRANCH  21  24
ENDBRANCH  19  21
ENDBRANCH  17  19
ENDBRANCH   2  17
TORSDOF 6
ENDMDL
MODEL 6
REMARK VINA RESULT:      -9.3      5.112      9.992
REMARK  6 active torsions:
REMARK  status: ('A' for Active; 'I' for Inactive)
REMARK    1  A    between atoms: C9_18  and  S1_1 
REMARK    2  A    between atoms: N2_8  and  S1_1 
REMARK    3  A    between atoms: C12_21  and  N1_7 
REMARK    4  A    between atoms: C4_13  and  N1_7 
REMARK    5  A    between atoms: N2_8  and  N3_9 
REMARK    6  A    between atoms: C12_21  and  N3_9 
ROOT
HETATM    1  S2  UNK     1      20.383  -1.989  30.331  1.00  0.00    -0.039 SA
HETATM    2  C12 UNK     1      19.653  -1.284  31.665  1.00  0.00     0.191 C 
ENDROOT
BRANCH   2   3
HETATM    3  N1  UNK     1      18.647  -0.305  31.691  1.00  0.00    -0.332 N 
HETATM    4  H8  UNK     1      17.712  -0.709  31.684  1.00  0.00     0.168 HD
BRANCH   3   5
HETATM    5  C4  UNK     1      18.652   1.076  31.501  1.00  0.00     0.037 A 
HETATM    6  C5  UNK     1      18.263   1.925  32.533  1.00  0.00     0.067 A 
HETATM    7  C2  UNK     1      18.276   3.305  32.322  1.00  0.00     0.092 A 
HETATM    8  C1  UNK     1      18.669   3.869  31.107  1.00  0.00     0.004 A 
HETATM    9  O1  UNK     1      17.874   4.112  33.405  1.00  0.00    -0.275 OA
HETATM   10  C3  UNK     1      18.652   5.333  30.974  1.00  0.00    -0.043 A 
HETATM   11  C6  UNK     1      19.056   2.998  30.080  1.00  0.00     0.017 A 
HETATM   12  C10 UNK     1      19.066   5.970  29.680  1.00  0.00     0.049 C 
HETATM   13  C8  UNK     1      18.265   6.075  32.020  1.00  0.00     0.090 A 
HETATM   14  C11 UNK     1      17.849   5.495  33.308  1.00  0.00     0.288 A 
HETATM   15  O4  UNK     1      17.501   6.206  34.244  1.00  0.00    -0.260 OA
HETATM   16  C7  UNK     1      19.049   1.613  30.277  1.00  0.00     0.030 A 
ENDBRANCH   3   5
ENDBRANCH   2   3
BRANCH   2  17
HETATM   17  N3  UNK     1      20.098  -1.675  32.921  1.00  0.00    -0.266 N 
HETATM   18  H12 UNK     1      21.084  -1.778  33.136  1.00  0.00     0.190 HD
BRANCH  17  19
HETATM   19  N2  UNK     1      19.166  -2.007  33.977  1.00  0.00    -0.221 N 
HETATM   20  H9  UNK     1      18.213  -1.664  33.803  1.00  0.00     0.200 HD
BRANCH  19  21
HETATM   21  S1  UNK     1      19.741  -1.920  35.576  1.00  0.00     0.276 S 
HETATM   22  O2  UNK     1      21.125  -1.488  35.562  1.00  0.00    -0.199 OA
HETATM   23  O3  UNK     1      19.353  -3.109  36.310  1.00  0.00    -0.199 OA
BRANCH  21  24
HETATM   24  C9  UNK     1      18.785  -0.565  36.190  1.00  0.00     0.081 A 
HETATM   25  C13 UNK     1      17.760  -0.814  37.086  1.00  0.00     0.025 A 
HETATM   26  C15 UNK     1      17.005   0.255  37.570  1.00  0.00     0.002 A 
HETATM   27  C17 UNK     1      17.287   1.555  37.150  1.00  0.00     0.000 A 
HETATM   28  C16 UNK     1      18.324   1.786  36.247  1.00  0.00     0.002 A 
HETATM   29  C14 UNK     1      19.079   0.718  35.763  1.00  0.00     0.025 A 
ENDBRANCH  21  24
ENDBRANCH  19  21
ENDBRANCH  17  19
ENDBRANCH   2  17
TORSDOF 6
ENDMDL
MODEL 7
REMARK VINA RESULT:      -9.3      1.974      2.415
REMARK  6 active torsions:
REMARK  status: ('A' for Active; 'I' for Inactive)
REMARK    1  A    between atoms: C9_18  and  S1_1 
REMARK    2  A    between atoms: N2_8  and  S1_1 
REMARK    3  A    between atoms: C12_21  and  N1_7 
REMARK    4  A    between atoms: C4_13  and  N1_7 
REMARK    5  A    between atoms: N2_8  and  N3_9 
REMARK    6  A    between atoms: C12_21  and  N3_9 
ROOT
HETATM    1  S2  UNK     1      20.810  -3.249  37.273  1.00  0.00    -0.039 SA
HETATM    2  C12 UNK     1      19.483  -3.601  36.311  1.00  0.00     0.191 C 
ENDROOT
BRANCH   2   3
HETATM    3  N1  UNK     1      18.898  -4.852  36.061  1.00  0.00    -0.332 N 
HETATM    4  H8  UNK     1      17.882  -4.801  36.007  1.00  0.00     0.168 HD
BRANCH   3   5
HETATM    5  C4  UNK     1      19.383  -6.158  36.093  1.00  0.00     0.037 A 
HETATM    6  C5  UNK     1      19.010  -7.018  37.121  1.00  0.00     0.067 A 
HETATM    7  C2  UNK     1      19.507  -8.323  37.134  1.00  0.00     0.092 A 
HETATM    8  C1  UNK     1      20.368  -8.801  36.145  1.00  0.00     0.004 A 
HETATM    9  O1  UNK     1      19.092  -9.145  38.200  1.00  0.00    -0.275 OA
HETATM   10  C3  UNK     1      20.842 -10.189  36.237  1.00  0.00    -0.043 A 
HETATM   11  C6  UNK     1      20.732  -7.920  35.118  1.00  0.00     0.017 A 
HETATM   12  C10 UNK     1      21.771 -10.733  35.191  1.00  0.00     0.049 C 
HETATM   13  C8  UNK     1      20.431 -10.948  37.261  1.00  0.00     0.090 A 
HETATM   14  C11 UNK     1      19.522 -10.459  38.311  1.00  0.00     0.288 A 
HETATM   15  O4  UNK     1      19.167 -11.183  39.234  1.00  0.00    -0.260 OA
HETATM   16  C7  UNK     1      20.242  -6.610  35.092  1.00  0.00     0.030 A 
ENDBRANCH   3   5
ENDBRANCH   2   3
BRANCH   2  17
HETATM   17  N3  UNK     1      18.881  -2.547  35.638  1.00  0.00    -0.266 N 
HETATM   18  H12 UNK     1      17.993  -2.154  35.934  1.00  0.00     0.190 HD
BRANCH  17  19
HETATM   19  N2  UNK     1      19.469  -1.987  34.440  1.00  0.00    -0.221 N 
HETATM   20  H9  UNK     1      20.489  -1.878  34.500  1.00  0.00     0.200 HD
BRANCH  19  21
HETATM   21  S1  UNK     1      18.602  -0.752  33.653  1.00  0.00     0.276 S 
HETATM   22  O2  UNK     1      18.971   0.528  34.225  1.00  0.00    -0.199 OA
HETATM   23  O3  UNK     1      17.206  -1.124  33.532  1.00  0.00    -0.199 OA
BRANCH  21  24
HETATM   24  C9  UNK     1      19.326  -0.825  32.042  1.00  0.00     0.081 A 
HETATM   25  C13 UNK     1      19.333   0.312  31.253  1.00  0.00     0.025 A 
HETATM   26  C15 UNK     1      19.904   0.256  29.981  1.00  0.00     0.002 A 
HETATM   27  C17 UNK     1      20.458  -0.938  29.519  1.00  0.00     0.000 A 
HETATM   28  C16 UNK     1      20.442  -2.074  30.327  1.00  0.00     0.002 A 
HETATM   29  C14 UNK     1      19.872  -2.017  31.599  1.00  0.00     0.025 A 
ENDBRANCH  21  24
ENDBRANCH  19  21
ENDBRANCH  17  19
ENDBRANCH   2  17
TORSDOF 6
ENDMDL
MODEL 8
REMARK VINA RESULT:      -9.3      7.739     13.258
REMARK  6 active torsions:
REMARK  status: ('A' for Active; 'I' for Inactive)
REMARK    1  A    between atoms: C9_18  and  S1_1 
REMARK    2  A    between atoms: N2_8  and  S1_1 
REMARK    3  A    between atoms: C12_21  and  N1_7 
REMARK    4  A    between atoms: C4_13  and  N1_7 
REMARK    5  A    between atoms: N2_8  and  N3_9 
REMARK    6  A    between atoms: C12_21  and  N3_9 
ROOT
HETATM    1  S2  UNK     1      20.771   6.024  31.706  1.00  0.00    -0.039 SA
HETATM    2  C12 UNK     1      19.209   5.585  31.284  1.00  0.00     0.191 C 
ENDROOT
BRANCH   2   3
HETATM    3  N1  UNK     1      18.026   5.771  32.015  1.00  0.00    -0.332 N 
HETATM    4  H8  UNK     1      17.526   4.898  32.173  1.00  0.00     0.168 HD
BRANCH   3   5
HETATM    5  C4  UNK     1      17.288   6.900  32.370  1.00  0.00     0.037 A 
HETATM    6  C5  UNK     1      17.927   8.009  32.914  1.00  0.00     0.067 A 
HETATM    7  C2  UNK     1      17.171   9.130  33.261  1.00  0.00     0.092 A 
HETATM    8  C1  UNK     1      15.787   9.180  33.081  1.00  0.00     0.004 A 
HETATM    9  O1  UNK     1      17.875  10.222  33.805  1.00  0.00    -0.275 OA
HETATM   10  C3  UNK     1      15.071  10.401  33.475  1.00  0.00    -0.043 A 
HETATM   11  C6  UNK     1      15.162   8.052  32.533  1.00  0.00     0.017 A 
HETATM   12  C10 UNK     1      13.583  10.484  33.297  1.00  0.00     0.049 C 
HETATM   13  C8  UNK     1      15.766  11.423  33.990  1.00  0.00     0.090 A 
HETATM   14  C11 UNK     1      17.225  11.387  34.185  1.00  0.00     0.288 A 
HETATM   15  O4  UNK     1      17.828  12.343  34.659  1.00  0.00    -0.260 OA
HETATM   16  C7  UNK     1      15.907   6.922  32.179  1.00  0.00     0.030 A 
ENDBRANCH   3   5
ENDBRANCH   2   3
BRANCH   2  17
HETATM   17  N3  UNK     1      19.032   4.924  30.075  1.00  0.00    -0.266 N 
HETATM   18  H12 UNK     1      18.583   5.366  29.280  1.00  0.00     0.190 HD
BRANCH  17  19
HETATM   19  N2  UNK     1      19.437   3.545  29.907  1.00  0.00    -0.221 N 
HETATM   20  H9  UNK     1      20.324   3.440  29.399  1.00  0.00     0.200 HD
BRANCH  19  21
HETATM   21  S1  UNK     1      18.213   2.412  29.572  1.00  0.00     0.276 S 
HETATM   22  O2  UNK     1      17.873   2.480  28.164  1.00  0.00    -0.199 OA
HETATM   23  O3  UNK     1      17.173   2.489  30.580  1.00  0.00    -0.199 OA
BRANCH  21  24
HETATM   24  C9  UNK     1      19.096   0.900  29.816  1.00  0.00     0.081 A 
HETATM   25  C13 UNK     1      19.319   0.449  31.105  1.00  0.00     0.025 A 
HETATM   26  C15 UNK     1      20.017  -0.743  31.299  1.00  0.00     0.002 A 
HETATM   27  C17 UNK     1      20.481  -1.466  30.199  1.00  0.00     0.000 A 
HETATM   28  C16 UNK     1      20.246  -0.996  28.907  1.00  0.00     0.002 A 
HETATM   29  C14 UNK     1      19.548   0.196  28.713  1.00  0.00     0.025 A 
ENDBRANCH  21  24
ENDBRANCH  19  21
ENDBRANCH  17  19
ENDBRANCH   2  17
TORSDOF 6
ENDMDL
MODEL 9
REMARK VINA RESULT:      -9.2      5.381     11.144
REMARK  6 active torsions:
REMARK  status: ('A' for Active; 'I' for Inactive)
REMARK    1  A    between atoms: C9_18  and  S1_1 
REMARK    2  A    between atoms: N2_8  and  S1_1 
REMARK    3  A    between atoms: C12_21  and  N1_7 
REMARK    4  A    between atoms: C4_13  and  N1_7 
REMARK    5  A    between atoms: N2_8  and  N3_9 
REMARK    6  A    between atoms: C12_21  and  N3_9 
ROOT
HETATM    1  S2  UNK     1      17.896   1.799  28.661  1.00  0.00    -0.039 SA
HETATM    2  C12 UNK     1      18.821   2.450  29.898  1.00  0.00     0.191 C 
ENDROOT
BRANCH   2   3
HETATM    3  N1  UNK     1      19.332   3.752  30.010  1.00  0.00    -0.332 N 
HETATM    4  H8  UNK     1      20.079   3.934  29.342  1.00  0.00     0.168 HD
BRANCH   3   5
HETATM    5  C4  UNK     1      19.193   4.755  30.968  1.00  0.00     0.037 A 
HETATM    6  C5  UNK     1      17.946   5.024  31.523  1.00  0.00     0.067 A 
HETATM    7  C2  UNK     1      17.830   6.032  32.483  1.00  0.00     0.092 A 
HETATM    8  C1  UNK     1      18.926   6.784  32.909  1.00  0.00     0.004 A 
HETATM    9  O1  UNK     1      16.542   6.255  33.009  1.00  0.00    -0.275 OA
HETATM   10  C3  UNK     1      18.710   7.825  33.924  1.00  0.00    -0.043 A 
HETATM   11  C6  UNK     1      20.173   6.499  32.338  1.00  0.00     0.017 A 
HETATM   12  C10 UNK     1      19.867   8.654  34.401  1.00  0.00     0.049 C 
HETATM   13  C8  UNK     1      17.476   8.016  34.406  1.00  0.00     0.090 A 
HETATM   14  C11 UNK     1      16.310   7.230  33.967  1.00  0.00     0.288 A 
HETATM   15  O4  UNK     1      15.194   7.433  34.432  1.00  0.00    -0.260 OA
HETATM   16  C7  UNK     1      20.305   5.491  31.376  1.00  0.00     0.030 A 
ENDBRANCH   3   5
ENDBRANCH   2   3
BRANCH   2  17
HETATM   17  N3  UNK     1      19.167   1.611  30.949  1.00  0.00    -0.266 N 
HETATM   18  H12 UNK     1      19.759   1.920  31.713  1.00  0.00     0.190 HD
BRANCH  17  19
HETATM   19  N2  UNK     1      18.741   0.229  30.979  1.00  0.00    -0.221 N 
HETATM   20  H9  UNK     1      17.828   0.094  31.431  1.00  0.00     0.200 HD
BRANCH  19  21
HETATM   21  S1  UNK     1      19.935  -0.946  31.277  1.00  0.00     0.276 S 
HETATM   22  O2  UNK     1      21.241  -0.316  31.249  1.00  0.00    -0.199 OA
HETATM   23  O3  UNK     1      19.677  -2.131  30.481  1.00  0.00    -0.199 OA
BRANCH  21  24
HETATM   24  C9  UNK     1      19.588  -1.339  32.966  1.00  0.00     0.081 A 
HETATM   25  C13 UNK     1      18.563  -0.674  33.616  1.00  0.00     0.025 A 
HETATM   26  C15 UNK     1      18.289  -0.983  34.949  1.00  0.00     0.002 A 
HETATM   27  C17 UNK     1      19.045  -1.951  35.610  1.00  0.00     0.000 A 
HETATM   28  C16 UNK     1      20.075  -2.609  34.939  1.00  0.00     0.002 A 
HETATM   29  C14 UNK     1      20.349  -2.302  33.606  1.00  0.00     0.025 A 
ENDBRANCH  21  24
ENDBRANCH  19  21
ENDBRANCH  17  19
ENDBRANCH   2  17
TORSDOF 6
ENDMDL
MODEL 10
REMARK VINA RESULT:      -9.2      6.390     12.064
REMARK  6 active torsions:
REMARK  status: ('A' for Active; 'I' for Inactive)
REMARK    1  A    between atoms: C9_18  and  S1_1 
REMARK    2  A    between atoms: N2_8  and  S1_1 
REMARK    3  A    between atoms: C12_21  and  N1_7 
REMARK    4  A    between atoms: C4_13  and  N1_7 
REMARK    5  A    between atoms: N2_8  and  N3_9 
REMARK    6  A    between atoms: C12_21  and  N3_9 
ROOT
HETATM    1  S2  UNK     1      18.937   2.477  30.264  1.00  0.00    -0.039 SA
HETATM    2  C12 UNK     1      18.077   2.867  31.649  1.00  0.00     0.191 C 
ENDROOT
BRANCH   2   3
HETATM    3  N1  UNK     1      17.410   4.064  31.951  1.00  0.00    -0.332 N 
HETATM    4  H8  UNK     1      16.468   4.091  31.567  1.00  0.00     0.168 HD
BRANCH   3   5
HETATM    5  C4  UNK     1      17.832   5.291  32.462  1.00  0.00     0.037 A 
HETATM    6  C5  UNK     1      16.929   6.341  32.595  1.00  0.00     0.067 A 
HETATM    7  C2  UNK     1      17.372   7.561  33.110  1.00  0.00     0.092 A 
HETATM    8  C1  UNK     1      18.697   7.767  33.500  1.00  0.00     0.004 A 
HETATM    9  O1  UNK     1      16.411   8.584  33.223  1.00  0.00    -0.275 OA
HETATM   10  C3  UNK     1      19.075   9.084  34.032  1.00  0.00    -0.043 A 
HETATM   11  C6  UNK     1      19.591   6.698  33.358  1.00  0.00     0.017 A 
HETATM   12  C10 UNK     1      20.492   9.339  34.457  1.00  0.00     0.049 C 
HETATM   13  C8  UNK     1      18.140  10.039  34.128  1.00  0.00     0.090 A 
HETATM   14  C11 UNK     1      16.739   9.836  33.722  1.00  0.00     0.288 A 
HETATM   15  O4  UNK     1      15.911  10.733  33.824  1.00  0.00    -0.260 OA
HETATM   16  C7  UNK     1      19.161   5.470  32.844  1.00  0.00     0.030 A 
ENDBRANCH   3   5
ENDBRANCH   2   3
BRANCH   2  17
HETATM   17  N3  UNK     1      18.022   1.916  32.659  1.00  0.00    -0.266 N 
HETATM   18  H12 UNK     1      17.397   2.007  33.453  1.00  0.00     0.190 HD
BRANCH  17  19
HETATM   19  N2  UNK     1      18.900   0.766  32.656  1.00  0.00    -0.221 N 
HETATM   20  H9  UNK     1      19.317   0.574  31.736  1.00  0.00     0.200 HD
BRANCH  19  21
HETATM   21  S1  UNK     1      18.426  -0.577  33.587  1.00  0.00     0.276 S 
HETATM   22  O2  UNK     1      19.608  -1.291  34.030  1.00  0.00    -0.199 OA
HETATM   23  O3  UNK     1      17.348  -1.286  32.924  1.00  0.00    -0.199 OA
BRANCH  21  24
HETATM   24  C9  UNK     1      17.752   0.234  35.006  1.00  0.00     0.081 A 
HETATM   25  C13 UNK     1      18.581   1.011  35.796  1.00  0.00     0.025 A 
HETATM   26  C15 UNK     1      18.050   1.651  36.917  1.00  0.00     0.002 A 
HETATM   27  C17 UNK     1      16.699   1.503  37.229  1.00  0.00     0.000 A 
HETATM   28  C16 UNK     1      15.878   0.717  36.421  1.00  0.00     0.002 A 
HETATM   29  C14 UNK     1      16.408   0.077  35.300  1.00  0.00     0.025 A 
ENDBRANCH  21  24
ENDBRANCH  19  21
ENDBRANCH  17  19
ENDBRANCH   2  17
TORSDOF 6
ENDMDL
