MODEL 1
REMARK VINA RESULT:      -8.4      0.000      0.000
REMARK  4 active torsions:
REMARK  status: ('A' for Active; 'I' for Inactive)
REMARK    1  A    between atoms: C7_12  and  O3_3 
REMARK    2  A    between atoms: C12_17  and  O4_4 
REMARK    3  A    between atoms: C15_20  and  O5_5 
REMARK    4  A    between atoms: C1_6  and  C3_8 
ROOT
HETATM    1  O1  UNK     1      19.359  -1.113  17.612  1.00  0.00    -0.340 OA
HETATM    2  O2  UNK     1      19.101   2.341  15.413  1.00  0.00    -0.292 OA
HETATM    3  C1  UNK     1      18.787  -1.122  16.294  1.00  0.00     0.169 C 
HETATM    4  C2  UNK     1      19.411  -0.038  15.419  1.00  0.00     0.121 C 
HETATM    5  C4  UNK     1      19.139   1.315  17.539  1.00  0.00     0.076 A 
HETATM    6  C5  UNK     1      19.184   1.306  16.062  1.00  0.00     0.167 C 
HETATM    7  C6  UNK     1      19.251   0.106  18.231  1.00  0.00     0.089 A 
HETATM    8  C7  UNK     1      19.028   2.521  18.236  1.00  0.00     0.085 A 
HETATM    9  C8  UNK     1      19.287   0.107  19.627  1.00  0.00     0.074 A 
HETATM   10  C11 UNK     1      19.044   2.513  19.631  1.00  0.00     0.074 A 
HETATM   11  C12 UNK     1      19.178   1.310  20.325  1.00  0.00     0.071 A 
ENDROOT
BRANCH   3  12
HETATM   12  C3  UNK     1      18.994  -2.497  15.693  1.00  0.00    -0.028 A 
HETATM   13  C10 UNK     1      17.941  -3.139  15.044  1.00  0.00     0.012 A 
HETATM   14  C14 UNK     1      18.132  -4.405  14.490  1.00  0.00     0.037 A 
HETATM   15  C15 UNK     1      19.376  -5.027  14.585  1.00  0.00     0.065 A 
HETATM   16  C13 UNK     1      20.430  -4.384  15.236  1.00  0.00     0.037 A 
HETATM   17  C9  UNK     1      20.239  -3.119  15.789  1.00  0.00     0.012 A 
BRANCH  15  18
HETATM   18  O5  UNK     1      19.563  -6.262  14.046  1.00  0.00    -0.361 OA
HETATM   19  H12 UNK     1      18.699  -6.630  13.793  1.00  0.00     0.217 HD
ENDBRANCH  15  18
ENDBRANCH   3  12
BRANCH   8  20
HETATM   20  O3  UNK     1      18.912   3.725  17.610  1.00  0.00    -0.360 OA
HETATM   21  H10 UNK     1      18.289   3.646  16.867  1.00  0.00     0.217 HD
ENDBRANCH   8  20
BRANCH  11  22
HETATM   22  O4  UNK     1      19.201   1.310  21.687  1.00  0.00    -0.361 OA
HETATM   23  H11 UNK     1      18.943   0.429  22.007  1.00  0.00     0.217 HD
ENDBRANCH  11  22
TORSDOF 4
ENDMDL
MODEL 2
REMARK VINA RESULT:      -8.4     15.788     18.402
REMARK  4 active torsions:
REMARK  status: ('A' for Active; 'I' for Inactive)
REMARK    1  A    between atoms: C7_12  and  O3_3 
REMARK    2  A    between atoms: C12_17  and  O4_4 
REMARK    3  A    between atoms: C15_20  and  O5_5 
REMARK    4  A    between atoms: C1_6  and  C3_8 
ROOT
HETATM    1  O1  UNK     1      17.907   8.540  33.097  1.00  0.00    -0.340 OA
HETATM    2  O2  UNK     1      14.473   7.321  31.213  1.00  0.00    -0.292 OA
HETATM    3  C1  UNK     1      17.798   7.215  32.554  1.00  0.00     0.169 C 
HETATM    4  C2  UNK     1      16.864   7.193  31.346  1.00  0.00     0.121 C 
HETATM    5  C4  UNK     1      15.486   8.691  32.846  1.00  0.00     0.076 A 
HETATM    6  C5  UNK     1      15.503   7.684  31.766  1.00  0.00     0.167 C 
HETATM    7  C6  UNK     1      16.692   9.079  33.436  1.00  0.00     0.089 A 
HETATM    8  C7  UNK     1      14.283   9.281  33.245  1.00  0.00     0.085 A 
HETATM    9  C8  UNK     1      16.700  10.085  34.404  1.00  0.00     0.074 A 
HETATM   10  C11 UNK     1      14.295  10.272  34.228  1.00  0.00     0.074 A 
HETATM   11  C12 UNK     1      15.501  10.676  34.803  1.00  0.00     0.071 A 
ENDROOT
BRANCH   3  12
HETATM   12  C3  UNK     1      19.186   6.735  32.182  1.00  0.00    -0.028 A 
HETATM   13  C10 UNK     1      19.417   6.185  30.922  1.00  0.00     0.012 A 
HETATM   14  C14 UNK     1      20.695   5.744  30.578  1.00  0.00     0.037 A 
HETATM   15  C15 UNK     1      21.740   5.853  31.495  1.00  0.00     0.065 A 
HETATM   16  C13 UNK     1      21.508   6.403  32.756  1.00  0.00     0.037 A 
HETATM   17  C9  UNK     1      20.230   6.844  33.099  1.00  0.00     0.012 A 
BRANCH  15  18
HETATM   18  O5  UNK     1      22.987   5.422  31.161  1.00  0.00    -0.361 OA
HETATM   19  H12 UNK     1      23.644   5.989  31.599  1.00  0.00     0.217 HD
ENDBRANCH  15  18
ENDBRANCH   3  12
BRANCH   8  20
HETATM   20  O3  UNK     1      13.081   8.937  32.706  1.00  0.00    -0.360 OA
HETATM   21  H10 UNK     1      13.219   8.545  31.828  1.00  0.00     0.217 HD
ENDBRANCH   8  20
BRANCH  11  22
HETATM   22  O4  UNK     1      15.507  11.650  35.755  1.00  0.00    -0.361 OA
HETATM   23  H11 UNK     1      14.624  11.703  36.158  1.00  0.00     0.217 HD
ENDBRANCH  11  22
TORSDOF 4
ENDMDL
MODEL 3
REMARK VINA RESULT:      -8.2     13.247     17.573
REMARK  4 active torsions:
REMARK  status: ('A' for Active; 'I' for Inactive)
REMARK    1  A    between atoms: C7_12  and  O3_3 
REMARK    2  A    between atoms: C12_17  and  O4_4 
REMARK    3  A    between atoms: C15_20  and  O5_5 
REMARK    4  A    between atoms: C1_6  and  C3_8 
ROOT
HETATM    1  O1  UNK     1      19.146  -0.001  32.941  1.00  0.00    -0.340 OA
HETATM    2  O2  UNK     1      21.066  -3.609  32.587  1.00  0.00    -0.292 OA
HETATM    3  C1  UNK     1      18.940  -1.041  33.910  1.00  0.00     0.169 C 
HETATM    4  C2  UNK     1      20.181  -1.920  34.042  1.00  0.00     0.121 C 
HETATM    5  C4  UNK     1      20.146  -1.714  31.521  1.00  0.00     0.076 A 
HETATM    6  C5  UNK     1      20.498  -2.530  32.702  1.00  0.00     0.167 C 
HETATM    7  C6  UNK     1      19.509  -0.484  31.709  1.00  0.00     0.089 A 
HETATM    8  C7  UNK     1      20.484  -2.145  30.236  1.00  0.00     0.085 A 
HETATM    9  C8  UNK     1      19.240   0.333  30.610  1.00  0.00     0.074 A 
HETATM   10  C11 UNK     1      20.193  -1.333  29.139  1.00  0.00     0.074 A 
HETATM   11  C12 UNK     1      19.577  -0.095  29.326  1.00  0.00     0.071 A 
ENDROOT
BRANCH   3  12
HETATM   12  C3  UNK     1      18.582  -0.397  35.233  1.00  0.00    -0.028 A 
HETATM   13  C10 UNK     1      18.212  -1.192  36.316  1.00  0.00     0.012 A 
HETATM   14  C14 UNK     1      17.883  -0.599  37.536  1.00  0.00     0.037 A 
HETATM   15  C15 UNK     1      17.925   0.788  37.670  1.00  0.00     0.065 A 
HETATM   16  C13 UNK     1      18.296   1.584  36.585  1.00  0.00     0.037 A 
HETATM   17  C9  UNK     1      18.625   0.990  35.367  1.00  0.00     0.012 A 
BRANCH  15  18
HETATM   18  O5  UNK     1      17.603   1.368  38.859  1.00  0.00    -0.361 OA
HETATM   19  H12 UNK     1      17.556   0.678  39.543  1.00  0.00     0.217 HD
ENDBRANCH  15  18
ENDBRANCH   3  12
BRANCH   8  20
HETATM   20  O3  UNK     1      21.100  -3.336  29.997  1.00  0.00    -0.360 OA
HETATM   21  H10 UNK     1      21.798  -3.213  29.331  1.00  0.00     0.217 HD
ENDBRANCH   8  20
BRANCH  11  22
HETATM   22  O4  UNK     1      19.304   0.697  28.252  1.00  0.00    -0.361 OA
HETATM   23  H11 UNK     1      18.353   0.896  28.240  1.00  0.00     0.217 HD
ENDBRANCH  11  22
TORSDOF 4
ENDMDL
MODEL 4
REMARK VINA RESULT:      -8.0     12.741     15.785
REMARK  4 active torsions:
REMARK  status: ('A' for Active; 'I' for Inactive)
REMARK    1  A    between atoms: C7_12  and  O3_3 
REMARK    2  A    between atoms: C12_17  and  O4_4 
REMARK    3  A    between atoms: C15_20  and  O5_5 
REMARK    4  A    between atoms: C1_6  and  C3_8 
ROOT
HETATM    1  O1  UNK     1      18.585   1.905  31.909  1.00  0.00    -0.340 OA
HETATM    2  O2  UNK     1      19.437   0.281  28.239  1.00  0.00    -0.292 OA
HETATM    3  C1  UNK     1      19.095   2.723  30.844  1.00  0.00     0.169 C 
HETATM    4  C2  UNK     1      18.665   2.182  29.483  1.00  0.00     0.121 C 
HETATM    5  C4  UNK     1      19.275  -0.017  30.575  1.00  0.00     0.076 A 
HETATM    6  C5  UNK     1      19.175   0.772  29.330  1.00  0.00     0.167 C 
HETATM    7  C6  UNK     1      18.953   0.589  31.793  1.00  0.00     0.089 A 
HETATM    8  C7  UNK     1      19.646  -1.363  30.532  1.00  0.00     0.085 A 
HETATM    9  C8  UNK     1      18.968  -0.164  32.968  1.00  0.00     0.074 A 
HETATM   10  C11 UNK     1      19.680  -2.105  31.714  1.00  0.00     0.074 A 
HETATM   11  C12 UNK     1      19.337  -1.509  32.928  1.00  0.00     0.071 A 
ENDROOT
BRANCH   3  12
HETATM   12  C3  UNK     1      18.600   4.140  31.050  1.00  0.00    -0.028 A 
HETATM   13  C10 UNK     1      17.793   4.442  32.146  1.00  0.00     0.012 A 
HETATM   14  C14 UNK     1      17.337   5.747  32.337  1.00  0.00     0.037 A 
HETATM   15  C15 UNK     1      17.688   6.748  31.432  1.00  0.00     0.065 A 
HETATM   16  C13 UNK     1      18.496   6.444  30.335  1.00  0.00     0.037 A 
HETATM   17  C9  UNK     1      18.951   5.140  30.145  1.00  0.00     0.012 A 
BRANCH  15  18
HETATM   18  O5  UNK     1      17.243   8.020  31.616  1.00  0.00    -0.361 OA
HETATM   19  H12 UNK     1      17.065   8.420  30.748  1.00  0.00     0.217 HD
ENDBRANCH  15  18
ENDBRANCH   3  12
BRANCH   8  20
HETATM   20  O3  UNK     1      19.974  -2.000  29.374  1.00  0.00    -0.360 OA
HETATM   21  H10 UNK     1      19.395  -2.772  29.253  1.00  0.00     0.217 HD
ENDBRANCH   8  20
BRANCH  11  22
HETATM   22  O4  UNK     1      19.363  -2.241  34.076  1.00  0.00    -0.361 OA
HETATM   23  H11 UNK     1      19.631  -1.665  34.811  1.00  0.00     0.217 HD
ENDBRANCH  11  22
TORSDOF 4
ENDMDL
MODEL 5
REMARK VINA RESULT:      -8.0     12.598     16.605
REMARK  4 active torsions:
REMARK  status: ('A' for Active; 'I' for Inactive)
REMARK    1  A    between atoms: C7_12  and  O3_3 
REMARK    2  A    between atoms: C12_17  and  O4_4 
REMARK    3  A    between atoms: C15_20  and  O5_5 
REMARK    4  A    between atoms: C1_6  and  C3_8 
ROOT
HETATM    1  O1  UNK     1      19.029   0.325  32.810  1.00  0.00    -0.340 OA
HETATM    2  O2  UNK     1      20.430  -2.396  30.078  1.00  0.00    -0.292 OA
HETATM    3  C1  UNK     1      18.887  -1.086  33.039  1.00  0.00     0.169 C 
HETATM    4  C2  UNK     1      20.024  -1.865  32.382  1.00  0.00     0.121 C 
HETATM    5  C4  UNK     1      19.553  -0.246  30.497  1.00  0.00     0.076 A 
HETATM    6  C5  UNK     1      20.019  -1.588  30.901  1.00  0.00     0.167 C 
HETATM    7  C6  UNK     1      19.104   0.644  31.478  1.00  0.00     0.089 A 
HETATM    8  C7  UNK     1      19.599   0.147  29.156  1.00  0.00     0.085 A 
HETATM    9  C8  UNK     1      18.733   1.941  31.121  1.00  0.00     0.074 A 
HETATM   10  C11 UNK     1      19.206   1.438  28.803  1.00  0.00     0.074 A 
HETATM   11  C12 UNK     1      18.779   2.335  29.783  1.00  0.00     0.071 A 
ENDROOT
BRANCH   3  12
HETATM   12  C3  UNK     1      18.853  -1.326  34.535  1.00  0.00    -0.028 A 
HETATM   13  C10 UNK     1      17.856  -0.737  35.311  1.00  0.00     0.012 A 
HETATM   14  C14 UNK     1      17.824  -0.958  36.688  1.00  0.00     0.037 A 
HETATM   15  C15 UNK     1      18.788  -1.768  37.287  1.00  0.00     0.065 A 
HETATM   16  C13 UNK     1      19.785  -2.358  36.509  1.00  0.00     0.037 A 
HETATM   17  C9  UNK     1      19.817  -2.136  35.132  1.00  0.00     0.012 A 
BRANCH  15  18
HETATM   18  O5  UNK     1      18.758  -1.984  38.630  1.00  0.00    -0.361 OA
HETATM   19  H12 UNK     1      19.160  -1.222  39.080  1.00  0.00     0.217 HD
ENDBRANCH  15  18
ENDBRANCH   3  12
BRANCH   8  20
HETATM   20  O3  UNK     1      20.022  -0.682  28.162  1.00  0.00    -0.360 OA
HETATM   21  H10 UNK     1      19.471  -1.483  28.149  1.00  0.00     0.217 HD
ENDBRANCH   8  20
BRANCH  11  22
HETATM   22  O4  UNK     1      18.406   3.597  29.433  1.00  0.00    -0.361 OA
HETATM   23  H11 UNK     1      17.636   3.547  28.842  1.00  0.00     0.217 HD
ENDBRANCH  11  22
TORSDOF 4
ENDMDL
MODEL 6
REMARK VINA RESULT:      -7.9     13.819     16.790
REMARK  4 active torsions:
REMARK  status: ('A' for Active; 'I' for Inactive)
REMARK    1  A    between atoms: C7_12  and  O3_3 
REMARK    2  A    between atoms: C12_17  and  O4_4 
REMARK    3  A    between atoms: C15_20  and  O5_5 
REMARK    4  A    between atoms: C1_6  and  C3_8 
ROOT
HETATM    1  O1  UNK     1      18.023   2.668  32.796  1.00  0.00    -0.340 OA
HETATM    2  O2  UNK     1      19.447   1.051  29.305  1.00  0.00    -0.292 OA
HETATM    3  C1  UNK     1      18.718   3.483  31.839  1.00  0.00     0.169 C 
HETATM    4  C2  UNK     1      18.512   2.958  30.421  1.00  0.00     0.121 C 
HETATM    5  C4  UNK     1      18.892   0.742  31.579  1.00  0.00     0.076 A 
HETATM    6  C5  UNK     1      19.015   1.540  30.342  1.00  0.00     0.167 C 
HETATM    7  C6  UNK     1      18.381   1.346  32.732  1.00  0.00     0.089 A 
HETATM    8  C7  UNK     1      19.241  -0.611  31.586  1.00  0.00     0.085 A 
HETATM    9  C8  UNK     1      18.187   0.586  33.886  1.00  0.00     0.074 A 
HETATM   10  C11 UNK     1      19.064  -1.361  32.750  1.00  0.00     0.074 A 
HETATM   11  C12 UNK     1      18.533  -0.766  33.895  1.00  0.00     0.071 A 
ENDROOT
BRANCH   3  12
HETATM   12  C3  UNK     1      18.220   4.908  31.973  1.00  0.00    -0.028 A 
HETATM   13  C10 UNK     1      17.626   5.328  33.161  1.00  0.00     0.012 A 
HETATM   14  C14 UNK     1      17.168   6.641  33.285  1.00  0.00     0.037 A 
HETATM   15  C15 UNK     1      17.305   7.530  32.220  1.00  0.00     0.065 A 
HETATM   16  C13 UNK     1      17.900   7.108  31.031  1.00  0.00     0.037 A 
HETATM   17  C9  UNK     1      18.358   5.797  30.908  1.00  0.00     0.012 A 
BRANCH  15  18
HETATM   18  O5  UNK     1      16.858   8.809  32.340  1.00  0.00    -0.361 OA
HETATM   19  H12 UNK     1      16.255   8.863  33.101  1.00  0.00     0.217 HD
ENDBRANCH  15  18
ENDBRANCH   3  12
BRANCH   8  20
HETATM   20  O3  UNK     1      19.746  -1.247  30.493  1.00  0.00    -0.360 OA
HETATM   21  H10 UNK     1      19.603  -0.698  29.703  1.00  0.00     0.217 HD
ENDBRANCH   8  20
BRANCH  11  22
HETATM   22  O4  UNK     1      18.354  -1.505  35.024  1.00  0.00    -0.361 OA
HETATM   23  H11 UNK     1      19.128  -2.080  35.152  1.00  0.00     0.217 HD
ENDBRANCH  11  22
TORSDOF 4
ENDMDL
MODEL 7
REMARK VINA RESULT:      -7.8     13.331     15.320
REMARK  4 active torsions:
REMARK  status: ('A' for Active; 'I' for Inactive)
REMARK    1  A    between atoms: C7_12  and  O3_3 
REMARK    2  A    between atoms: C12_17  and  O4_4 
REMARK    3  A    between atoms: C15_20  and  O5_5 
REMARK    4  A    between atoms: C1_6  and  C3_8 
ROOT
HETATM    1  O1  UNK     1       9.542   5.506   9.682  1.00  0.00    -0.340 OA
HETATM    2  O2  UNK     1       9.428   6.585   5.725  1.00  0.00    -0.292 OA
HETATM    3  C1  UNK     1       8.546   6.421   9.198  1.00  0.00     0.169 C 
HETATM    4  C2  UNK     1       8.203   6.135   7.738  1.00  0.00     0.121 C 
HETATM    5  C4  UNK     1      10.716   5.891   7.578  1.00  0.00     0.076 A 
HETATM    6  C5  UNK     1       9.453   6.258   6.906  1.00  0.00     0.167 C 
HETATM    7  C6  UNK     1      10.686   5.514   8.924  1.00  0.00     0.089 A 
HETATM    8  C7  UNK     1      11.919   5.879   6.868  1.00  0.00     0.085 A 
HETATM    9  C8  UNK     1      11.858   5.090   9.553  1.00  0.00     0.074 A 
HETATM   10  C11 UNK     1      13.091   5.474   7.508  1.00  0.00     0.074 A 
HETATM   11  C12 UNK     1      13.060   5.076   8.845  1.00  0.00     0.071 A 
ENDROOT
BRANCH   3  12
HETATM   12  C3  UNK     1       7.320   6.302  10.081  1.00  0.00    -0.028 A 
HETATM   13  C10 UNK     1       6.633   5.092  10.159  1.00  0.00     0.012 A 
HETATM   14  C14 UNK     1       5.505   4.983  10.973  1.00  0.00     0.037 A 
HETATM   15  C15 UNK     1       5.065   6.084  11.706  1.00  0.00     0.065 A 
HETATM   16  C13 UNK     1       5.753   7.295  11.627  1.00  0.00     0.037 A 
HETATM   17  C9  UNK     1       6.881   7.404  10.814  1.00  0.00     0.012 A 
BRANCH  15  18
HETATM   18  O5  UNK     1       3.964   5.979  12.499  1.00  0.00    -0.361 OA
HETATM   19  H12 UNK     1       4.249   5.834  13.417  1.00  0.00     0.217 HD
ENDBRANCH  15  18
ENDBRANCH   3  12
BRANCH   8  20
HETATM   20  O3  UNK     1      12.004   6.240   5.558  1.00  0.00    -0.360 OA
HETATM   21  H10 UNK     1      12.880   6.626   5.383  1.00  0.00     0.217 HD
ENDBRANCH   8  20
BRANCH  11  22
HETATM   22  O4  UNK     1      14.207   4.674   9.461  1.00  0.00    -0.361 OA
HETATM   23  H11 UNK     1      14.861   4.434   8.784  1.00  0.00     0.217 HD
ENDBRANCH  11  22
TORSDOF 4
ENDMDL
MODEL 8
REMARK VINA RESULT:      -7.6     14.122     17.036
REMARK  4 active torsions:
REMARK  status: ('A' for Active; 'I' for Inactive)
REMARK    1  A    between atoms: C7_12  and  O3_3 
REMARK    2  A    between atoms: C12_17  and  O4_4 
REMARK    3  A    between atoms: C15_20  and  O5_5 
REMARK    4  A    between atoms: C1_6  and  C3_8 
ROOT
HETATM    1  O1  UNK     1      16.765   5.568  32.327  1.00  0.00    -0.340 OA
HETATM    2  O2  UNK     1      19.703   8.116  33.634  1.00  0.00    -0.292 OA
HETATM    3  C1  UNK     1      18.134   5.372  31.938  1.00  0.00     0.169 C 
HETATM    4  C2  UNK     1      19.087   5.881  33.016  1.00  0.00     0.121 C 
HETATM    5  C4  UNK     1      17.437   7.797  33.054  1.00  0.00     0.076 A 
HETATM    6  C5  UNK     1      18.830   7.347  33.249  1.00  0.00     0.167 C 
HETATM    7  C6  UNK     1      16.477   6.876  32.625  1.00  0.00     0.089 A 
HETATM    8  C7  UNK     1      17.072   9.117  33.336  1.00  0.00     0.085 A 
HETATM    9  C8  UNK     1      15.142   7.267  32.510  1.00  0.00     0.074 A 
HETATM   10  C11 UNK     1      15.740   9.507  33.199  1.00  0.00     0.074 A 
HETATM   11  C12 UNK     1      14.776   8.583  32.792  1.00  0.00     0.071 A 
ENDROOT
BRANCH   3  12
HETATM   12  C3  UNK     1      18.348   3.896  31.671  1.00  0.00    -0.028 A 
HETATM   13  C10 UNK     1      18.640   3.458  30.381  1.00  0.00     0.012 A 
HETATM   14  C14 UNK     1      18.838   2.099  30.135  1.00  0.00     0.037 A 
HETATM   15  C15 UNK     1      18.744   1.180  31.179  1.00  0.00     0.065 A 
HETATM   16  C13 UNK     1      18.451   1.620  32.471  1.00  0.00     0.037 A 
HETATM   17  C9  UNK     1      18.253   2.978  32.716  1.00  0.00     0.012 A 
BRANCH  15  18
HETATM   18  O5  UNK     1      18.935  -0.145  30.940  1.00  0.00    -0.361 OA
HETATM   19  H12 UNK     1      18.344  -0.424  30.220  1.00  0.00     0.217 HD
ENDBRANCH  15  18
ENDBRANCH   3  12
BRANCH   8  20
HETATM   20  O3  UNK     1      17.968  10.054  33.753  1.00  0.00    -0.360 OA
HETATM   21  H10 UNK     1      17.790  10.897  33.301  1.00  0.00     0.217 HD
ENDBRANCH   8  20
BRANCH  11  22
HETATM   22  O4  UNK     1      13.475   8.968  32.669  1.00  0.00    -0.361 OA
HETATM   23  H11 UNK     1      13.395   9.570  31.910  1.00  0.00     0.217 HD
ENDBRANCH  11  22
TORSDOF 4
ENDMDL
MODEL 9
REMARK VINA RESULT:      -7.6     18.230     21.407
REMARK  4 active torsions:
REMARK  status: ('A' for Active; 'I' for Inactive)
REMARK    1  A    between atoms: C7_12  and  O3_3 
REMARK    2  A    between atoms: C12_17  and  O4_4 
REMARK    3  A    between atoms: C15_20  and  O5_5 
REMARK    4  A    between atoms: C1_6  and  C3_8 
ROOT
HETATM    1  O1  UNK     1      20.657  -6.155  35.763  1.00  0.00    -0.340 OA
HETATM    2  O2  UNK     1      20.691  -7.402  39.671  1.00  0.00    -0.292 OA
HETATM    3  C1  UNK     1      19.867  -5.482  36.755  1.00  0.00     0.169 C 
HETATM    4  C2  UNK     1      20.524  -5.571  38.131  1.00  0.00     0.121 C 
HETATM    5  C4  UNK     1      20.909  -7.957  37.387  1.00  0.00     0.076 A 
HETATM    6  C5  UNK     1      20.685  -7.020  38.507  1.00  0.00     0.167 C 
HETATM    7  C6  UNK     1      20.904  -7.467  36.077  1.00  0.00     0.089 A 
HETATM    8  C7  UNK     1      21.165  -9.309  37.633  1.00  0.00     0.085 A 
HETATM    9  C8  UNK     1      21.190  -8.324  35.014  1.00  0.00     0.074 A 
HETATM   10  C11 UNK     1      21.430 -10.165  36.564  1.00  0.00     0.074 A 
HETATM   11  C12 UNK     1      21.447  -9.674  35.258  1.00  0.00     0.071 A 
ENDROOT
BRANCH   3  12
HETATM   12  C3  UNK     1      19.688  -4.039  36.327  1.00  0.00    -0.028 A 
HETATM   13  C10 UNK     1      20.237  -3.598  35.125  1.00  0.00     0.012 A 
HETATM   14  C14 UNK     1      20.072  -2.270  34.729  1.00  0.00     0.037 A 
HETATM   15  C15 UNK     1      19.358  -1.386  35.537  1.00  0.00     0.065 A 
HETATM   16  C13 UNK     1      18.809  -1.829  36.741  1.00  0.00     0.037 A 
HETATM   17  C9  UNK     1      18.974  -3.156  37.135  1.00  0.00     0.012 A 
BRANCH  15  18
HETATM   18  O5  UNK     1      19.198  -0.091  35.153  1.00  0.00    -0.361 OA
HETATM   19  H12 UNK     1      19.822   0.465  35.650  1.00  0.00     0.217 HD
ENDBRANCH  15  18
ENDBRANCH   3  12
BRANCH   8  20
HETATM   20  O3  UNK     1      21.177  -9.838  38.888  1.00  0.00    -0.360 OA
HETATM   21  H10 UNK     1      21.878  -9.414  39.413  1.00  0.00     0.217 HD
ENDBRANCH   8  20
BRANCH  11  22
HETATM   22  O4  UNK     1      21.715 -10.513  34.220  1.00  0.00    -0.361 OA
HETATM   23  H11 UNK     1      22.112 -10.002  33.495  1.00  0.00     0.217 HD
ENDBRANCH  11  22
TORSDOF 4
ENDMDL
MODEL 10
REMARK VINA RESULT:      -7.5     15.399     18.342
REMARK  4 active torsions:
REMARK  status: ('A' for Active; 'I' for Inactive)
REMARK    1  A    between atoms: C7_12  and  O3_3 
REMARK    2  A    between atoms: C12_17  and  O4_4 
REMARK    3  A    between atoms: C15_20  and  O5_5 
REMARK    4  A    between atoms: C1_6  and  C3_8 
ROOT
HETATM    1  O1  UNK     1      18.172   3.970  34.300  1.00  0.00    -0.340 OA
HETATM    2  O2  UNK     1      18.283   1.959  30.726  1.00  0.00    -0.292 OA
HETATM    3  C1  UNK     1      18.716   4.591  33.125  1.00  0.00     0.169 C 
HETATM    4  C2  UNK     1      18.042   4.058  31.863  1.00  0.00     0.121 C 
HETATM    5  C4  UNK     1      18.320   1.861  33.085  1.00  0.00     0.076 A 
HETATM    6  C5  UNK     1      18.243   2.567  31.789  1.00  0.00     0.167 C 
HETATM    7  C6  UNK     1      18.257   2.602  34.269  1.00  0.00     0.089 A 
HETATM    8  C7  UNK     1      18.410   0.467  33.128  1.00  0.00     0.085 A 
HETATM    9  C8  UNK     1      18.251   1.944  35.500  1.00  0.00     0.074 A 
HETATM   10  C11 UNK     1      18.424  -0.184  34.362  1.00  0.00     0.074 A 
HETATM   11  C12 UNK     1      18.339   0.552  35.545  1.00  0.00     0.071 A 
ENDROOT
BRANCH   3  12
HETATM   12  C3  UNK     1      18.535   6.090  33.249  1.00  0.00    -0.028 A 
HETATM   13  C10 UNK     1      17.442   6.712  32.648  1.00  0.00     0.012 A 
HETATM   14  C14 UNK     1      17.276   8.093  32.763  1.00  0.00     0.037 A 
HETATM   15  C15 UNK     1      18.203   8.849  33.479  1.00  0.00     0.065 A 
HETATM   16  C13 UNK     1      19.297   8.226  34.080  1.00  0.00     0.037 A 
HETATM   17  C9  UNK     1      19.463   6.846  33.965  1.00  0.00     0.012 A 
BRANCH  15  18
HETATM   18  O5  UNK     1      18.042  10.195  33.591  1.00  0.00    -0.361 OA
HETATM   19  H12 UNK     1      17.955  10.426  34.531  1.00  0.00     0.217 HD
ENDBRANCH  15  18
ENDBRANCH   3  12
BRANCH   8  20
HETATM   20  O3  UNK     1      18.478  -0.301  32.005  1.00  0.00    -0.360 OA
HETATM   21  H10 UNK     1      18.974   0.174  31.317  1.00  0.00     0.217 HD
ENDBRANCH   8  20
BRANCH  11  22
HETATM   22  O4  UNK     1      18.344  -0.090  36.746  1.00  0.00    -0.361 OA
HETATM   23  H11 UNK     1      17.818  -0.904  36.671  1.00  0.00     0.217 HD
ENDBRANCH  11  22
TORSDOF 4
ENDMDL
