MODEL 1
REMARK VINA RESULT:      -9.8      0.000      0.000
REMARK  7 active torsions:
REMARK  status: ('A' for Active; 'I' for Inactive)
REMARK    1  A    between atoms: C16_23  and  O3_3 
REMARK    2  A    between atoms: C24_31  and  O3_3 
REMARK    3  A    between atoms: C5_12  and  N1_5 
REMARK    4  A    between atoms: C6_13  and  N2_6 
REMARK    5  A    between atoms: C14_21  and  N3_7 
REMARK       I    between atoms: C9_16  and  N3_7 
REMARK    6  A    between atoms: C5_12  and  C7_14 
REMARK    7  A    between atoms: C6_13  and  C9_16 
ROOT
HETATM    1  N1  UNK     1      19.248  -3.024  36.254  1.00  0.00     0.096 N 
HETATM    2  N2  UNK     1      18.379  -0.411  35.371  1.00  0.00     0.100 N 
HETATM    3  C1  UNK     1      18.598  -2.084  37.176  1.00  0.00     0.303 C 
HETATM    4  C2  UNK     1      19.970  -2.294  35.204  1.00  0.00     0.303 C 
HETATM    5  C3  UNK     1      17.657  -1.140  36.421  1.00  0.00     0.303 C 
HETATM    6  C4  UNK     1      19.028  -1.350  34.449  1.00  0.00     0.303 C 
ENDROOT
BRANCH   1   7
HETATM    7  C5  UNK     1      20.148  -3.921  36.975  1.00  0.00     0.312 C 
BRANCH   7   8
HETATM    8  C7  UNK     1      19.775  -5.353  36.799  1.00  0.00    -0.011 A 
HETATM    9  C10 UNK     1      18.626  -5.700  36.203  1.00  0.00     0.092 A 
HETATM   10  C13 UNK     1      18.215  -7.101  36.006  1.00  0.00     0.288 A 
HETATM   11  O1  UNK     1      19.082  -8.076  36.473  1.00  0.00    -0.275 OA
HETATM   12  O4  UNK     1      17.156  -7.382  35.455  1.00  0.00    -0.260 OA
HETATM   13  C11 UNK     1      20.297  -7.740  37.105  1.00  0.00     0.090 A 
HETATM   14  C8  UNK     1      20.673  -6.409  37.285  1.00  0.00     0.009 A 
HETATM   15  C15 UNK     1      21.091  -8.805  37.537  1.00  0.00     0.041 A 
HETATM   16  C12 UNK     1      21.895  -6.159  37.923  1.00  0.00     0.051 A 
HETATM   17  C16 UNK     1      22.702  -7.215  38.361  1.00  0.00     0.069 A 
HETATM   18  C17 UNK     1      22.301  -8.536  38.168  1.00  0.00     0.039 A 
BRANCH  17  19
HETATM   19  O3  UNK     1      23.886  -6.951  38.980  1.00  0.00    -0.351 OA
BRANCH  19  20
HETATM   20  C24 UNK     1      24.897  -7.954  38.903  1.00  0.00     0.171 C 
HETATM   21  C26 UNK     1      26.224  -7.294  38.600  1.00  0.00     0.034 C 
ENDBRANCH  19  20
ENDBRANCH  17  19
ENDBRANCH   7   8
ENDBRANCH   1   7
BRANCH   2  22
HETATM   22  C6  UNK     1      17.480   0.489  34.651  1.00  0.00     0.375 C 
BRANCH  22  23
HETATM   23  C9  UNK     1      18.223   1.764  34.292  1.00  0.00     0.250 C 
HETATM   24  O2  UNK     1      19.082   2.255  35.016  1.00  0.00    -0.271 OA
HETATM   25  N3  UNK     1      17.785   2.245  33.060  1.00  0.00    -0.325 N 
HETATM   26  H14 UNK     1      17.067   1.706  32.584  1.00  0.00     0.169 HD
BRANCH  25  27
HETATM   27  C14 UNK     1      18.228   3.405  32.379  1.00  0.00     0.041 A 
HETATM   28  C18 UNK     1      18.616   3.343  31.040  1.00  0.00    -0.035 A 
HETATM   29  C21 UNK     1      19.049   4.496  30.386  1.00  0.00     0.009 A 
HETATM   30  C22 UNK     1      18.576   2.056  30.282  1.00  0.00     0.050 C 
HETATM   31  C23 UNK     1      19.096   5.710  31.070  1.00  0.00     0.007 A 
HETATM   32  C20 UNK     1      18.709   5.772  32.409  1.00  0.00    -0.060 A 
HETATM   33  C19 UNK     1      18.275   4.619  33.064  1.00  0.00     0.037 A 
HETATM   34  C25 UNK     1      18.759   7.071  33.140  1.00  0.00     0.048 C 
ENDBRANCH  25  27
ENDBRANCH  22  23
ENDBRANCH   2  22
TORSDOF 7
ENDMDL
MODEL 2
REMARK VINA RESULT:      -9.5      5.690      8.506
REMARK  7 active torsions:
REMARK  status: ('A' for Active; 'I' for Inactive)
REMARK    1  A    between atoms: C16_23  and  O3_3 
REMARK    2  A    between atoms: C24_31  and  O3_3 
REMARK    3  A    between atoms: C5_12  and  N1_5 
REMARK    4  A    between atoms: C6_13  and  N2_6 
REMARK    5  A    between atoms: C14_21  and  N3_7 
REMARK       I    between atoms: C9_16  and  N3_7 
REMARK    6  A    between atoms: C5_12  and  C7_14 
REMARK    7  A    between atoms: C6_13  and  C9_16 
ROOT
HETATM    1  N1  UNK     1      18.882   3.651  31.330  1.00  0.00     0.096 N 
HETATM    2  N2  UNK     1      19.247   6.312  32.401  1.00  0.00     0.100 N 
HETATM    3  C1  UNK     1      19.305   4.766  30.474  1.00  0.00     0.303 C 
HETATM    4  C2  UNK     1      18.064   4.144  32.446  1.00  0.00     0.303 C 
HETATM    5  C3  UNK     1      20.066   5.820  31.286  1.00  0.00     0.303 C 
HETATM    6  C4  UNK     1      18.826   5.197  33.257  1.00  0.00     0.303 C 
ENDROOT
BRANCH   1   7
HETATM    7  C5  UNK     1      18.154   2.649  30.555  1.00  0.00     0.312 C 
BRANCH   7   8
HETATM    8  C7  UNK     1      18.873   1.345  30.506  1.00  0.00    -0.011 A 
HETATM    9  C10 UNK     1      19.499   0.941  29.392  1.00  0.00     0.092 A 
HETATM   10  C13 UNK     1      20.222  -0.339  29.296  1.00  0.00     0.288 A 
HETATM   11  O1  UNK     1      20.232  -1.135  30.430  1.00  0.00    -0.275 OA
HETATM   12  O4  UNK     1      20.784  -0.675  28.259  1.00  0.00    -0.260 OA
HETATM   13  C11 UNK     1      19.582  -0.737  31.616  1.00  0.00     0.090 A 
HETATM   14  C8  UNK     1      18.901   0.478  31.692  1.00  0.00     0.009 A 
HETATM   15  C15 UNK     1      19.657  -1.620  32.695  1.00  0.00     0.041 A 
HETATM   16  C12 UNK     1      18.279   0.800  32.906  1.00  0.00     0.051 A 
HETATM   17  C16 UNK     1      18.346  -0.074  33.997  1.00  0.00     0.069 A 
HETATM   18  C17 UNK     1      19.034  -1.282  33.892  1.00  0.00     0.039 A 
BRANCH  17  19
HETATM   19  O3  UNK     1      17.735   0.257  35.168  1.00  0.00    -0.351 OA
BRANCH  19  20
HETATM   20  C24 UNK     1      18.517   0.959  36.132  1.00  0.00     0.171 C 
HETATM   21  C26 UNK     1      17.624   1.379  37.280  1.00  0.00     0.034 C 
ENDBRANCH  19  20
ENDBRANCH  17  19
ENDBRANCH   7   8
ENDBRANCH   1   7
BRANCH   2  22
HETATM   22  C6  UNK     1      19.974   7.316  33.175  1.00  0.00     0.375 C 
BRANCH  22  23
HETATM   23  C9  UNK     1      19.015   8.014  34.124  1.00  0.00     0.250 C 
HETATM   24  O2  UNK     1      19.167   8.008  35.341  1.00  0.00    -0.271 OA
HETATM   25  N3  UNK     1      17.994   8.634  33.407  1.00  0.00    -0.325 N 
HETATM   26  H14 UNK     1      18.025   8.547  32.394  1.00  0.00     0.169 HD
BRANCH  25  27
HETATM   27  C14 UNK     1      16.909   9.383  33.922  1.00  0.00     0.041 A 
HETATM   28  C18 UNK     1      15.650   8.803  34.078  1.00  0.00    -0.035 A 
HETATM   29  C21 UNK     1      14.593   9.557  34.587  1.00  0.00     0.009 A 
HETATM   30  C22 UNK     1      15.404   7.376  33.708  1.00  0.00     0.050 C 
HETATM   31  C23 UNK     1      14.795  10.891  34.941  1.00  0.00     0.007 A 
HETATM   32  C20 UNK     1      16.053  11.471  34.785  1.00  0.00    -0.060 A 
HETATM   33  C19 UNK     1      17.111  10.717  34.275  1.00  0.00     0.037 A 
HETATM   34  C25 UNK     1      16.269  12.897  35.163  1.00  0.00     0.048 C 
ENDBRANCH  25  27
ENDBRANCH  22  23
ENDBRANCH   2  22
TORSDOF 7
ENDMDL
MODEL 3
REMARK VINA RESULT:      -9.2      2.415      3.098
REMARK  7 active torsions:
REMARK  status: ('A' for Active; 'I' for Inactive)
REMARK    1  A    between atoms: C16_23  and  O3_3 
REMARK    2  A    between atoms: C24_31  and  O3_3 
REMARK    3  A    between atoms: C5_12  and  N1_5 
REMARK    4  A    between atoms: C6_13  and  N2_6 
REMARK    5  A    between atoms: C14_21  and  N3_7 
REMARK       I    between atoms: C9_16  and  N3_7 
REMARK    6  A    between atoms: C5_12  and  C7_14 
REMARK    7  A    between atoms: C6_13  and  C9_16 
ROOT
HETATM    1  N1  UNK     1      20.312  -3.496  37.315  1.00  0.00     0.096 N 
HETATM    2  N2  UNK     1      18.801  -1.668  35.662  1.00  0.00     0.100 N 
HETATM    3  C1  UNK     1      20.282  -3.636  35.854  1.00  0.00     0.303 C 
HETATM    4  C2  UNK     1      19.068  -2.882  37.796  1.00  0.00     0.303 C 
HETATM    5  C3  UNK     1      20.044  -2.281  35.180  1.00  0.00     0.303 C 
HETATM    6  C4  UNK     1      18.832  -1.527  37.122  1.00  0.00     0.303 C 
ENDROOT
BRANCH   1   7
HETATM    7  C5  UNK     1      20.536  -4.790  37.956  1.00  0.00     0.312 C 
BRANCH   7   8
HETATM    8  C7  UNK     1      19.897  -5.907  37.206  1.00  0.00    -0.011 A 
HETATM    9  C10 UNK     1      18.628  -5.821  36.784  1.00  0.00     0.092 A 
HETATM   10  C13 UNK     1      17.954  -6.899  36.039  1.00  0.00     0.288 A 
HETATM   11  O1  UNK     1      18.699  -8.039  35.784  1.00  0.00    -0.275 OA
HETATM   12  O4  UNK     1      16.791  -6.784  35.668  1.00  0.00    -0.260 OA
HETATM   13  C11 UNK     1      20.035  -8.159  36.217  1.00  0.00     0.090 A 
HETATM   14  C8  UNK     1      20.660  -7.130  36.921  1.00  0.00     0.009 A 
HETATM   15  C15 UNK     1      20.688  -9.353  35.904  1.00  0.00     0.041 A 
HETATM   16  C12 UNK     1      21.991  -7.327  37.317  1.00  0.00     0.051 A 
HETATM   17  C16 UNK     1      22.658  -8.518  37.011  1.00  0.00     0.069 A 
HETATM   18  C17 UNK     1      22.008  -9.530  36.306  1.00  0.00     0.039 A 
BRANCH  17  19
HETATM   19  O3  UNK     1      23.950  -8.690  37.405  1.00  0.00    -0.351 OA
BRANCH  19  20
HETATM   20  C24 UNK     1      24.360  -8.023  38.597  1.00  0.00     0.171 C 
HETATM   21  C26 UNK     1      25.870  -8.065  38.691  1.00  0.00     0.034 C 
ENDBRANCH  19  20
ENDBRANCH  17  19
ENDBRANCH   7   8
ENDBRANCH   1   7
BRANCH   2  22
HETATM   22  C6  UNK     1      18.576  -0.375  35.019  1.00  0.00     0.375 C 
BRANCH  22  23
HETATM   23  C9  UNK     1      18.263  -0.589  33.548  1.00  0.00     0.250 C 
HETATM   24  O2  UNK     1      17.274  -1.205  33.165  1.00  0.00    -0.271 OA
HETATM   25  N3  UNK     1      19.241   0.011  32.756  1.00  0.00    -0.325 N 
HETATM   26  H14 UNK     1      19.993   0.493  33.241  1.00  0.00     0.169 HD
BRANCH  25  27
HETATM   27  C14 UNK     1      19.310   0.036  31.343  1.00  0.00     0.041 A 
HETATM   28  C18 UNK     1      20.027  -0.937  30.645  1.00  0.00    -0.035 A 
HETATM   29  C21 UNK     1      20.084  -0.897  29.253  1.00  0.00     0.009 A 
HETATM   30  C22 UNK     1      20.743  -2.035  31.364  1.00  0.00     0.050 C 
HETATM   31  C23 UNK     1      19.425   0.116  28.557  1.00  0.00     0.007 A 
HETATM   32  C20 UNK     1      18.709   1.089  29.253  1.00  0.00    -0.060 A 
HETATM   33  C19 UNK     1      18.651   1.049  30.647  1.00  0.00     0.037 A 
HETATM   34  C25 UNK     1      18.004   2.173  28.509  1.00  0.00     0.048 C 
ENDBRANCH  25  27
ENDBRANCH  22  23
ENDBRANCH   2  22
TORSDOF 7
ENDMDL
MODEL 4
REMARK VINA RESULT:      -9.0      6.250     13.327
REMARK  7 active torsions:
REMARK  status: ('A' for Active; 'I' for Inactive)
REMARK    1  A    between atoms: C16_23  and  O3_3 
REMARK    2  A    between atoms: C24_31  and  O3_3 
REMARK    3  A    between atoms: C5_12  and  N1_5 
REMARK    4  A    between atoms: C6_13  and  N2_6 
REMARK    5  A    between atoms: C14_21  and  N3_7 
REMARK       I    between atoms: C9_16  and  N3_7 
REMARK    6  A    between atoms: C5_12  and  C7_14 
REMARK    7  A    between atoms: C6_13  and  C9_16 
ROOT
HETATM    1  N1  UNK     1      17.932   6.298  31.987  1.00  0.00     0.096 N 
HETATM    2  N2  UNK     1      18.987   4.263  30.225  1.00  0.00     0.100 N 
HETATM    3  C1  UNK     1      18.924   6.623  30.955  1.00  0.00     0.303 C 
HETATM    4  C2  UNK     1      18.095   4.910  32.436  1.00  0.00     0.303 C 
HETATM    5  C3  UNK     1      18.823   5.651  29.775  1.00  0.00     0.303 C 
HETATM    6  C4  UNK     1      17.994   3.938  31.255  1.00  0.00     0.303 C 
ENDROOT
BRANCH   1   7
HETATM    7  C5  UNK     1      18.031   7.224  33.113  1.00  0.00     0.312 C 
BRANCH   7   8
HETATM    8  C7  UNK     1      16.709   7.799  33.487  1.00  0.00    -0.011 A 
HETATM    9  C10 UNK     1      15.597   7.052  33.461  1.00  0.00     0.092 A 
HETATM   10  C13 UNK     1      14.269   7.577  33.822  1.00  0.00     0.288 A 
HETATM   11  O1  UNK     1      14.207   8.909  34.200  1.00  0.00    -0.275 OA
HETATM   12  O4  UNK     1      13.272   6.863  33.788  1.00  0.00    -0.260 OA
HETATM   13  C11 UNK     1      15.360   9.719  34.236  1.00  0.00     0.090 A 
HETATM   14  C8  UNK     1      16.611   9.208  33.891  1.00  0.00     0.009 A 
HETATM   15  C15 UNK     1      15.178  11.046  34.630  1.00  0.00     0.041 A 
HETATM   16  C12 UNK     1      17.708  10.079  33.951  1.00  0.00     0.051 A 
HETATM   17  C16 UNK     1      17.542  11.412  34.344  1.00  0.00     0.069 A 
HETATM   18  C17 UNK     1      16.279  11.895  34.684  1.00  0.00     0.039 A 
BRANCH  17  19
HETATM   19  O3  UNK     1      18.620  12.242  34.396  1.00  0.00    -0.351 OA
BRANCH  19  20
HETATM   20  C24 UNK     1      18.371  13.639  34.262  1.00  0.00     0.171 C 
HETATM   21  C26 UNK     1      18.746  14.074  32.862  1.00  0.00     0.034 C 
ENDBRANCH  19  20
ENDBRANCH  17  19
ENDBRANCH   7   8
ENDBRANCH   1   7
BRANCH   2  22
HETATM   22  C6  UNK     1      18.889   3.337  29.098  1.00  0.00     0.375 C 
BRANCH  22  23
HETATM   23  C9  UNK     1      18.554   1.948  29.614  1.00  0.00     0.250 C 
HETATM   24  O2  UNK     1      17.490   1.390  29.367  1.00  0.00    -0.271 OA
HETATM   25  N3  UNK     1      19.613   1.446  30.367  1.00  0.00    -0.325 N 
HETATM   26  H14 UNK     1      20.431   2.041  30.464  1.00  0.00     0.169 HD
BRANCH  25  27
HETATM   27  C14 UNK     1      19.691   0.190  31.016  1.00  0.00     0.041 A 
HETATM   28  C18 UNK     1      20.283  -0.905  30.386  1.00  0.00    -0.035 A 
HETATM   29  C21 UNK     1      20.351  -2.134  31.041  1.00  0.00     0.009 A 
HETATM   30  C22 UNK     1      20.853  -0.789  29.009  1.00  0.00     0.050 C 
HETATM   31  C23 UNK     1      19.827  -2.269  32.327  1.00  0.00     0.007 A 
HETATM   32  C20 UNK     1      19.235  -1.175  32.957  1.00  0.00    -0.060 A 
HETATM   33  C19 UNK     1      19.167   0.055  32.302  1.00  0.00     0.037 A 
HETATM   34  C25 UNK     1      18.675  -1.320  34.331  1.00  0.00     0.048 C 
ENDBRANCH  25  27
ENDBRANCH  22  23
ENDBRANCH   2  22
TORSDOF 7
ENDMDL
MODEL 5
REMARK VINA RESULT:      -8.9      2.338     11.605
REMARK  7 active torsions:
REMARK  status: ('A' for Active; 'I' for Inactive)
REMARK    1  A    between atoms: C16_23  and  O3_3 
REMARK    2  A    between atoms: C24_31  and  O3_3 
REMARK    3  A    between atoms: C5_12  and  N1_5 
REMARK    4  A    between atoms: C6_13  and  N2_6 
REMARK    5  A    between atoms: C14_21  and  N3_7 
REMARK       I    between atoms: C9_16  and  N3_7 
REMARK    6  A    between atoms: C5_12  and  C7_14 
REMARK    7  A    between atoms: C6_13  and  C9_16 
ROOT
HETATM    1  N1  UNK     1      17.978   1.237  35.326  1.00  0.00     0.096 N 
HETATM    2  N2  UNK     1      18.535  -1.353  36.484  1.00  0.00     0.100 N 
HETATM    3  C1  UNK     1      19.049   0.382  34.801  1.00  0.00     0.303 C 
HETATM    4  C2  UNK     1      17.773   0.981  36.757  1.00  0.00     0.303 C 
HETATM    5  C3  UNK     1      18.739  -1.098  35.053  1.00  0.00     0.303 C 
HETATM    6  C4  UNK     1      17.463  -0.498  37.008  1.00  0.00     0.303 C 
ENDROOT
BRANCH   1   7
HETATM    7  C5  UNK     1      18.277   2.648  35.089  1.00  0.00     0.312 C 
BRANCH   7   8
HETATM    8  C7  UNK     1      18.278   2.986  33.638  1.00  0.00    -0.011 A 
HETATM    9  C10 UNK     1      18.264   2.025  32.703  1.00  0.00     0.092 A 
HETATM   10  C13 UNK     1      18.265   2.311  31.258  1.00  0.00     0.288 A 
HETATM   11  O1  UNK     1      18.283   3.646  30.887  1.00  0.00    -0.275 OA
HETATM   12  O4  UNK     1      18.250   1.405  30.431  1.00  0.00    -0.260 OA
HETATM   13  C11 UNK     1      18.299   4.678  31.848  1.00  0.00     0.090 A 
HETATM   14  C8  UNK     1      18.299   4.392  33.213  1.00  0.00     0.009 A 
HETATM   15  C15 UNK     1      18.318   5.986  31.358  1.00  0.00     0.041 A 
HETATM   16  C12 UNK     1      18.317   5.474  34.104  1.00  0.00     0.051 A 
HETATM   17  C16 UNK     1      18.336   6.790  33.629  1.00  0.00     0.069 A 
HETATM   18  C17 UNK     1      18.336   7.046  32.259  1.00  0.00     0.039 A 
BRANCH  17  19
HETATM   19  O3  UNK     1      18.354   7.828  34.511  1.00  0.00    -0.351 OA
BRANCH  19  20
HETATM   20  C24 UNK     1      18.828   9.083  34.028  1.00  0.00     0.171 C 
HETATM   21  C26 UNK     1      20.250   9.288  34.504  1.00  0.00     0.034 C 
ENDBRANCH  19  20
ENDBRANCH  17  19
ENDBRANCH   7   8
ENDBRANCH   1   7
BRANCH   2  22
HETATM   22  C6  UNK     1      18.238  -2.764  36.722  1.00  0.00     0.375 C 
BRANCH  22  23
HETATM   23  C9  UNK     1      19.538  -3.540  36.845  1.00  0.00     0.250 C 
HETATM   24  O2  UNK     1      20.638  -3.001  36.789  1.00  0.00    -0.271 OA
HETATM   25  N3  UNK     1      19.274  -4.896  37.030  1.00  0.00    -0.325 N 
HETATM   26  H14 UNK     1      18.297  -5.174  37.062  1.00  0.00     0.169 HD
BRANCH  25  27
HETATM   27  C14 UNK     1      20.212  -5.944  37.186  1.00  0.00     0.041 A 
HETATM   28  C18 UNK     1      20.483  -6.823  36.137  1.00  0.00    -0.035 A 
HETATM   29  C21 UNK     1      21.411  -7.850  36.309  1.00  0.00     0.009 A 
HETATM   30  C22 UNK     1      19.794  -6.689  34.818  1.00  0.00     0.050 C 
HETATM   31  C23 UNK     1      22.068  -7.998  37.531  1.00  0.00     0.007 A 
HETATM   32  C20 UNK     1      21.798  -7.120  38.580  1.00  0.00    -0.060 A 
HETATM   33  C19 UNK     1      20.869  -6.092  38.408  1.00  0.00     0.037 A 
HETATM   34  C25 UNK     1      22.500  -7.279  39.885  1.00  0.00     0.048 C 
ENDBRANCH  25  27
ENDBRANCH  22  23
ENDBRANCH   2  22
TORSDOF 7
ENDMDL
MODEL 6
REMARK VINA RESULT:      -8.8      1.146      2.078
REMARK  7 active torsions:
REMARK  status: ('A' for Active; 'I' for Inactive)
REMARK    1  A    between atoms: C16_23  and  O3_3 
REMARK    2  A    between atoms: C24_31  and  O3_3 
REMARK    3  A    between atoms: C5_12  and  N1_5 
REMARK    4  A    between atoms: C6_13  and  N2_6 
REMARK    5  A    between atoms: C14_21  and  N3_7 
REMARK       I    between atoms: C9_16  and  N3_7 
REMARK    6  A    between atoms: C5_12  and  C7_14 
REMARK    7  A    between atoms: C6_13  and  C9_16 
ROOT
HETATM    1  N1  UNK     1      19.012  -3.106  36.753  1.00  0.00     0.096 N 
HETATM    2  N2  UNK     1      18.524  -0.277  36.417  1.00  0.00     0.100 N 
HETATM    3  C1  UNK     1      18.722  -2.241  37.903  1.00  0.00     0.303 C 
HETATM    4  C2  UNK     1      19.671  -2.340  35.688  1.00  0.00     0.303 C 
HETATM    5  C3  UNK     1      17.865  -1.042  37.482  1.00  0.00     0.303 C 
HETATM    6  C4  UNK     1      18.813  -1.142  35.268  1.00  0.00     0.303 C 
ENDROOT
BRANCH   1   7
HETATM    7  C5  UNK     1      19.832  -4.247  37.156  1.00  0.00     0.312 C 
BRANCH   7   8
HETATM    8  C7  UNK     1      19.226  -5.546  36.752  1.00  0.00    -0.011 A 
HETATM    9  C10 UNK     1      17.957  -5.615  36.326  1.00  0.00     0.092 A 
HETATM   10  C13 UNK     1      17.315  -6.876  35.917  1.00  0.00     0.288 A 
HETATM   11  O1  UNK     1      18.090  -8.023  35.990  1.00  0.00    -0.275 OA
HETATM   12  O4  UNK     1      16.151  -6.901  35.531  1.00  0.00    -0.260 OA
HETATM   13  C11 UNK     1      19.427  -7.981  36.436  1.00  0.00     0.090 A 
HETATM   14  C8  UNK     1      20.022  -6.780  36.820  1.00  0.00     0.009 A 
HETATM   15  C15 UNK     1      20.112  -9.198  36.470  1.00  0.00     0.041 A 
HETATM   16  C12 UNK     1      21.355  -6.822  37.252  1.00  0.00     0.051 A 
HETATM   17  C16 UNK     1      22.054  -8.034  37.292  1.00  0.00     0.069 A 
HETATM   18  C17 UNK     1      21.434  -9.219  36.901  1.00  0.00     0.039 A 
BRANCH  17  19
HETATM   19  O3  UNK     1      23.349  -8.054  37.715  1.00  0.00    -0.351 OA
BRANCH  19  20
HETATM   20  C24 UNK     1      23.623  -7.487  38.994  1.00  0.00     0.171 C 
HETATM   21  C26 UNK     1      22.781  -8.191  40.036  1.00  0.00     0.034 C 
ENDBRANCH  19  20
ENDBRANCH  17  19
ENDBRANCH   7   8
ENDBRANCH   1   7
BRANCH   2  22
HETATM   22  C6  UNK     1      17.705   0.866  36.016  1.00  0.00     0.375 C 
BRANCH  22  23
HETATM   23  C9  UNK     1      18.471   1.707  35.009  1.00  0.00     0.250 C 
HETATM   24  O2  UNK     1      19.583   2.168  35.242  1.00  0.00    -0.271 OA
HETATM   25  N3  UNK     1      17.731   1.847  33.837  1.00  0.00    -0.325 N 
HETATM   26  H14 UNK     1      16.824   1.388  33.808  1.00  0.00     0.169 HD
BRANCH  25  27
HETATM   27  C14 UNK     1      18.094   2.555  32.666  1.00  0.00     0.041 A 
HETATM   28  C18 UNK     1      18.194   3.947  32.674  1.00  0.00    -0.035 A 
HETATM   29  C21 UNK     1      18.554   4.626  31.511  1.00  0.00     0.009 A 
HETATM   30  C22 UNK     1      17.921   4.735  33.914  1.00  0.00     0.050 C 
HETATM   31  C23 UNK     1      18.815   3.915  30.340  1.00  0.00     0.007 A 
HETATM   32  C20 UNK     1      18.715   2.524  30.331  1.00  0.00    -0.060 A 
HETATM   33  C19 UNK     1      18.355   1.844  31.495  1.00  0.00     0.037 A 
HETATM   34  C25 UNK     1      18.994   1.764  29.079  1.00  0.00     0.048 C 
ENDBRANCH  25  27
ENDBRANCH  22  23
ENDBRANCH   2  22
TORSDOF 7
ENDMDL
MODEL 7
REMARK VINA RESULT:      -8.8      8.560     12.101
REMARK  7 active torsions:
REMARK  status: ('A' for Active; 'I' for Inactive)
REMARK    1  A    between atoms: C16_23  and  O3_3 
REMARK    2  A    between atoms: C24_31  and  O3_3 
REMARK    3  A    between atoms: C5_12  and  N1_5 
REMARK    4  A    between atoms: C6_13  and  N2_6 
REMARK    5  A    between atoms: C14_21  and  N3_7 
REMARK       I    between atoms: C9_16  and  N3_7 
REMARK    6  A    between atoms: C5_12  and  C7_14 
REMARK    7  A    between atoms: C6_13  and  C9_16 
ROOT
HETATM    1  N1  UNK     1      26.699  -9.280  37.552  1.00  0.00     0.096 N 
HETATM    2  N2  UNK     1      29.533  -8.743  37.759  1.00  0.00     0.100 N 
HETATM    3  C1  UNK     1      27.419  -8.563  36.492  1.00  0.00     0.303 C 
HETATM    4  C2  UNK     1      27.339  -9.048  38.853  1.00  0.00     0.303 C 
HETATM    5  C3  UNK     1      28.895  -8.976  36.458  1.00  0.00     0.303 C 
HETATM    6  C4  UNK     1      28.814  -9.462  38.818  1.00  0.00     0.303 C 
ENDROOT
BRANCH   1   7
HETATM    7  C5  UNK     1      25.294  -8.883  37.585  1.00  0.00     0.312 C 
BRANCH   7   8
HETATM    8  C7  UNK     1      24.426  -9.816  36.813  1.00  0.00    -0.011 A 
HETATM    9  C10 UNK     1      24.911 -10.965  36.323  1.00  0.00     0.092 A 
HETATM   10  C13 UNK     1      24.093 -11.919  35.554  1.00  0.00     0.288 A 
HETATM   11  O1  UNK     1      22.766 -11.576  35.349  1.00  0.00    -0.275 OA
HETATM   12  O4  UNK     1      24.570 -12.962  35.122  1.00  0.00    -0.260 OA
HETATM   13  C11 UNK     1      22.228 -10.374  35.851  1.00  0.00     0.090 A 
HETATM   14  C8  UNK     1      23.016  -9.480  36.577  1.00  0.00     0.009 A 
HETATM   15  C15 UNK     1      20.879 -10.132  35.582  1.00  0.00     0.041 A 
HETATM   16  C12 UNK     1      22.407  -8.306  37.042  1.00  0.00     0.051 A 
HETATM   17  C16 UNK     1      21.057  -8.050  36.780  1.00  0.00     0.069 A 
HETATM   18  C17 UNK     1      20.294  -8.961  36.052  1.00  0.00     0.039 A 
BRANCH  17  19
HETATM   19  O3  UNK     1      20.484  -6.903  37.240  1.00  0.00    -0.351 OA
BRANCH  19  20
HETATM   20  C24 UNK     1      19.459  -7.038  38.222  1.00  0.00     0.171 C 
HETATM   21  C26 UNK     1      20.059  -6.820  39.594  1.00  0.00     0.034 C 
ENDBRANCH  19  20
ENDBRANCH  17  19
ENDBRANCH   7   8
ENDBRANCH   1   7
BRANCH   2  22
HETATM   22  C6  UNK     1      30.940  -9.139  37.725  1.00  0.00     0.375 C 
BRANCH  22  23
HETATM   23  C9  UNK     1      31.812  -7.897  37.660  1.00  0.00     0.250 C 
HETATM   24  O2  UNK     1      32.930  -7.846  38.163  1.00  0.00    -0.271 OA
HETATM   25  N3  UNK     1      31.157  -6.886  36.960  1.00  0.00    -0.325 N 
HETATM   26  H14 UNK     1      30.232  -7.101  36.598  1.00  0.00     0.169 HD
BRANCH  25  27
HETATM   27  C14 UNK     1      31.633  -5.582  36.682  1.00  0.00     0.041 A 
HETATM   28  C18 UNK     1      30.994  -4.460  37.213  1.00  0.00    -0.035 A 
HETATM   29  C21 UNK     1      31.478  -3.183  36.929  1.00  0.00     0.009 A 
HETATM   30  C22 UNK     1      29.792  -4.597  38.090  1.00  0.00     0.050 C 
HETATM   31  C23 UNK     1      32.598  -3.027  36.113  1.00  0.00     0.007 A 
HETATM   32  C20 UNK     1      33.236  -4.147  35.582  1.00  0.00    -0.060 A 
HETATM   33  C19 UNK     1      32.753  -5.425  35.866  1.00  0.00     0.037 A 
HETATM   34  C25 UNK     1      34.434  -3.980  34.710  1.00  0.00     0.048 C 
ENDBRANCH  25  27
ENDBRANCH  22  23
ENDBRANCH   2  22
TORSDOF 7
ENDMDL
MODEL 8
REMARK VINA RESULT:      -8.7     26.291     29.962
REMARK  7 active torsions:
REMARK  status: ('A' for Active; 'I' for Inactive)
REMARK    1  A    between atoms: C16_23  and  O3_3 
REMARK    2  A    between atoms: C24_31  and  O3_3 
REMARK    3  A    between atoms: C5_12  and  N1_5 
REMARK    4  A    between atoms: C6_13  and  N2_6 
REMARK    5  A    between atoms: C14_21  and  N3_7 
REMARK       I    between atoms: C9_16  and  N3_7 
REMARK    6  A    between atoms: C5_12  and  C7_14 
REMARK    7  A    between atoms: C6_13  and  C9_16 
ROOT
HETATM    1  N1  UNK     1      16.937   9.557   9.573  1.00  0.00     0.096 N 
HETATM    2  N2  UNK     1      15.129   7.307   9.734  1.00  0.00     0.100 N 
HETATM    3  C1  UNK     1      17.287   8.350  10.332  1.00  0.00     0.303 C 
HETATM    4  C2  UNK     1      15.481   9.745   9.554  1.00  0.00     0.303 C 
HETATM    5  C3  UNK     1      16.584   7.118   9.753  1.00  0.00     0.303 C 
HETATM    6  C4  UNK     1      14.779   8.513   8.974  1.00  0.00     0.303 C 
ENDROOT
BRANCH   1   7
HETATM    7  C5  UNK     1      17.605  10.732  10.129  1.00  0.00     0.312 C 
BRANCH   7   8
HETATM    8  C7  UNK     1      18.533  11.366   9.151  1.00  0.00    -0.011 A 
HETATM    9  C10 UNK     1      18.164  11.571   7.879  1.00  0.00     0.092 A 
HETATM   10  C13 UNK     1      19.047  12.194   6.878  1.00  0.00     0.288 A 
HETATM   11  O1  UNK     1      20.309  12.571   7.308  1.00  0.00    -0.275 OA
HETATM   12  O4  UNK     1      18.675  12.366   5.722  1.00  0.00    -0.260 OA
HETATM   13  C11 UNK     1      20.725  12.368   8.640  1.00  0.00     0.090 A 
HETATM   14  C8  UNK     1      19.878  11.777   9.577  1.00  0.00     0.009 A 
HETATM   15  C15 UNK     1      22.018  12.787   8.960  1.00  0.00     0.041 A 
HETATM   16  C12 UNK     1      20.367  11.608  10.880  1.00  0.00     0.051 A 
HETATM   17  C16 UNK     1      21.661  12.022  11.217  1.00  0.00     0.069 A 
HETATM   18  C17 UNK     1      22.485  12.611  10.259  1.00  0.00     0.039 A 
BRANCH  17  19
HETATM   19  O3  UNK     1      22.117  11.850  12.489  1.00  0.00    -0.351 OA
BRANCH  19  20
HETATM   20  C24 UNK     1      21.787  12.861  13.439  1.00  0.00     0.171 C 
HETATM   21  C26 UNK     1      21.127  12.214  14.638  1.00  0.00     0.034 C 
ENDBRANCH  19  20
ENDBRANCH  17  19
ENDBRANCH   7   8
ENDBRANCH   1   7
BRANCH   2  22
HETATM   22  C6  UNK     1      14.460   6.131   9.180  1.00  0.00     0.375 C 
BRANCH  22  23
HETATM   23  C9  UNK     1      12.976   6.196   9.501  1.00  0.00     0.250 C 
HETATM   24  O2  UNK     1      12.553   6.498  10.612  1.00  0.00    -0.271 OA
HETATM   25  N3  UNK     1      12.225   5.879   8.371  1.00  0.00    -0.325 N 
HETATM   26  H14 UNK     1      12.741   5.662   7.522  1.00  0.00     0.169 HD
BRANCH  25  27
HETATM   27  C14 UNK     1      10.815   5.828   8.259  1.00  0.00     0.041 A 
HETATM   28  C18 UNK     1      10.176   6.241   7.089  1.00  0.00    -0.035 A 
HETATM   29  C21 UNK     1       8.786   6.182   6.997  1.00  0.00     0.009 A 
HETATM   30  C22 UNK     1      10.955   6.748   5.919  1.00  0.00     0.050 C 
HETATM   31  C23 UNK     1       8.034   5.712   8.074  1.00  0.00     0.007 A 
HETATM   32  C20 UNK     1       8.672   5.301   9.243  1.00  0.00    -0.060 A 
HETATM   33  C19 UNK     1      10.064   5.358   9.336  1.00  0.00     0.037 A 
HETATM   34  C25 UNK     1       7.868   4.798  10.394  1.00  0.00     0.048 C 
ENDBRANCH  25  27
ENDBRANCH  22  23
ENDBRANCH   2  22
TORSDOF 7
ENDMDL
MODEL 9
REMARK VINA RESULT:      -8.6     10.656     13.083
REMARK  7 active torsions:
REMARK  status: ('A' for Active; 'I' for Inactive)
REMARK    1  A    between atoms: C16_23  and  O3_3 
REMARK    2  A    between atoms: C24_31  and  O3_3 
REMARK    3  A    between atoms: C5_12  and  N1_5 
REMARK    4  A    between atoms: C6_13  and  N2_6 
REMARK    5  A    between atoms: C14_21  and  N3_7 
REMARK       I    between atoms: C9_16  and  N3_7 
REMARK    6  A    between atoms: C5_12  and  C7_14 
REMARK    7  A    between atoms: C6_13  and  C9_16 
ROOT
HETATM    1  N1  UNK     1      31.978  -7.420  36.892  1.00  0.00     0.096 N 
HETATM    2  N2  UNK     1      32.269  -7.607  34.022  1.00  0.00     0.100 N 
HETATM    3  C1  UNK     1      32.560  -8.611  36.261  1.00  0.00     0.303 C 
HETATM    4  C2  UNK     1      31.021  -6.775  35.984  1.00  0.00     0.303 C 
HETATM    5  C3  UNK     1      33.227  -8.252  34.928  1.00  0.00     0.303 C 
HETATM    6  C4  UNK     1      31.688  -6.416  34.652  1.00  0.00     0.303 C 
ENDROOT
BRANCH   1   7
HETATM    7  C5  UNK     1      31.339  -7.764  38.161  1.00  0.00     0.312 C 
BRANCH   7   8
HETATM    8  C7  UNK     1      30.236  -6.825  38.508  1.00  0.00    -0.011 A 
HETATM    9  C10 UNK     1      30.493  -5.559  38.867  1.00  0.00     0.092 A 
HETATM   10  C13 UNK     1      29.436  -4.595  39.220  1.00  0.00     0.288 A 
HETATM   11  O1  UNK     1      28.130  -5.056  39.167  1.00  0.00    -0.275 OA
HETATM   12  O4  UNK     1      29.708  -3.444  39.543  1.00  0.00    -0.260 OA
HETATM   13  C11 UNK     1      27.830  -6.382  38.794  1.00  0.00     0.090 A 
HETATM   14  C8  UNK     1      28.841  -7.284  38.463  1.00  0.00     0.009 A 
HETATM   15  C15 UNK     1      26.479  -6.735  38.777  1.00  0.00     0.041 A 
HETATM   16  C12 UNK     1      28.461  -8.584  38.104  1.00  0.00     0.051 A 
HETATM   17  C16 UNK     1      27.111  -8.953  38.083  1.00  0.00     0.069 A 
HETATM   18  C17 UNK     1      26.122  -8.031  38.418  1.00  0.00     0.039 A 
BRANCH  17  19
HETATM   19  O3  UNK     1      26.763 -10.222  37.731  1.00  0.00    -0.351 OA
BRANCH  19  20
HETATM   20  C24 UNK     1      26.424 -10.447  36.364  1.00  0.00     0.171 C 
HETATM   21  C26 UNK     1      25.276 -11.431  36.297  1.00  0.00     0.034 C 
ENDBRANCH  19  20
ENDBRANCH  17  19
ENDBRANCH   7   8
ENDBRANCH   1   7
BRANCH   2  22
HETATM   22  C6  UNK     1      32.907  -7.264  32.752  1.00  0.00     0.375 C 
BRANCH  22  23
HETATM   23  C9  UNK     1      31.856  -7.221  31.655  1.00  0.00     0.250 C 
HETATM   24  O2  UNK     1      32.095  -6.800  30.527  1.00  0.00    -0.271 OA
HETATM   25  N3  UNK     1      30.646  -7.722  32.128  1.00  0.00    -0.325 N 
HETATM   26  H14 UNK     1      30.625  -8.040  33.093  1.00  0.00     0.169 HD
BRANCH  25  27
HETATM   27  C14 UNK     1      29.428  -7.850  31.417  1.00  0.00     0.041 A 
HETATM   28  C18 UNK     1      28.326  -7.058  31.740  1.00  0.00    -0.035 A 
HETATM   29  C21 UNK     1      27.135  -7.197  31.028  1.00  0.00     0.009 A 
HETATM   30  C22 UNK     1      28.393  -6.051  32.843  1.00  0.00     0.050 C 
HETATM   31  C23 UNK     1      27.045  -8.129  29.994  1.00  0.00     0.007 A 
HETATM   32  C20 UNK     1      28.146  -8.921  29.672  1.00  0.00    -0.060 A 
HETATM   33  C19 UNK     1      29.339  -8.782  30.383  1.00  0.00     0.037 A 
HETATM   34  C25 UNK     1      28.050  -9.917  28.566  1.00  0.00     0.048 C 
ENDBRANCH  25  27
ENDBRANCH  22  23
ENDBRANCH   2  22
TORSDOF 7
ENDMDL
MODEL 10
REMARK VINA RESULT:      -8.6      6.186     13.944
REMARK  7 active torsions:
REMARK  status: ('A' for Active; 'I' for Inactive)
REMARK    1  A    between atoms: C16_23  and  O3_3 
REMARK    2  A    between atoms: C24_31  and  O3_3 
REMARK    3  A    between atoms: C5_12  and  N1_5 
REMARK    4  A    between atoms: C6_13  and  N2_6 
REMARK    5  A    between atoms: C14_21  and  N3_7 
REMARK       I    between atoms: C9_16  and  N3_7 
REMARK    6  A    between atoms: C5_12  and  C7_14 
REMARK    7  A    between atoms: C6_13  and  C9_16 
ROOT
HETATM    1  N1  UNK     1      17.916   6.680  32.616  1.00  0.00     0.096 N 
HETATM    2  N2  UNK     1      18.166   4.677  30.546  1.00  0.00     0.100 N 
HETATM    3  C1  UNK     1      17.495   5.292  32.844  1.00  0.00     0.303 C 
HETATM    4  C2  UNK     1      17.782   7.029  31.196  1.00  0.00     0.303 C 
HETATM    5  C3  UNK     1      18.299   4.327  31.965  1.00  0.00     0.303 C 
HETATM    6  C4  UNK     1      18.587   6.065  30.319  1.00  0.00     0.303 C 
ENDROOT
BRANCH   1   7
HETATM    7  C5  UNK     1      17.146   7.599  33.452  1.00  0.00     0.312 C 
BRANCH   7   8
HETATM    8  C7  UNK     1      17.936   8.801  33.842  1.00  0.00    -0.011 A 
HETATM    9  C10 UNK     1      19.262   8.729  34.021  1.00  0.00     0.092 A 
HETATM   10  C13 UNK     1      20.084   9.889  34.406  1.00  0.00     0.288 A 
HETATM   11  O1  UNK     1      19.419  11.092  34.583  1.00  0.00    -0.275 OA
HETATM   12  O4  UNK     1      21.296   9.786  34.560  1.00  0.00    -0.260 OA
HETATM   13  C11 UNK     1      18.025  11.198  34.403  1.00  0.00     0.090 A 
HETATM   14  C8  UNK     1      17.259  10.090  34.038  1.00  0.00     0.009 A 
HETATM   15  C15 UNK     1      17.462  12.459  34.609  1.00  0.00     0.041 A 
HETATM   16  C12 UNK     1      15.879  10.277  33.880  1.00  0.00     0.051 A 
HETATM   17  C16 UNK     1      15.301  11.535  34.083  1.00  0.00     0.069 A 
HETATM   18  C17 UNK     1      16.090  12.624  34.446  1.00  0.00     0.039 A 
BRANCH  17  19
HETATM   19  O3  UNK     1      13.957  11.696  33.924  1.00  0.00    -0.351 OA
BRANCH  19  20
HETATM   20  C24 UNK     1      13.388  11.226  32.704  1.00  0.00     0.171 C 
HETATM   21  C26 UNK     1      11.916  11.580  32.679  1.00  0.00     0.034 C 
ENDBRANCH  19  20
ENDBRANCH  17  19
ENDBRANCH   7   8
ENDBRANCH   1   7
BRANCH   2  22
HETATM   22  C6  UNK     1      18.934   3.757  29.709  1.00  0.00     0.375 C 
BRANCH  22  23
HETATM   23  C9  UNK     1      18.552   2.327  30.049  1.00  0.00     0.250 C 
HETATM   24  O2  UNK     1      17.426   1.879  29.856  1.00  0.00    -0.271 OA
HETATM   25  N3  UNK     1      19.647   1.650  30.582  1.00  0.00    -0.325 N 
HETATM   26  H14 UNK     1      20.515   2.173  30.665  1.00  0.00     0.169 HD
BRANCH  25  27
HETATM   27  C14 UNK     1      19.700   0.306  31.022  1.00  0.00     0.041 A 
HETATM   28  C18 UNK     1      20.176  -0.702  30.182  1.00  0.00    -0.035 A 
HETATM   29  C21 UNK     1      20.221  -2.021  30.633  1.00  0.00     0.009 A 
HETATM   30  C22 UNK     1      20.644  -0.398  28.796  1.00  0.00     0.050 C 
HETATM   31  C23 UNK     1      19.790  -2.333  31.922  1.00  0.00     0.007 A 
HETATM   32  C20 UNK     1      19.314  -1.326  32.761  1.00  0.00    -0.060 A 
HETATM   33  C19 UNK     1      19.269  -0.006  32.311  1.00  0.00     0.037 A 
HETATM   34  C25 UNK     1      18.853  -1.660  34.140  1.00  0.00     0.048 C 
ENDBRANCH  25  27
ENDBRANCH  22  23
ENDBRANCH   2  22
TORSDOF 7
ENDMDL
