MODEL 1
REMARK VINA RESULT:      -8.3      0.000      0.000
REMARK  5 active torsions:
REMARK  status: ('A' for Active; 'I' for Inactive)
REMARK    1  A    between atoms: C11_17  and  O3_3 
REMARK    2  A    between atoms: C12_18  and  O4_4 
REMARK    3  A    between atoms: C13_19  and  O5_5 
REMARK    4  A    between atoms: C14_20  and  O6_6 
REMARK    5  A    between atoms: C1_7  and  C3_9 
ROOT
HETATM    1  O1  UNK     1      19.048   0.468  34.386  1.00  0.00    -0.340 OA
HETATM    2  O2  UNK     1      17.255   1.109  38.020  1.00  0.00    -0.292 OA
HETATM    3  C1  UNK     1      17.981   1.419  34.519  1.00  0.00     0.169 C 
HETATM    4  C2  UNK     1      17.962   2.029  35.920  1.00  0.00     0.121 C 
HETATM    5  C4  UNK     1      17.794   0.927  36.934  1.00  0.00     0.165 C 
HETATM    6  C5  UNK     1      18.383  -0.379  36.573  1.00  0.00     0.043 A 
HETATM    7  C6  UNK     1      18.997  -0.528  35.327  1.00  0.00     0.086 A 
HETATM    8  C9  UNK     1      18.365  -1.439  37.483  1.00  0.00     0.021 A 
HETATM    9  C10 UNK     1      19.625  -1.731  35.003  1.00  0.00     0.074 A 
HETATM   10  C14 UNK     1      19.611  -2.791  35.910  1.00  0.00     0.070 A 
HETATM   11  C15 UNK     1      18.978  -2.646  37.145  1.00  0.00     0.038 A 
ENDROOT
BRANCH   3  12
HETATM   12  C3  UNK     1      18.156   2.488  33.462  1.00  0.00    -0.023 A 
HETATM   13  C7  UNK     1      18.195   3.833  33.829  1.00  0.00     0.049 A 
HETATM   14  C12 UNK     1      18.355   4.817  32.854  1.00  0.00     0.104 A 
HETATM   15  C13 UNK     1      18.478   4.457  31.512  1.00  0.00     0.135 A 
HETATM   16  C11 UNK     1      18.440   3.112  31.146  1.00  0.00     0.104 A 
HETATM   17  C8  UNK     1      18.279   2.127  32.120  1.00  0.00     0.049 A 
BRANCH  14  18
HETATM   18  O4  UNK     1      18.392   6.127  33.226  1.00  0.00    -0.353 OA
HETATM   19  C17 UNK     1      19.562   6.574  33.910  1.00  0.00     0.210 C 
ENDBRANCH  14  18
BRANCH  15  20
HETATM   20  O5  UNK     1      18.637   5.420  30.560  1.00  0.00    -0.351 OA
HETATM   21  C18 UNK     1      19.973   5.791  30.232  1.00  0.00     0.210 C 
ENDBRANCH  15  20
BRANCH  16  22
HETATM   22  O3  UNK     1      18.557   2.746  29.838  1.00  0.00    -0.353 OA
HETATM   23  C16 UNK     1      19.012   1.420  29.574  1.00  0.00     0.210 C 
ENDBRANCH  16  22
ENDBRANCH   3  12
BRANCH  10  24
HETATM   24  O6  UNK     1      20.214  -3.968  35.589  1.00  0.00    -0.356 OA
HETATM   25  C19 UNK     1      19.836  -5.118  36.346  1.00  0.00     0.210 C 
ENDBRANCH  10  24
TORSDOF 5
ENDMDL
MODEL 2
REMARK VINA RESULT:      -8.3      0.025      2.537
REMARK  5 active torsions:
REMARK  status: ('A' for Active; 'I' for Inactive)
REMARK    1  A    between atoms: C11_17  and  O3_3 
REMARK    2  A    between atoms: C12_18  and  O4_4 
REMARK    3  A    between atoms: C13_19  and  O5_5 
REMARK    4  A    between atoms: C14_20  and  O6_6 
REMARK    5  A    between atoms: C1_7  and  C3_9 
ROOT
HETATM    1  O1  UNK     1      19.053   0.459  34.382  1.00  0.00    -0.340 OA
HETATM    2  O2  UNK     1      17.266   1.117  38.015  1.00  0.00    -0.292 OA
HETATM    3  C1  UNK     1      17.987   1.412  34.513  1.00  0.00     0.169 C 
HETATM    4  C2  UNK     1      17.971   2.028  35.911  1.00  0.00     0.121 C 
HETATM    5  C4  UNK     1      17.803   0.930  36.930  1.00  0.00     0.165 C 
HETATM    6  C5  UNK     1      18.391  -0.377  36.574  1.00  0.00     0.043 A 
HETATM    7  C6  UNK     1      19.003  -0.532  35.328  1.00  0.00     0.086 A 
HETATM    8  C9  UNK     1      18.375  -1.434  37.489  1.00  0.00     0.021 A 
HETATM    9  C10 UNK     1      19.631  -1.737  35.008  1.00  0.00     0.074 A 
HETATM   10  C14 UNK     1      19.618  -2.793  35.920  1.00  0.00     0.070 A 
HETATM   11  C15 UNK     1      18.986  -2.643  37.155  1.00  0.00     0.038 A 
ENDROOT
BRANCH   3  12
HETATM   12  C3  UNK     1      18.161   2.476  33.450  1.00  0.00    -0.023 A 
HETATM   13  C7  UNK     1      18.289   2.108  32.110  1.00  0.00     0.049 A 
HETATM   14  C12 UNK     1      18.451   3.089  31.132  1.00  0.00     0.104 A 
HETATM   15  C13 UNK     1      18.483   4.436  31.492  1.00  0.00     0.135 A 
HETATM   16  C11 UNK     1      18.354   4.802  32.832  1.00  0.00     0.104 A 
HETATM   17  C8  UNK     1      18.193   3.822  33.811  1.00  0.00     0.049 A 
BRANCH  14  18
HETATM   18  O4  UNK     1      18.574   2.718  29.827  1.00  0.00    -0.353 OA
HETATM   19  C17 UNK     1      19.027   1.389  29.571  1.00  0.00     0.210 C 
ENDBRANCH  14  18
BRANCH  15  20
HETATM   20  O5  UNK     1      18.638   5.394  30.534  1.00  0.00    -0.351 OA
HETATM   21  C18 UNK     1      19.973   5.788  30.224  1.00  0.00     0.210 C 
ENDBRANCH  15  20
BRANCH  16  22
HETATM   22  O3  UNK     1      18.385   6.115  33.197  1.00  0.00    -0.353 OA
HETATM   23  C16 UNK     1      19.516   6.552  33.949  1.00  0.00     0.210 C 
ENDBRANCH  16  22
ENDBRANCH   3  12
BRANCH  10  24
HETATM   24  O6  UNK     1      20.220  -3.972  35.603  1.00  0.00    -0.356 OA
HETATM   25  C19 UNK     1      19.812  -5.126  36.337  1.00  0.00     0.210 C 
ENDBRANCH  10  24
TORSDOF 5
ENDMDL
MODEL 3
REMARK VINA RESULT:      -7.9      2.362      4.659
REMARK  5 active torsions:
REMARK  status: ('A' for Active; 'I' for Inactive)
REMARK    1  A    between atoms: C11_17  and  O3_3 
REMARK    2  A    between atoms: C12_18  and  O4_4 
REMARK    3  A    between atoms: C13_19  and  O5_5 
REMARK    4  A    between atoms: C14_20  and  O6_6 
REMARK    5  A    between atoms: C1_7  and  C3_9 
ROOT
HETATM    1  O1  UNK     1      17.903   3.062  33.405  1.00  0.00    -0.340 OA
HETATM    2  O2  UNK     1      19.188   1.630  29.782  1.00  0.00    -0.292 OA
HETATM    3  C1  UNK     1      18.598   3.916  32.484  1.00  0.00     0.169 C 
HETATM    4  C2  UNK     1      18.341   3.490  31.039  1.00  0.00     0.121 C 
HETATM    5  C4  UNK     1      18.798   2.065  30.859  1.00  0.00     0.165 C 
HETATM    6  C5  UNK     1      18.681   1.194  32.046  1.00  0.00     0.043 A 
HETATM    7  C6  UNK     1      18.219   1.737  33.247  1.00  0.00     0.086 A 
HETATM    8  C9  UNK     1      18.987  -0.167  31.959  1.00  0.00     0.021 A 
HETATM    9  C10 UNK     1      18.029   0.911  34.356  1.00  0.00     0.074 A 
HETATM   10  C14 UNK     1      18.332  -0.448  34.271  1.00  0.00     0.070 A 
HETATM   11  C15 UNK     1      18.815  -0.984  33.077  1.00  0.00     0.038 A 
ENDROOT
BRANCH   3  12
HETATM   12  C3  UNK     1      18.148   5.342  32.719  1.00  0.00    -0.023 A 
HETATM   13  C7  UNK     1      18.806   6.134  33.661  1.00  0.00     0.049 A 
HETATM   14  C12 UNK     1      18.391   7.448  33.878  1.00  0.00     0.104 A 
HETATM   15  C13 UNK     1      17.319   7.970  33.153  1.00  0.00     0.135 A 
HETATM   16  C11 UNK     1      16.663   7.178  32.211  1.00  0.00     0.104 A 
HETATM   17  C8  UNK     1      17.078   5.864  31.994  1.00  0.00     0.049 A 
BRANCH  14  18
HETATM   18  O4  UNK     1      19.040   8.211  34.800  1.00  0.00    -0.353 OA
HETATM   19  C17 UNK     1      20.184   8.937  34.351  1.00  0.00     0.210 C 
ENDBRANCH  14  18
BRANCH  15  20
HETATM   20  O5  UNK     1      16.915   9.255  33.365  1.00  0.00    -0.351 OA
HETATM   21  C18 UNK     1      15.963   9.472  34.403  1.00  0.00     0.210 C 
ENDBRANCH  15  20
BRANCH  16  22
HETATM   22  O3  UNK     1      15.615   7.676  31.497  1.00  0.00    -0.353 OA
HETATM   23  C16 UNK     1      14.312   7.221  31.857  1.00  0.00     0.210 C 
ENDBRANCH  16  22
ENDBRANCH   3  12
BRANCH  10  24
HETATM   24  O6  UNK     1      18.158  -1.252  35.356  1.00  0.00    -0.356 OA
HETATM   25  C19 UNK     1      19.336  -1.743  35.995  1.00  0.00     0.210 C 
ENDBRANCH  10  24
TORSDOF 5
ENDMDL
MODEL 4
REMARK VINA RESULT:      -7.9      2.374      5.019
REMARK  5 active torsions:
REMARK  status: ('A' for Active; 'I' for Inactive)
REMARK    1  A    between atoms: C11_17  and  O3_3 
REMARK    2  A    between atoms: C12_18  and  O4_4 
REMARK    3  A    between atoms: C13_19  and  O5_5 
REMARK    4  A    between atoms: C14_20  and  O6_6 
REMARK    5  A    between atoms: C1_7  and  C3_9 
ROOT
HETATM    1  O1  UNK     1      17.888   3.013  33.401  1.00  0.00    -0.340 OA
HETATM    2  O2  UNK     1      19.157   1.673  29.738  1.00  0.00    -0.292 OA
HETATM    3  C1  UNK     1      18.553   3.898  32.488  1.00  0.00     0.169 C 
HETATM    4  C2  UNK     1      18.287   3.492  31.039  1.00  0.00     0.121 C 
HETATM    5  C4  UNK     1      18.771   2.080  30.827  1.00  0.00     0.165 C 
HETATM    6  C5  UNK     1      18.688   1.186  32.000  1.00  0.00     0.043 A 
HETATM    7  C6  UNK     1      18.229   1.698  33.216  1.00  0.00     0.086 A 
HETATM    8  C9  UNK     1      19.021  -0.166  31.884  1.00  0.00     0.021 A 
HETATM    9  C10 UNK     1      18.070   0.848  34.312  1.00  0.00     0.074 A 
HETATM   10  C14 UNK     1      18.401  -0.503  34.199  1.00  0.00     0.070 A 
HETATM   11  C15 UNK     1      18.880  -1.007  32.989  1.00  0.00     0.038 A 
ENDROOT
BRANCH   3  12
HETATM   12  C3  UNK     1      18.077   5.310  32.754  1.00  0.00    -0.023 A 
HETATM   13  C7  UNK     1      16.996   5.827  32.040  1.00  0.00     0.049 A 
HETATM   14  C12 UNK     1      16.558   7.128  32.285  1.00  0.00     0.104 A 
HETATM   15  C13 UNK     1      17.199   7.912  33.245  1.00  0.00     0.135 A 
HETATM   16  C11 UNK     1      18.279   7.393  33.959  1.00  0.00     0.104 A 
HETATM   17  C8  UNK     1      18.718   6.092  33.714  1.00  0.00     0.049 A 
BRANCH  14  18
HETATM   18  O4  UNK     1      15.501   7.622  31.582  1.00  0.00    -0.353 OA
HETATM   19  C17 UNK     1      14.205   7.146  31.939  1.00  0.00     0.210 C 
ENDBRANCH  14  18
BRANCH  15  20
HETATM   20  O5  UNK     1      16.769   9.183  33.485  1.00  0.00    -0.351 OA
HETATM   21  C18 UNK     1      15.821   9.357  34.535  1.00  0.00     0.210 C 
ENDBRANCH  15  20
BRANCH  16  22
HETATM   22  O3  UNK     1      18.915   8.148  34.898  1.00  0.00    -0.353 OA
HETATM   23  C16 UNK     1      20.052   8.894  34.469  1.00  0.00     0.210 C 
ENDBRANCH  16  22
ENDBRANCH   3  12
BRANCH  10  24
HETATM   24  O6  UNK     1      18.258  -1.330  35.270  1.00  0.00    -0.356 OA
HETATM   25  C19 UNK     1      19.453  -1.815  35.880  1.00  0.00     0.210 C 
ENDBRANCH  10  24
TORSDOF 5
ENDMDL
MODEL 5
REMARK VINA RESULT:      -7.9      2.969      8.134
REMARK  5 active torsions:
REMARK  status: ('A' for Active; 'I' for Inactive)
REMARK    1  A    between atoms: C11_17  and  O3_3 
REMARK    2  A    between atoms: C12_18  and  O4_4 
REMARK    3  A    between atoms: C13_19  and  O5_5 
REMARK    4  A    between atoms: C14_20  and  O6_6 
REMARK    5  A    between atoms: C1_7  and  C3_9 
ROOT
HETATM    1  O1  UNK     1      16.983   6.164  33.138  1.00  0.00    -0.340 OA
HETATM    2  O2  UNK     1      20.199   8.532  34.073  1.00  0.00    -0.292 OA
HETATM    3  C1  UNK     1      18.273   5.909  32.562  1.00  0.00     0.169 C 
HETATM    4  C2  UNK     1      19.391   6.345  33.507  1.00  0.00     0.121 C 
HETATM    5  C4  UNK     1      19.243   7.816  33.798  1.00  0.00     0.165 C 
HETATM    6  C5  UNK     1      17.861   8.338  33.803  1.00  0.00     0.043 A 
HETATM    7  C6  UNK     1      16.806   7.476  33.494  1.00  0.00     0.086 A 
HETATM    8  C9  UNK     1      17.607   9.666  34.155  1.00  0.00     0.021 A 
HETATM    9  C10 UNK     1      15.490   7.934  33.571  1.00  0.00     0.074 A 
HETATM   10  C14 UNK     1      15.233   9.259  33.923  1.00  0.00     0.070 A 
HETATM   11  C15 UNK     1      16.290  10.124  34.210  1.00  0.00     0.038 A 
ENDROOT
BRANCH   3  12
HETATM   12  C3  UNK     1      18.373   4.433  32.244  1.00  0.00    -0.023 A 
HETATM   13  C7  UNK     1      18.223   3.488  33.260  1.00  0.00     0.049 A 
HETATM   14  C12 UNK     1      18.316   2.128  32.966  1.00  0.00     0.104 A 
HETATM   15  C13 UNK     1      18.559   1.712  31.657  1.00  0.00     0.135 A 
HETATM   16  C11 UNK     1      18.708   2.656  30.642  1.00  0.00     0.104 A 
HETATM   17  C8  UNK     1      18.615   4.017  30.935  1.00  0.00     0.049 A 
BRANCH  14  18
HETATM   18  O4  UNK     1      18.167   1.216  33.967  1.00  0.00    -0.353 OA
HETATM   19  C17 UNK     1      18.474   1.650  35.291  1.00  0.00     0.210 C 
ENDBRANCH  14  18
BRANCH  15  20
HETATM   20  O5  UNK     1      18.648   0.381  31.371  1.00  0.00    -0.351 OA
HETATM   21  C18 UNK     1      19.956  -0.159  31.205  1.00  0.00     0.210 C 
ENDBRANCH  15  20
BRANCH  16  22
HETATM   22  O3  UNK     1      18.946   2.263  29.359  1.00  0.00    -0.353 OA
HETATM   23  C16 UNK     1      17.811   1.928  28.562  1.00  0.00     0.210 C 
ENDBRANCH  16  22
ENDBRANCH   3  12
BRANCH  10  24
HETATM   24  O6  UNK     1      13.950   9.709  33.987  1.00  0.00    -0.356 OA
HETATM   25  C19 UNK     1      13.610  10.816  33.154  1.00  0.00     0.210 C 
ENDBRANCH  10  24
TORSDOF 5
ENDMDL
MODEL 6
REMARK VINA RESULT:      -7.8      2.943      8.340
REMARK  5 active torsions:
REMARK  status: ('A' for Active; 'I' for Inactive)
REMARK    1  A    between atoms: C11_17  and  O3_3 
REMARK    2  A    between atoms: C12_18  and  O4_4 
REMARK    3  A    between atoms: C13_19  and  O5_5 
REMARK    4  A    between atoms: C14_20  and  O6_6 
REMARK    5  A    between atoms: C1_7  and  C3_9 
ROOT
HETATM    1  O1  UNK     1      17.003   6.076  33.133  1.00  0.00    -0.340 OA
HETATM    2  O2  UNK     1      20.229   8.462  33.984  1.00  0.00    -0.292 OA
HETATM    3  C1  UNK     1      18.285   5.812  32.544  1.00  0.00     0.169 C 
HETATM    4  C2  UNK     1      19.416   6.265  33.467  1.00  0.00     0.121 C 
HETATM    5  C4  UNK     1      19.270   7.741  33.734  1.00  0.00     0.165 C 
HETATM    6  C5  UNK     1      17.888   8.262  33.748  1.00  0.00     0.043 A 
HETATM    7  C6  UNK     1      16.830   7.394  33.468  1.00  0.00     0.086 A 
HETATM    8  C9  UNK     1      17.637   9.596  34.081  1.00  0.00     0.021 A 
HETATM    9  C10 UNK     1      15.515   7.852  33.554  1.00  0.00     0.074 A 
HETATM   10  C14 UNK     1      15.261   9.183  33.887  1.00  0.00     0.070 A 
HETATM   11  C15 UNK     1      16.321  10.054  34.145  1.00  0.00     0.038 A 
ENDROOT
BRANCH   3  12
HETATM   12  C3  UNK     1      18.383   4.330  32.250  1.00  0.00    -0.023 A 
HETATM   13  C7  UNK     1      18.624   3.892  30.948  1.00  0.00     0.049 A 
HETATM   14  C12 UNK     1      18.713   2.527  30.677  1.00  0.00     0.104 A 
HETATM   15  C13 UNK     1      18.561   1.600  31.709  1.00  0.00     0.135 A 
HETATM   16  C11 UNK     1      18.321   2.038  33.011  1.00  0.00     0.104 A 
HETATM   17  C8  UNK     1      18.231   3.404  33.282  1.00  0.00     0.049 A 
BRANCH  14  18
HETATM   18  O4  UNK     1      18.950   2.111  29.402  1.00  0.00    -0.353 OA
HETATM   19  C17 UNK     1      17.811   1.886  28.572  1.00  0.00     0.210 C 
ENDBRANCH  14  18
BRANCH  15  20
HETATM   20  O5  UNK     1      18.650   0.265  31.443  1.00  0.00    -0.351 OA
HETATM   21  C18 UNK     1      19.960  -0.288  31.336  1.00  0.00     0.210 C 
ENDBRANCH  15  20
BRANCH  16  22
HETATM   22  O3  UNK     1      18.169   1.143  34.026  1.00  0.00    -0.353 OA
HETATM   23  C16 UNK     1      18.156   1.665  35.354  1.00  0.00     0.210 C 
ENDBRANCH  16  22
ENDBRANCH   3  12
BRANCH  10  24
HETATM   24  O6  UNK     1      13.979   9.633  33.960  1.00  0.00    -0.356 OA
HETATM   25  C19 UNK     1      13.663  10.813  33.222  1.00  0.00     0.210 C 
ENDBRANCH  10  24
TORSDOF 5
ENDMDL
MODEL 7
REMARK VINA RESULT:      -7.7     14.181     18.923
REMARK  5 active torsions:
REMARK  status: ('A' for Active; 'I' for Inactive)
REMARK    1  A    between atoms: C11_17  and  O3_3 
REMARK    2  A    between atoms: C12_18  and  O4_4 
REMARK    3  A    between atoms: C13_19  and  O5_5 
REMARK    4  A    between atoms: C14_20  and  O6_6 
REMARK    5  A    between atoms: C1_7  and  C3_9 
ROOT
HETATM    1  O1  UNK     1      19.480  -1.254  17.547  1.00  0.00    -0.340 OA
HETATM    2  O2  UNK     1      19.030   2.140  15.286  1.00  0.00    -0.292 OA
HETATM    3  C1  UNK     1      18.911  -1.320  16.231  1.00  0.00     0.169 C 
HETATM    4  C2  UNK     1      19.473  -0.218  15.334  1.00  0.00     0.121 C 
HETATM    5  C4  UNK     1      19.172   1.122  15.954  1.00  0.00     0.165 C 
HETATM    6  C5  UNK     1      19.125   1.155  17.430  1.00  0.00     0.043 A 
HETATM    7  C6  UNK     1      19.305  -0.032  18.144  1.00  0.00     0.086 A 
HETATM    8  C9  UNK     1      18.948   2.366  18.106  1.00  0.00     0.021 A 
HETATM    9  C10 UNK     1      19.341  -0.004  19.539  1.00  0.00     0.074 A 
HETATM   10  C14 UNK     1      19.166   1.203  20.216  1.00  0.00     0.070 A 
HETATM   11  C15 UNK     1      18.965   2.384  19.501  1.00  0.00     0.038 A 
ENDROOT
BRANCH   3  12
HETATM   12  C3  UNK     1      19.195  -2.690  15.654  1.00  0.00    -0.023 A 
HETATM   13  C7  UNK     1      20.472  -3.242  15.763  1.00  0.00     0.049 A 
HETATM   14  C12 UNK     1      20.734  -4.504  15.230  1.00  0.00     0.104 A 
HETATM   15  C13 UNK     1      19.719  -5.215  14.590  1.00  0.00     0.135 A 
HETATM   16  C11 UNK     1      18.442  -4.663  14.482  1.00  0.00     0.104 A 
HETATM   17  C8  UNK     1      18.181  -3.401  15.014  1.00  0.00     0.049 A 
BRANCH  14  18
HETATM   18  O4  UNK     1      21.984  -5.032  15.344  1.00  0.00    -0.353 OA
HETATM   19  C17 UNK     1      22.742  -4.663  16.496  1.00  0.00     0.210 C 
ENDBRANCH  14  18
BRANCH  15  20
HETATM   20  O5  UNK     1      19.976  -6.450  14.071  1.00  0.00    -0.351 OA
HETATM   21  C18 UNK     1      20.415  -6.504  12.716  1.00  0.00     0.210 C 
ENDBRANCH  15  20
BRANCH  16  22
HETATM   22  O3  UNK     1      17.443  -5.347  13.857  1.00  0.00    -0.353 OA
HETATM   23  C16 UNK     1      16.734  -6.311  14.633  1.00  0.00     0.210 C 
ENDBRANCH  16  22
ENDBRANCH   3  12
BRANCH  10  24
HETATM   24  O6  UNK     1      19.190   1.228  21.577  1.00  0.00    -0.356 OA
HETATM   25  C19 UNK     1      19.903   2.300  22.193  1.00  0.00     0.210 C 
ENDBRANCH  10  24
TORSDOF 5
ENDMDL
MODEL 8
REMARK VINA RESULT:      -7.7      2.340      7.693
REMARK  5 active torsions:
REMARK  status: ('A' for Active; 'I' for Inactive)
REMARK    1  A    between atoms: C11_17  and  O3_3 
REMARK    2  A    between atoms: C12_18  and  O4_4 
REMARK    3  A    between atoms: C13_19  and  O5_5 
REMARK    4  A    between atoms: C14_20  and  O6_6 
REMARK    5  A    between atoms: C1_7  and  C3_9 
ROOT
HETATM    1  O1  UNK     1      18.098   4.074  32.771  1.00  0.00    -0.340 OA
HETATM    2  O2  UNK     1      19.237   6.292  29.514  1.00  0.00    -0.292 OA
HETATM    3  C1  UNK     1      18.232   3.463  31.479  1.00  0.00     0.169 C 
HETATM    4  C2  UNK     1      19.294   4.176  30.643  1.00  0.00     0.121 C 
HETATM    5  C4  UNK     1      18.906   5.624  30.486  1.00  0.00     0.165 C 
HETATM    6  C5  UNK     1      18.157   6.218  31.612  1.00  0.00     0.043 A 
HETATM    7  C6  UNK     1      17.814   5.414  32.702  1.00  0.00     0.086 A 
HETATM    8  C9  UNK     1      17.832   7.577  31.608  1.00  0.00     0.021 A 
HETATM    9  C10 UNK     1      17.176   5.978  33.807  1.00  0.00     0.074 A 
HETATM   10  C14 UNK     1      16.852   7.335  33.806  1.00  0.00     0.070 A 
HETATM   11  C15 UNK     1      17.175   8.131  32.707  1.00  0.00     0.038 A 
ENDROOT
BRANCH   3  12
HETATM   12  C3  UNK     1      18.581   2.003  31.673  1.00  0.00    -0.023 A 
HETATM   13  C7  UNK     1      18.291   1.372  32.883  1.00  0.00     0.049 A 
HETATM   14  C12 UNK     1      18.613   0.027  33.062  1.00  0.00     0.104 A 
HETATM   15  C13 UNK     1      19.224  -0.687  32.031  1.00  0.00     0.135 A 
HETATM   16  C11 UNK     1      19.513  -0.056  30.821  1.00  0.00     0.104 A 
HETATM   17  C8  UNK     1      19.192   1.290  30.642  1.00  0.00     0.049 A 
BRANCH  14  18
HETATM   18  O4  UNK     1      18.324  -0.579  34.247  1.00  0.00    -0.353 OA
HETATM   19  C17 UNK     1      18.578   0.169  35.436  1.00  0.00     0.210 C 
ENDBRANCH  14  18
BRANCH  15  20
HETATM   20  O5  UNK     1      19.537  -2.003  32.206  1.00  0.00    -0.351 OA
HETATM   21  C18 UNK     1      20.855  -2.300  32.660  1.00  0.00     0.210 C 
ENDBRANCH  15  20
BRANCH  16  22
HETATM   22  O3  UNK     1      20.111  -0.742  29.807  1.00  0.00    -0.353 OA
HETATM   23  C16 UNK     1      19.630  -0.496  28.487  1.00  0.00     0.210 C 
ENDBRANCH  16  22
ENDBRANCH   3  12
BRANCH  10  24
HETATM   24  O6  UNK     1      16.218   7.884  34.879  1.00  0.00    -0.356 OA
HETATM   25  C19 UNK     1      15.922   9.278  34.815  1.00  0.00     0.210 C 
ENDBRANCH  10  24
TORSDOF 5
ENDMDL
MODEL 9
REMARK VINA RESULT:      -7.6      2.267      7.963
REMARK  5 active torsions:
REMARK  status: ('A' for Active; 'I' for Inactive)
REMARK    1  A    between atoms: C11_17  and  O3_3 
REMARK    2  A    between atoms: C12_18  and  O4_4 
REMARK    3  A    between atoms: C13_19  and  O5_5 
REMARK    4  A    between atoms: C14_20  and  O6_6 
REMARK    5  A    between atoms: C1_7  and  C3_9 
ROOT
HETATM    1  O1  UNK     1      18.200   4.199  33.004  1.00  0.00    -0.340 OA
HETATM    2  O2  UNK     1      19.103   6.266  29.578  1.00  0.00    -0.292 OA
HETATM    3  C1  UNK     1      18.191   3.542  31.728  1.00  0.00     0.169 C 
HETATM    4  C2  UNK     1      19.193   4.187  30.772  1.00  0.00     0.121 C 
HETATM    5  C4  UNK     1      18.842   5.642  30.600  1.00  0.00     0.165 C 
HETATM    6  C5  UNK     1      18.223   6.301  31.769  1.00  0.00     0.043 A 
HETATM    7  C6  UNK     1      17.957   5.546  32.914  1.00  0.00     0.086 A 
HETATM    8  C9  UNK     1      17.947   7.670  31.747  1.00  0.00     0.021 A 
HETATM    9  C10 UNK     1      17.446   6.169  34.053  1.00  0.00     0.074 A 
HETATM   10  C14 UNK     1      17.171   7.537  34.035  1.00  0.00     0.070 A 
HETATM   11  C15 UNK     1      17.417   8.284  32.882  1.00  0.00     0.038 A 
ENDROOT
BRANCH   3  12
HETATM   12  C3  UNK     1      18.505   2.077  31.940  1.00  0.00    -0.023 A 
HETATM   13  C7  UNK     1      19.136   1.346  30.933  1.00  0.00     0.049 A 
HETATM   14  C12 UNK     1      19.425  -0.004  31.129  1.00  0.00     0.104 A 
HETATM   15  C13 UNK     1      19.083  -0.624  32.331  1.00  0.00     0.135 A 
HETATM   16  C11 UNK     1      18.453   0.108  33.338  1.00  0.00     0.104 A 
HETATM   17  C8  UNK     1      18.163   1.458  33.142  1.00  0.00     0.049 A 
BRANCH  14  18
HETATM   18  O4  UNK     1      20.042  -0.707  30.139  1.00  0.00    -0.353 OA
HETATM   19  C17 UNK     1      19.842  -0.253  28.801  1.00  0.00     0.210 C 
ENDBRANCH  14  18
BRANCH  15  20
HETATM   20  O5  UNK     1      19.368  -1.944  32.522  1.00  0.00    -0.351 OA
HETATM   21  C18 UNK     1      20.671  -2.262  33.004  1.00  0.00     0.210 C 
ENDBRANCH  15  20
BRANCH  16  22
HETATM   22  O3  UNK     1      18.113  -0.486  34.516  1.00  0.00    -0.353 OA
HETATM   23  C16 UNK     1      18.826  -0.072  35.680  1.00  0.00     0.210 C 
ENDBRANCH  16  22
ENDBRANCH   3  12
BRANCH  10  24
HETATM   24  O6  UNK     1      16.661   8.143  35.142  1.00  0.00    -0.356 OA
HETATM   25  C19 UNK     1      15.777   9.243  34.930  1.00  0.00     0.210 C 
ENDBRANCH  10  24
TORSDOF 5
ENDMDL
MODEL 10
REMARK VINA RESULT:      -7.5      3.280      6.942
REMARK  5 active torsions:
REMARK  status: ('A' for Active; 'I' for Inactive)
REMARK    1  A    between atoms: C11_17  and  O3_3 
REMARK    2  A    between atoms: C12_18  and  O4_4 
REMARK    3  A    between atoms: C13_19  and  O5_5 
REMARK    4  A    between atoms: C14_20  and  O6_6 
REMARK    5  A    between atoms: C1_7  and  C3_9 
ROOT
HETATM    1  O1  UNK     1      19.386  -5.297  36.863  1.00  0.00    -0.340 OA
HETATM    2  O2  UNK     1      23.076  -5.112  38.645  1.00  0.00    -0.292 OA
HETATM    3  C1  UNK     1      19.940  -4.038  37.273  1.00  0.00     0.169 C 
HETATM    4  C2  UNK     1      21.466  -4.063  37.209  1.00  0.00     0.121 C 
HETATM    5  C4  UNK     1      21.978  -5.162  38.105  1.00  0.00     0.165 C 
HETATM    6  C5  UNK     1      21.104  -6.345  38.240  1.00  0.00     0.043 A 
HETATM    7  C6  UNK     1      19.865  -6.355  37.593  1.00  0.00     0.086 A 
HETATM    8  C9  UNK     1      21.527  -7.459  38.970  1.00  0.00     0.021 A 
HETATM    9  C10 UNK     1      19.063  -7.495  37.647  1.00  0.00     0.074 A 
HETATM   10  C14 UNK     1      19.484  -8.609  38.374  1.00  0.00     0.070 A 
HETATM   11  C15 UNK     1      20.711  -8.588  39.038  1.00  0.00     0.038 A 
ENDROOT
BRANCH   3  12
HETATM   12  C3  UNK     1      19.375  -2.953  36.381  1.00  0.00    -0.023 A 
HETATM   13  C7  UNK     1      19.911  -2.745  35.110  1.00  0.00     0.049 A 
HETATM   14  C12 UNK     1      19.391  -1.744  34.290  1.00  0.00     0.104 A 
HETATM   15  C13 UNK     1      18.334  -0.952  34.739  1.00  0.00     0.135 A 
HETATM   16  C11 UNK     1      17.798  -1.162  36.010  1.00  0.00     0.104 A 
HETATM   17  C8  UNK     1      18.319  -2.162  36.831  1.00  0.00     0.049 A 
BRANCH  14  18
HETATM   18  O4  UNK     1      19.922  -1.552  33.051  1.00  0.00    -0.353 OA
HETATM   19  C17 UNK     1      20.935  -2.465  32.630  1.00  0.00     0.210 C 
ENDBRANCH  14  18
BRANCH  15  20
HETATM   20  O5  UNK     1      17.825   0.024  33.935  1.00  0.00    -0.351 OA
HETATM   21  C18 UNK     1      18.344   1.340  34.108  1.00  0.00     0.210 C 
ENDBRANCH  15  20
BRANCH  16  22
HETATM   22  O3  UNK     1      16.767  -0.394  36.461  1.00  0.00    -0.353 OA
HETATM   23  C16 UNK     1      17.066   0.561  37.478  1.00  0.00     0.210 C 
ENDBRANCH  16  22
ENDBRANCH   3  12
BRANCH  10  24
HETATM   24  O6  UNK     1      18.696  -9.717  38.437  1.00  0.00    -0.356 OA
HETATM   25  C19 UNK     1      19.352 -10.983  38.387  1.00  0.00     0.210 C 
ENDBRANCH  10  24
TORSDOF 5
ENDMDL
