MODEL 1
REMARK VINA RESULT:      -8.2      0.000      0.000
REMARK  5 active torsions:
REMARK  status: ('A' for Active; 'I' for Inactive)
REMARK    1  A    between atoms: C9_15  and  O2_2 
REMARK    2  A    between atoms: C10_16  and  O3_3 
REMARK    3  A    between atoms: C11_17  and  O4_4 
REMARK    4  A    between atoms: C14_20  and  O5_5 
REMARK    5  A    between atoms: C1_7  and  C2_8 
ROOT
HETATM    1  O1  UNK     1      18.901   0.497  34.469  1.00  0.00    -0.309 OA
HETATM    2  O6  UNK     1      17.215   1.132  38.124  1.00  0.00    -0.287 OA
HETATM    3  C2  UNK     1      18.301   1.704  34.794  1.00  0.00     0.090 A 
HETATM    4  C3  UNK     1      18.374  -0.344  36.686  1.00  0.00     0.048 A 
HETATM    5  C4  UNK     1      18.930  -0.494  35.417  1.00  0.00     0.093 A 
HETATM    6  C7  UNK     1      17.725   1.967  35.978  1.00  0.00     0.093 A 
HETATM    7  C8  UNK     1      17.727   0.932  37.030  1.00  0.00     0.187 A 
HETATM    8  C12 UNK     1      19.547  -1.695  35.065  1.00  0.00     0.075 A 
HETATM    9  C13 UNK     1      18.431  -1.388  37.612  1.00  0.00     0.021 A 
HETATM   10  C14 UNK     1      19.607  -2.741  35.986  1.00  0.00     0.070 A 
HETATM   11  C15 UNK     1      19.050  -2.588  37.257  1.00  0.00     0.038 A 
ENDROOT
BRANCH   3  12
HETATM   12  C1  UNK     1      18.321   2.696  33.701  1.00  0.00     0.003 A 
HETATM   13  C5  UNK     1      18.369   4.062  33.994  1.00  0.00     0.054 A 
HETATM   14  C10 UNK     1      18.388   4.999  32.961  1.00  0.00     0.105 A 
HETATM   15  C11 UNK     1      18.359   4.575  31.633  1.00  0.00     0.135 A 
HETATM   16  C9  UNK     1      18.311   3.212  31.336  1.00  0.00     0.105 A 
HETATM   17  C6  UNK     1      18.291   2.275  32.369  1.00  0.00     0.054 A 
BRANCH  14  18
HETATM   18  O3  UNK     1      18.435   6.327  33.263  1.00  0.00    -0.353 OA
HETATM   19  C17 UNK     1      19.697   6.854  33.669  1.00  0.00     0.210 C 
ENDBRANCH  14  18
BRANCH  15  20
HETATM   20  O4  UNK     1      18.377   5.492  30.624  1.00  0.00    -0.351 OA
HETATM   21  C18 UNK     1      19.652   5.836  30.085  1.00  0.00     0.210 C 
ENDBRANCH  15  20
BRANCH  16  22
HETATM   22  O2  UNK     1      18.282   2.785  30.043  1.00  0.00    -0.353 OA
HETATM   23  C16 UNK     1      18.936   1.551  29.754  1.00  0.00     0.210 C 
ENDBRANCH  16  22
ENDBRANCH   3  12
BRANCH  10  24
HETATM   24  O5  UNK     1      20.210  -3.912  35.645  1.00  0.00    -0.356 OA
HETATM   25  C19 UNK     1      19.815  -5.079  36.364  1.00  0.00     0.210 C 
ENDBRANCH  10  24
TORSDOF 5
ENDMDL
MODEL 2
REMARK VINA RESULT:      -8.2      0.021      2.505
REMARK  5 active torsions:
REMARK  status: ('A' for Active; 'I' for Inactive)
REMARK    1  A    between atoms: C9_15  and  O2_2 
REMARK    2  A    between atoms: C10_16  and  O3_3 
REMARK    3  A    between atoms: C11_17  and  O4_4 
REMARK    4  A    between atoms: C14_20  and  O5_5 
REMARK    5  A    between atoms: C1_7  and  C2_8 
ROOT
HETATM    1  O1  UNK     1      18.887   0.500  34.457  1.00  0.00    -0.309 OA
HETATM    2  O6  UNK     1      17.226   1.142  38.122  1.00  0.00    -0.287 OA
HETATM    3  C2  UNK     1      18.295   1.710  34.786  1.00  0.00     0.090 A 
HETATM    4  C3  UNK     1      18.369  -0.339  36.677  1.00  0.00     0.048 A 
HETATM    5  C4  UNK     1      18.917  -0.492  35.405  1.00  0.00     0.093 A 
HETATM    6  C7  UNK     1      17.728   1.975  35.974  1.00  0.00     0.093 A 
HETATM    7  C8  UNK     1      17.731   0.940  37.026  1.00  0.00     0.187 A 
HETATM    8  C12 UNK     1      19.526  -1.696  35.048  1.00  0.00     0.075 A 
HETATM    9  C13 UNK     1      18.427  -1.384  37.602  1.00  0.00     0.021 A 
HETATM   10  C14 UNK     1      19.585  -2.742  35.969  1.00  0.00     0.070 A 
HETATM   11  C15 UNK     1      19.037  -2.587  37.243  1.00  0.00     0.038 A 
ENDROOT
BRANCH   3  12
HETATM   12  C1  UNK     1      18.314   2.703  33.694  1.00  0.00     0.003 A 
HETATM   13  C5  UNK     1      18.276   2.282  32.362  1.00  0.00     0.054 A 
HETATM   14  C10 UNK     1      18.294   3.221  31.331  1.00  0.00     0.105 A 
HETATM   15  C11 UNK     1      18.351   4.582  31.627  1.00  0.00     0.135 A 
HETATM   16  C9  UNK     1      18.391   5.007  32.956  1.00  0.00     0.105 A 
HETATM   17  C6  UNK     1      18.373   4.068  33.987  1.00  0.00     0.054 A 
BRANCH  14  18
HETATM   18  O3  UNK     1      18.255   2.795  30.038  1.00  0.00    -0.353 OA
HETATM   19  C17 UNK     1      18.940   1.580  29.735  1.00  0.00     0.210 C 
ENDBRANCH  14  18
BRANCH  15  20
HETATM   20  O4  UNK     1      18.369   5.500  30.618  1.00  0.00    -0.351 OA
HETATM   21  C18 UNK     1      19.643   5.834  30.071  1.00  0.00     0.210 C 
ENDBRANCH  15  20
BRANCH  16  22
HETATM   22  O2  UNK     1      18.447   6.334  33.259  1.00  0.00    -0.353 OA
HETATM   23  C16 UNK     1      19.720   6.859  33.633  1.00  0.00     0.210 C 
ENDBRANCH  16  22
ENDBRANCH   3  12
BRANCH  10  24
HETATM   24  O5  UNK     1      20.180  -3.917  35.623  1.00  0.00    -0.356 OA
HETATM   25  C19 UNK     1      19.829  -5.071  36.386  1.00  0.00     0.210 C 
ENDBRANCH  10  24
TORSDOF 5
ENDMDL
MODEL 3
REMARK VINA RESULT:      -8.1      2.362      4.950
REMARK  5 active torsions:
REMARK  status: ('A' for Active; 'I' for Inactive)
REMARK    1  A    between atoms: C9_15  and  O2_2 
REMARK    2  A    between atoms: C10_16  and  O3_3 
REMARK    3  A    between atoms: C11_17  and  O4_4 
REMARK    4  A    between atoms: C14_20  and  O5_5 
REMARK    5  A    between atoms: C1_7  and  C2_8 
ROOT
HETATM    1  O1  UNK     1      18.071   3.027  33.105  1.00  0.00    -0.309 OA
HETATM    2  O6  UNK     1      19.300   1.453  29.554  1.00  0.00    -0.287 OA
HETATM    3  C2  UNK     1      18.230   3.816  31.976  1.00  0.00     0.090 A 
HETATM    4  C3  UNK     1      18.749   1.080  31.822  1.00  0.00     0.048 A 
HETATM    5  C4  UNK     1      18.327   1.683  33.005  1.00  0.00     0.093 A 
HETATM    6  C7  UNK     1      18.637   3.354  30.783  1.00  0.00     0.093 A 
HETATM    7  C8  UNK     1      18.928   1.915  30.624  1.00  0.00     0.187 A 
HETATM    8  C12 UNK     1      18.151   0.914  34.155  1.00  0.00     0.075 A 
HETATM    9  C13 UNK     1      18.996  -0.294  31.778  1.00  0.00     0.021 A 
HETATM   10  C14 UNK     1      18.397  -0.459  34.116  1.00  0.00     0.070 A 
HETATM   11  C15 UNK     1      18.818  -1.062  32.930  1.00  0.00     0.038 A 
ENDROOT
BRANCH   3  12
HETATM   12  C1  UNK     1      17.933   5.245  32.196  1.00  0.00     0.003 A 
HETATM   13  C5  UNK     1      16.739   5.795  31.724  1.00  0.00     0.054 A 
HETATM   14  C10 UNK     1      16.460   7.146  31.932  1.00  0.00     0.105 A 
HETATM   15  C11 UNK     1      17.372   7.951  32.612  1.00  0.00     0.135 A 
HETATM   16  C9  UNK     1      18.567   7.405  33.085  1.00  0.00     0.105 A 
HETATM   17  C6  UNK     1      18.847   6.055  32.877  1.00  0.00     0.054 A 
BRANCH  14  18
HETATM   18  O3  UNK     1      15.290   7.666  31.466  1.00  0.00    -0.353 OA
HETATM   19  C17 UNK     1      14.088   7.227  32.097  1.00  0.00     0.210 C 
ENDBRANCH  14  18
BRANCH  15  20
HETATM   20  O4  UNK     1      17.099   9.271  32.815  1.00  0.00    -0.351 OA
HETATM   21  C18 UNK     1      16.385   9.609  34.002  1.00  0.00     0.210 C 
ENDBRANCH  15  20
BRANCH  16  22
HETATM   22  O2  UNK     1      19.468   8.181  33.751  1.00  0.00    -0.353 OA
HETATM   23  C16 UNK     1      19.553   8.006  35.164  1.00  0.00     0.210 C 
ENDBRANCH  16  22
ENDBRANCH   3  12
BRANCH  10  24
HETATM   24  O5  UNK     1      18.225  -1.211  35.237  1.00  0.00    -0.356 OA
HETATM   25  C19 UNK     1      19.403  -1.665  35.901  1.00  0.00     0.210 C 
ENDBRANCH  10  24
TORSDOF 5
ENDMDL
MODEL 4
REMARK VINA RESULT:      -8.1      2.363      4.659
REMARK  5 active torsions:
REMARK  status: ('A' for Active; 'I' for Inactive)
REMARK    1  A    between atoms: C9_15  and  O2_2 
REMARK    2  A    between atoms: C10_16  and  O3_3 
REMARK    3  A    between atoms: C11_17  and  O4_4 
REMARK    4  A    between atoms: C14_20  and  O5_5 
REMARK    5  A    between atoms: C1_7  and  C2_8 
ROOT
HETATM    1  O1  UNK     1      18.068   3.036  33.109  1.00  0.00    -0.309 OA
HETATM    2  O6  UNK     1      19.295   1.458  29.558  1.00  0.00    -0.287 OA
HETATM    3  C2  UNK     1      18.227   3.823  31.979  1.00  0.00     0.090 A 
HETATM    4  C3  UNK     1      18.744   1.087  31.826  1.00  0.00     0.048 A 
HETATM    5  C4  UNK     1      18.323   1.691  33.009  1.00  0.00     0.093 A 
HETATM    6  C7  UNK     1      18.633   3.360  30.786  1.00  0.00     0.093 A 
HETATM    7  C8  UNK     1      18.923   1.921  30.628  1.00  0.00     0.187 A 
HETATM    8  C12 UNK     1      18.147   0.923  34.160  1.00  0.00     0.075 A 
HETATM    9  C13 UNK     1      18.990  -0.288  31.783  1.00  0.00     0.021 A 
HETATM   10  C14 UNK     1      18.391  -0.450  34.122  1.00  0.00     0.070 A 
HETATM   11  C15 UNK     1      18.812  -1.054  32.936  1.00  0.00     0.038 A 
ENDROOT
BRANCH   3  12
HETATM   12  C1  UNK     1      17.932   5.253  32.199  1.00  0.00     0.003 A 
HETATM   13  C5  UNK     1      18.846   6.063  32.876  1.00  0.00     0.054 A 
HETATM   14  C10 UNK     1      18.566   7.413  33.083  1.00  0.00     0.105 A 
HETATM   15  C11 UNK     1      17.372   7.959  32.614  1.00  0.00     0.135 A 
HETATM   16  C9  UNK     1      16.455   7.153  31.938  1.00  0.00     0.105 A 
HETATM   17  C6  UNK     1      16.735   5.802  31.731  1.00  0.00     0.054 A 
BRANCH  14  18
HETATM   18  O3  UNK     1      19.469   8.190  33.745  1.00  0.00    -0.353 OA
HETATM   19  C17 UNK     1      19.564   8.013  35.158  1.00  0.00     0.210 C 
ENDBRANCH  14  18
BRANCH  15  20
HETATM   20  O4  UNK     1      17.098   9.279  32.818  1.00  0.00    -0.351 OA
HETATM   21  C18 UNK     1      16.386   9.617  34.006  1.00  0.00     0.210 C 
ENDBRANCH  15  20
BRANCH  16  22
HETATM   22  O2  UNK     1      15.284   7.673  31.475  1.00  0.00    -0.353 OA
HETATM   23  C16 UNK     1      14.083   7.218  32.096  1.00  0.00     0.210 C 
ENDBRANCH  16  22
ENDBRANCH   3  12
BRANCH  10  24
HETATM   24  O5  UNK     1      18.219  -1.202  35.243  1.00  0.00    -0.356 OA
HETATM   25  C19 UNK     1      19.396  -1.692  35.884  1.00  0.00     0.210 C 
ENDBRANCH  10  24
TORSDOF 5
ENDMDL
MODEL 5
REMARK VINA RESULT:      -7.9      2.965      8.392
REMARK  5 active torsions:
REMARK  status: ('A' for Active; 'I' for Inactive)
REMARK    1  A    between atoms: C9_15  and  O2_2 
REMARK    2  A    between atoms: C10_16  and  O3_3 
REMARK    3  A    between atoms: C11_17  and  O4_4 
REMARK    4  A    between atoms: C14_20  and  O5_5 
REMARK    5  A    between atoms: C1_7  and  C2_8 
ROOT
HETATM    1  O1  UNK     1      16.914   6.112  32.754  1.00  0.00    -0.309 OA
HETATM    2  O6  UNK     1      19.969   8.399  34.181  1.00  0.00    -0.287 OA
HETATM    3  C2  UNK     1      18.194   5.602  32.908  1.00  0.00     0.090 A 
HETATM    4  C3  UNK     1      17.683   8.255  33.601  1.00  0.00     0.048 A 
HETATM    5  C4  UNK     1      16.684   7.418  33.106  1.00  0.00     0.093 A 
HETATM    6  C7  UNK     1      19.239   6.309  33.367  1.00  0.00     0.093 A 
HETATM    7  C8  UNK     1      19.044   7.720  33.757  1.00  0.00     0.187 A 
HETATM    8  C12 UNK     1      15.385   7.901  32.946  1.00  0.00     0.075 A 
HETATM    9  C13 UNK     1      17.391   9.578  33.942  1.00  0.00     0.021 A 
HETATM   10  C14 UNK     1      15.090   9.221  33.286  1.00  0.00     0.070 A 
HETATM   11  C15 UNK     1      16.090  10.058  33.783  1.00  0.00     0.038 A 
ENDROOT
BRANCH   3  12
HETATM   12  C1  UNK     1      18.332   4.191  32.495  1.00  0.00     0.003 A 
HETATM   13  C5  UNK     1      18.579   3.872  31.158  1.00  0.00     0.054 A 
HETATM   14  C10 UNK     1      18.708   2.539  30.769  1.00  0.00     0.105 A 
HETATM   15  C11 UNK     1      18.591   1.521  31.715  1.00  0.00     0.135 A 
HETATM   16  C9  UNK     1      18.343   1.836  33.052  1.00  0.00     0.105 A 
HETATM   17  C6  UNK     1      18.213   3.169  33.441  1.00  0.00     0.054 A 
BRANCH  14  18
HETATM   18  O3  UNK     1      18.950   2.244  29.461  1.00  0.00    -0.353 OA
HETATM   19  C17 UNK     1      17.813   2.039  28.622  1.00  0.00     0.210 C 
ENDBRANCH  14  18
BRANCH  15  20
HETATM   20  O4  UNK     1      18.717   0.217  31.334  1.00  0.00    -0.351 OA
HETATM   21  C18 UNK     1      20.041  -0.283  31.168  1.00  0.00     0.210 C 
ENDBRANCH  15  20
BRANCH  16  22
HETATM   22  O2  UNK     1      18.225   0.851  33.986  1.00  0.00    -0.353 OA
HETATM   23  C16 UNK     1      18.553   1.192  35.331  1.00  0.00     0.210 C 
ENDBRANCH  16  22
ENDBRANCH   3  12
BRANCH  10  24
HETATM   24  O5  UNK     1      13.822   9.695  33.132  1.00  0.00    -0.356 OA
HETATM   25  C19 UNK     1      13.669  11.106  32.993  1.00  0.00     0.210 C 
ENDBRANCH  10  24
TORSDOF 5
ENDMDL
MODEL 6
REMARK VINA RESULT:      -7.8      2.979      8.231
REMARK  5 active torsions:
REMARK  status: ('A' for Active; 'I' for Inactive)
REMARK    1  A    between atoms: C9_15  and  O2_2 
REMARK    2  A    between atoms: C10_16  and  O3_3 
REMARK    3  A    between atoms: C11_17  and  O4_4 
REMARK    4  A    between atoms: C14_20  and  O5_5 
REMARK    5  A    between atoms: C1_7  and  C2_8 
ROOT
HETATM    1  O1  UNK     1      16.898   6.128  32.715  1.00  0.00    -0.309 OA
HETATM    2  O6  UNK     1      19.953   8.433  34.113  1.00  0.00    -0.287 OA
HETATM    3  C2  UNK     1      18.182   5.625  32.860  1.00  0.00     0.090 A 
HETATM    4  C3  UNK     1      17.663   8.276  33.552  1.00  0.00     0.048 A 
HETATM    5  C4  UNK     1      16.664   7.433  33.067  1.00  0.00     0.093 A 
HETATM    6  C7  UNK     1      19.227   6.338  33.309  1.00  0.00     0.093 A 
HETATM    7  C8  UNK     1      19.028   7.749  33.697  1.00  0.00     0.187 A 
HETATM    8  C12 UNK     1      15.362   7.909  32.917  1.00  0.00     0.075 A 
HETATM    9  C13 UNK     1      17.367   9.598  33.894  1.00  0.00     0.021 A 
HETATM   10  C14 UNK     1      15.062   9.229  33.257  1.00  0.00     0.070 A 
HETATM   11  C15 UNK     1      16.063  10.071  33.744  1.00  0.00     0.038 A 
ENDROOT
BRANCH   3  12
HETATM   12  C1  UNK     1      18.323   4.214  32.448  1.00  0.00     0.003 A 
HETATM   13  C5  UNK     1      18.209   3.192  33.394  1.00  0.00     0.054 A 
HETATM   14  C10 UNK     1      18.342   1.860  33.005  1.00  0.00     0.105 A 
HETATM   15  C11 UNK     1      18.590   1.544  31.670  1.00  0.00     0.135 A 
HETATM   16  C9  UNK     1      18.706   2.561  30.722  1.00  0.00     0.105 A 
HETATM   17  C6  UNK     1      18.573   3.894  31.111  1.00  0.00     0.054 A 
BRANCH  14  18
HETATM   18  O3  UNK     1      18.228   0.875  33.939  1.00  0.00    -0.353 OA
HETATM   19  C17 UNK     1      18.504   1.231  35.293  1.00  0.00     0.210 C 
ENDBRANCH  14  18
BRANCH  15  20
HETATM   20  O4  UNK     1      18.722   0.241  31.290  1.00  0.00    -0.351 OA
HETATM   21  C18 UNK     1      20.048  -0.265  31.159  1.00  0.00     0.210 C 
ENDBRANCH  15  20
BRANCH  16  22
HETATM   22  O2  UNK     1      18.949   2.266  29.414  1.00  0.00    -0.353 OA
HETATM   23  C16 UNK     1      17.817   1.988  28.592  1.00  0.00     0.210 C 
ENDBRANCH  16  22
ENDBRANCH   3  12
BRANCH  10  24
HETATM   24  O5  UNK     1      13.791   9.695  33.113  1.00  0.00    -0.356 OA
HETATM   25  C19 UNK     1      13.623  11.110  33.052  1.00  0.00     0.210 C 
ENDBRANCH  10  24
TORSDOF 5
ENDMDL
MODEL 7
REMARK VINA RESULT:      -7.7      3.336      6.691
REMARK  5 active torsions:
REMARK  status: ('A' for Active; 'I' for Inactive)
REMARK    1  A    between atoms: C9_15  and  O2_2 
REMARK    2  A    between atoms: C10_16  and  O3_3 
REMARK    3  A    between atoms: C11_17  and  O4_4 
REMARK    4  A    between atoms: C14_20  and  O5_5 
REMARK    5  A    between atoms: C1_7  and  C2_8 
ROOT
HETATM    1  O1  UNK     1      19.391  -5.326  36.954  1.00  0.00    -0.309 OA
HETATM    2  O6  UNK     1      23.083  -5.175  38.671  1.00  0.00    -0.287 OA
HETATM    3  C2  UNK     1      20.183  -4.191  36.877  1.00  0.00     0.090 A 
HETATM    4  C3  UNK     1      21.136  -6.438  38.227  1.00  0.00     0.048 A 
HETATM    5  C4  UNK     1      19.882  -6.422  37.618  1.00  0.00     0.093 A 
HETATM    6  C7  UNK     1      21.403  -4.082  37.427  1.00  0.00     0.093 A 
HETATM    7  C8  UNK     1      21.975  -5.233  38.156  1.00  0.00     0.187 A 
HETATM    8  C12 UNK     1      19.066  -7.552  37.673  1.00  0.00     0.075 A 
HETATM    9  C13 UNK     1      21.584  -7.583  38.891  1.00  0.00     0.021 A 
HETATM   10  C14 UNK     1      19.509  -8.697  38.335  1.00  0.00     0.070 A 
HETATM   11  C15 UNK     1      20.765  -8.712  38.943  1.00  0.00     0.038 A 
ENDROOT
BRANCH   3  12
HETATM   12  C1  UNK     1      19.558  -3.072  36.146  1.00  0.00     0.003 A 
HETATM   13  C5  UNK     1      18.557  -2.309  36.752  1.00  0.00     0.054 A 
HETATM   14  C10 UNK     1      17.966  -1.252  36.060  1.00  0.00     0.105 A 
HETATM   15  C11 UNK     1      18.373  -0.954  34.761  1.00  0.00     0.135 A 
HETATM   16  C9  UNK     1      19.373  -1.714  34.151  1.00  0.00     0.105 A 
HETATM   17  C6  UNK     1      19.963  -2.771  34.842  1.00  0.00     0.054 A 
BRANCH  14  18
HETATM   18  O3  UNK     1      16.992  -0.517  36.666  1.00  0.00    -0.353 OA
HETATM   19  C17 UNK     1      17.401   0.372  37.704  1.00  0.00     0.210 C 
ENDBRANCH  14  18
BRANCH  15  20
HETATM   20  O4  UNK     1      17.795   0.080  34.084  1.00  0.00    -0.351 OA
HETATM   21  C18 UNK     1      18.358   1.375  34.278  1.00  0.00     0.210 C 
ENDBRANCH  15  20
BRANCH  16  22
HETATM   22  O2  UNK     1      19.780  -1.433  32.881  1.00  0.00    -0.353 OA
HETATM   23  C16 UNK     1      20.788  -2.274  32.324  1.00  0.00     0.210 C 
ENDBRANCH  16  22
ENDBRANCH   3  12
BRANCH  10  24
HETATM   24  O5  UNK     1      18.715  -9.801  38.388  1.00  0.00    -0.356 OA
HETATM   25  C19 UNK     1      19.367 -11.064  38.508  1.00  0.00     0.210 C 
ENDBRANCH  10  24
TORSDOF 5
ENDMDL
MODEL 8
REMARK VINA RESULT:      -7.7      2.231      8.324
REMARK  5 active torsions:
REMARK  status: ('A' for Active; 'I' for Inactive)
REMARK    1  A    between atoms: C9_15  and  O2_2 
REMARK    2  A    between atoms: C10_16  and  O3_3 
REMARK    3  A    between atoms: C11_17  and  O4_4 
REMARK    4  A    between atoms: C14_20  and  O5_5 
REMARK    5  A    between atoms: C1_7  and  C2_8 
ROOT
HETATM    1  O1  UNK     1      17.625   4.748  34.166  1.00  0.00    -0.309 OA
HETATM    2  O6  UNK     1      18.653   5.679  30.335  1.00  0.00    -0.287 OA
HETATM    3  C2  UNK     1      18.139   3.796  33.299  1.00  0.00     0.090 A 
HETATM    4  C3  UNK     1      17.808   6.420  32.414  1.00  0.00     0.048 A 
HETATM    5  C4  UNK     1      17.475   6.033  33.711  1.00  0.00     0.093 A 
HETATM    6  C7  UNK     1      18.489   4.043  32.027  1.00  0.00     0.093 A 
HETATM    7  C8  UNK     1      18.344   5.411  31.488  1.00  0.00     0.187 A 
HETATM    8  C12 UNK     1      16.963   6.971  34.608  1.00  0.00     0.075 A 
HETATM    9  C13 UNK     1      17.633   7.744  32.004  1.00  0.00     0.021 A 
HETATM   10  C14 UNK     1      16.787   8.294  34.203  1.00  0.00     0.070 A 
HETATM   11  C15 UNK     1      17.121   8.680  32.904  1.00  0.00     0.038 A 
ENDROOT
BRANCH   3  12
HETATM   12  C1  UNK     1      18.253   2.447  33.888  1.00  0.00     0.003 A 
HETATM   13  C5  UNK     1      18.226   1.318  33.067  1.00  0.00     0.054 A 
HETATM   14  C10 UNK     1      18.334   0.044  33.625  1.00  0.00     0.105 A 
HETATM   15  C11 UNK     1      18.469  -0.105  35.004  1.00  0.00     0.135 A 
HETATM   16  C9  UNK     1      18.495   1.021  35.829  1.00  0.00     0.105 A 
HETATM   17  C6  UNK     1      18.387   2.294  35.271  1.00  0.00     0.054 A 
BRANCH  14  18
HETATM   18  O3  UNK     1      18.307  -1.048  32.810  1.00  0.00    -0.353 OA
HETATM   19  C17 UNK     1      19.436  -1.250  31.961  1.00  0.00     0.210 C 
ENDBRANCH  14  18
BRANCH  15  20
HETATM   20  O4  UNK     1      18.574  -1.351  35.550  1.00  0.00    -0.351 OA
HETATM   21  C18 UNK     1      19.887  -1.886  35.694  1.00  0.00     0.210 C 
ENDBRANCH  15  20
BRANCH  16  22
HETATM   22  O2  UNK     1      18.625   0.889  37.179  1.00  0.00    -0.353 OA
HETATM   23  C16 UNK     1      17.460   1.125  37.968  1.00  0.00     0.210 C 
ENDBRANCH  16  22
ENDBRANCH   3  12
BRANCH  10  24
HETATM   24  O5  UNK     1      16.288   9.211  35.077  1.00  0.00    -0.356 OA
HETATM   25  C19 UNK     1      16.162  10.553  34.609  1.00  0.00     0.210 C 
ENDBRANCH  10  24
TORSDOF 5
ENDMDL
MODEL 9
REMARK VINA RESULT:      -7.6     25.217     27.659
REMARK  5 active torsions:
REMARK  status: ('A' for Active; 'I' for Inactive)
REMARK    1  A    between atoms: C9_15  and  O2_2 
REMARK    2  A    between atoms: C10_16  and  O3_3 
REMARK    3  A    between atoms: C11_17  and  O4_4 
REMARK    4  A    between atoms: C14_20  and  O5_5 
REMARK    5  A    between atoms: C1_7  and  C2_8 
ROOT
HETATM    1  O1  UNK     1       9.819   5.571   9.440  1.00  0.00    -0.309 OA
HETATM    2  O6  UNK     1       9.349   6.643   5.537  1.00  0.00    -0.287 OA
HETATM    3  C2  UNK     1       8.571   5.596   8.837  1.00  0.00     0.090 A 
HETATM    4  C3  UNK     1      10.826   6.282   7.346  1.00  0.00     0.048 A 
HETATM    5  C4  UNK     1      10.915   5.907   8.686  1.00  0.00     0.093 A 
HETATM    6  C7  UNK     1       8.355   5.946   7.559  1.00  0.00     0.093 A 
HETATM    7  C8  UNK     1       9.502   6.319   6.707  1.00  0.00     0.187 A 
HETATM    8  C12 UNK     1      12.159   5.866   9.317  1.00  0.00     0.075 A 
HETATM    9  C13 UNK     1      11.976   6.615   6.627  1.00  0.00     0.021 A 
HETATM   10  C14 UNK     1      13.310   6.198   8.603  1.00  0.00     0.070 A 
HETATM   11  C15 UNK     1      13.219   6.572   7.261  1.00  0.00     0.038 A 
ENDROOT
BRANCH   3  12
HETATM   12  C1  UNK     1       7.463   5.222   9.738  1.00  0.00     0.003 A 
HETATM   13  C5  UNK     1       7.147   3.877   9.942  1.00  0.00     0.054 A 
HETATM   14  C10 UNK     1       6.100   3.525  10.793  1.00  0.00     0.105 A 
HETATM   15  C11 UNK     1       5.365   4.515  11.443  1.00  0.00     0.135 A 
HETATM   16  C9  UNK     1       5.676   5.861  11.242  1.00  0.00     0.105 A 
HETATM   17  C6  UNK     1       6.724   6.213  10.390  1.00  0.00     0.054 A 
BRANCH  14  18
HETATM   18  O3  UNK     1       5.805   2.208  10.982  1.00  0.00    -0.353 OA
HETATM   19  C17 UNK     1       5.219   1.511   9.883  1.00  0.00     0.210 C 
ENDBRANCH  14  18
BRANCH  15  20
HETATM   20  O4  UNK     1       4.341   4.170  12.275  1.00  0.00    -0.351 OA
HETATM   21  C18 UNK     1       4.666   3.957  13.647  1.00  0.00     0.210 C 
ENDBRANCH  15  20
BRANCH  16  22
HETATM   22  O2  UNK     1       4.966   6.839  11.871  1.00  0.00    -0.353 OA
HETATM   23  C16 UNK     1       5.650   7.598  12.866  1.00  0.00     0.210 C 
ENDBRANCH  16  22
ENDBRANCH   3  12
BRANCH  10  24
HETATM   24  O5  UNK     1      14.525   6.158   9.216  1.00  0.00    -0.356 OA
HETATM   25  C19 UNK     1      14.864   4.955   9.904  1.00  0.00     0.210 C 
ENDBRANCH  10  24
TORSDOF 5
ENDMDL
MODEL 10
REMARK VINA RESULT:      -7.6     25.189     27.523
REMARK  5 active torsions:
REMARK  status: ('A' for Active; 'I' for Inactive)
REMARK    1  A    between atoms: C9_15  and  O2_2 
REMARK    2  A    between atoms: C10_16  and  O3_3 
REMARK    3  A    between atoms: C11_17  and  O4_4 
REMARK    4  A    between atoms: C14_20  and  O5_5 
REMARK    5  A    between atoms: C1_7  and  C2_8 
ROOT
HETATM    1  O1  UNK     1       9.822   5.541   9.461  1.00  0.00    -0.309 OA
HETATM    2  O6  UNK     1       9.331   6.638   5.567  1.00  0.00    -0.287 OA
HETATM    3  C2  UNK     1       8.571   5.567   8.865  1.00  0.00     0.090 A 
HETATM    4  C3  UNK     1      10.817   6.268   7.368  1.00  0.00     0.048 A 
HETATM    5  C4  UNK     1      10.914   5.885   8.704  1.00  0.00     0.093 A 
HETATM    6  C7  UNK     1       8.348   5.925   7.590  1.00  0.00     0.093 A 
HETATM    7  C8  UNK     1       9.490   6.306   6.735  1.00  0.00     0.187 A 
HETATM    8  C12 UNK     1      12.161   5.842   9.329  1.00  0.00     0.075 A 
HETATM    9  C13 UNK     1      11.963   6.609   6.645  1.00  0.00     0.021 A 
HETATM   10  C14 UNK     1      13.308   6.182   8.611  1.00  0.00     0.070 A 
HETATM   11  C15 UNK     1      13.210   6.564   7.273  1.00  0.00     0.038 A 
ENDROOT
BRANCH   3  12
HETATM   12  C1  UNK     1       7.468   5.185   9.768  1.00  0.00     0.003 A 
HETATM   13  C5  UNK     1       6.753   6.167  10.458  1.00  0.00     0.054 A 
HETATM   14  C10 UNK     1       5.711   5.805  11.311  1.00  0.00     0.105 A 
HETATM   15  C11 UNK     1       5.381   4.461  11.480  1.00  0.00     0.135 A 
HETATM   16  C9  UNK     1       6.094   3.476  10.794  1.00  0.00     0.105 A 
HETATM   17  C6  UNK     1       7.136   3.838   9.940  1.00  0.00     0.054 A 
BRANCH  14  18
HETATM   18  O3  UNK     1       5.023   6.775  11.976  1.00  0.00    -0.353 OA
HETATM   19  C17 UNK     1       5.701   7.436  13.043  1.00  0.00     0.210 C 
ENDBRANCH  14  18
BRANCH  15  20
HETATM   20  O4  UNK     1       4.363   4.107  12.315  1.00  0.00    -0.351 OA
HETATM   21  C18 UNK     1       4.705   3.835  13.672  1.00  0.00     0.210 C 
ENDBRANCH  15  20
BRANCH  16  22
HETATM   22  O2  UNK     1       5.782   2.159  10.950  1.00  0.00    -0.353 OA
HETATM   23  C16 UNK     1       5.217   1.490   9.824  1.00  0.00     0.210 C 
ENDBRANCH  16  22
ENDBRANCH   3  12
BRANCH  10  24
HETATM   24  O5  UNK     1      14.526   6.140   9.219  1.00  0.00    -0.356 OA
HETATM   25  C19 UNK     1      14.862   4.941   9.915  1.00  0.00     0.210 C 
ENDBRANCH  10  24
TORSDOF 5
ENDMDL
