MODEL 1
REMARK VINA RESULT:      -9.1      0.000      0.000
REMARK  4 active torsions:
REMARK  status: ('A' for Active; 'I' for Inactive)
REMARK    1  A    between atoms: C1_6  and  N1_5 
REMARK       I    between atoms: C10_15  and  N1_5 
REMARK    2  A    between atoms: C1_6  and  C2_7 
REMARK    3  A    between atoms: C4_9  and  C9_14 
REMARK    4  A    between atoms: C10_15  and  C11_16 
ROOT
HETATM    1  O2  UNK     1      19.556   5.119  29.835  1.00  0.00    -0.267 OA
HETATM    2  N1  UNK     1      18.426   3.205  30.541  1.00  0.00    -0.348 N 
HETATM    3  C10 UNK     1      18.823   4.528  30.625  1.00  0.00     0.258 C 
HETATM    4  H2  UNK     1      17.766   2.839  31.218  1.00  0.00     0.163 HD
ENDROOT
BRANCH   3   5
HETATM    5  C11 UNK     1      18.268   5.215  31.798  1.00  0.00     0.108 A 
HETATM    6  C13 UNK     1      17.815   6.457  31.595  1.00  0.00     0.037 A 
HETATM    7  C12 UNK     1      17.247   7.220  32.697  1.00  0.00     0.001 A 
HETATM    8  C14 UNK     1      17.184   6.635  33.957  1.00  0.00     0.089 A 
HETATM    9  C17 UNK     1      16.763   8.520  32.532  1.00  0.00     0.038 A 
HETATM   10  O1  UNK     1      17.662   5.327  34.164  1.00  0.00    -0.274 OA
HETATM   11  C18 UNK     1      16.651   7.311  35.054  1.00  0.00     0.040 A 
HETATM   12  C15 UNK     1      18.210   4.573  33.130  1.00  0.00     0.304 A 
HETATM   13  O3  UNK     1      18.624   3.434  33.319  1.00  0.00    -0.259 OA
HETATM   14  C20 UNK     1      16.171   8.608  34.880  1.00  0.00     0.026 A 
HETATM   15  C19 UNK     1      16.226   9.211  33.622  1.00  0.00     0.035 A 
HETATM   16 Cl1  UNK     1      15.629  10.812  33.413  1.00  0.00    -0.084 Cl
ENDBRANCH   3   5
BRANCH   2  17
HETATM   17  C1  UNK     1      18.842   2.325  29.471  1.00  0.00     0.114 C 
HETATM   18  C3  UNK     1      17.686   2.125  28.488  1.00  0.00     0.037 C 
BRANCH  17  19
HETATM   19  C2  UNK     1      19.357   1.005  30.008  1.00  0.00    -0.036 A 
HETATM   20  C5  UNK     1      19.068   0.649  31.313  1.00  0.00     0.010 A 
HETATM   21  C7  UNK     1      19.543  -0.565  31.807  1.00  0.00     0.007 A 
HETATM   22  C4  UNK     1      20.298  -1.403  30.987  1.00  0.00    -0.059 A 
HETATM   23  C8  UNK     1      20.580  -1.027  29.674  1.00  0.00     0.007 A 
HETATM   24  C6  UNK     1      20.106   0.189  29.180  1.00  0.00     0.010 A 
BRANCH  22  25
HETATM   25  C9  UNK     1      20.806  -2.702  31.516  1.00  0.00     0.034 C 
HETATM   26  C16 UNK     1      20.839  -2.737  33.042  1.00  0.00     0.010 C 
ENDBRANCH  22  25
ENDBRANCH  17  19
ENDBRANCH   2  17
TORSDOF 4
ENDMDL
MODEL 2
REMARK VINA RESULT:      -8.9      8.080     12.491
REMARK  4 active torsions:
REMARK  status: ('A' for Active; 'I' for Inactive)
REMARK    1  A    between atoms: C1_6  and  N1_5 
REMARK       I    between atoms: C10_15  and  N1_5 
REMARK    2  A    between atoms: C1_6  and  C2_7 
REMARK    3  A    between atoms: C4_9  and  C9_14 
REMARK    4  A    between atoms: C10_15  and  C11_16 
ROOT
HETATM    1  O2  UNK     1      20.526  -3.860  37.724  1.00  0.00    -0.267 OA
HETATM    2  N1  UNK     1      19.688  -3.856  35.548  1.00  0.00    -0.348 N 
HETATM    3  C10 UNK     1      20.081  -4.443  36.738  1.00  0.00     0.258 C 
HETATM    4  H2  UNK     1      19.276  -4.431  34.821  1.00  0.00     0.163 HD
ENDROOT
BRANCH   3   5
HETATM    5  C11 UNK     1      19.915  -5.902  36.736  1.00  0.00     0.108 A 
HETATM    6  C13 UNK     1      21.026  -6.623  36.547  1.00  0.00     0.037 A 
HETATM    7  C12 UNK     1      20.963  -8.076  36.528  1.00  0.00     0.001 A 
HETATM    8  C14 UNK     1      19.732  -8.699  36.710  1.00  0.00     0.089 A 
HETATM    9  C17 UNK     1      22.097  -8.869  36.333  1.00  0.00     0.038 A 
HETATM   10  O1  UNK     1      18.566  -7.934  36.909  1.00  0.00    -0.274 OA
HETATM   11  C18 UNK     1      19.603 -10.086  36.702  1.00  0.00     0.040 A 
HETATM   12  C15 UNK     1      18.596  -6.542  36.932  1.00  0.00     0.304 A 
HETATM   13  O3  UNK     1      17.575  -5.885  37.106  1.00  0.00    -0.259 OA
HETATM   14  C20 UNK     1      20.739 -10.869  36.507  1.00  0.00     0.026 A 
HETATM   15  C19 UNK     1      21.984 -10.262  36.323  1.00  0.00     0.035 A 
HETATM   16 Cl1  UNK     1      23.384 -11.234  36.084  1.00  0.00    -0.084 Cl
ENDBRANCH   3   5
BRANCH   2  17
HETATM   17  C1  UNK     1      19.756  -2.431  35.313  1.00  0.00     0.114 C 
HETATM   18  C3  UNK     1      18.539  -1.745  35.938  1.00  0.00     0.037 C 
BRANCH  17  19
HETATM   19  C2  UNK     1      19.880  -2.118  33.836  1.00  0.00    -0.036 A 
HETATM   20  C5  UNK     1      20.845  -2.769  33.088  1.00  0.00     0.010 A 
HETATM   21  C7  UNK     1      20.959  -2.480  31.729  1.00  0.00     0.007 A 
HETATM   22  C4  UNK     1      20.107  -1.547  31.140  1.00  0.00    -0.059 A 
HETATM   23  C8  UNK     1      19.140  -0.901  31.910  1.00  0.00     0.007 A 
HETATM   24  C6  UNK     1      19.026  -1.189  33.271  1.00  0.00     0.010 A 
BRANCH  22  25
HETATM   25  C9  UNK     1      20.229  -1.239  29.686  1.00  0.00     0.034 C 
HETATM   26  C16 UNK     1      19.976   0.236  29.380  1.00  0.00     0.010 C 
ENDBRANCH  22  25
ENDBRANCH  17  19
ENDBRANCH   2  17
TORSDOF 4
ENDMDL
MODEL 3
REMARK VINA RESULT:      -8.7      8.158     12.700
REMARK  4 active torsions:
REMARK  status: ('A' for Active; 'I' for Inactive)
REMARK    1  A    between atoms: C1_6  and  N1_5 
REMARK       I    between atoms: C10_15  and  N1_5 
REMARK    2  A    between atoms: C1_6  and  C2_7 
REMARK    3  A    between atoms: C4_9  and  C9_14 
REMARK    4  A    between atoms: C10_15  and  C11_16 
ROOT
HETATM    1  O2  UNK     1      21.369  -4.234  37.491  1.00  0.00    -0.267 OA
HETATM    2  N1  UNK     1      19.524  -4.058  36.076  1.00  0.00    -0.348 N 
HETATM    3  C10 UNK     1      20.474  -4.739  36.817  1.00  0.00     0.258 C 
HETATM    4  H2  UNK     1      18.791  -4.580  35.606  1.00  0.00     0.163 HD
ENDROOT
BRANCH   3   5
HETATM    5  C11 UNK     1      20.322  -6.197  36.736  1.00  0.00     0.108 A 
HETATM    6  C13 UNK     1      20.097  -6.833  37.892  1.00  0.00     0.037 A 
HETATM    7  C12 UNK     1      19.932  -8.278  37.914  1.00  0.00     0.001 A 
HETATM    8  C14 UNK     1      20.012  -8.983  36.718  1.00  0.00     0.089 A 
HETATM    9  C17 UNK     1      19.697  -8.983  39.097  1.00  0.00     0.038 A 
HETATM   10  O1  UNK     1      20.249  -8.308  35.505  1.00  0.00    -0.274 OA
HETATM   11  C18 UNK     1      19.864 -10.368  36.670  1.00  0.00     0.040 A 
HETATM   12  C15 UNK     1      20.410  -6.926  35.452  1.00  0.00     0.304 A 
HETATM   13  O3  UNK     1      20.615  -6.347  34.391  1.00  0.00    -0.259 OA
HETATM   14  C20 UNK     1      19.630 -11.063  37.855  1.00  0.00     0.026 A 
HETATM   15  C19 UNK     1      19.546 -10.372  39.066  1.00  0.00     0.035 A 
HETATM   16 Cl1  UNK     1      19.255 -11.237  40.526  1.00  0.00    -0.084 Cl
ENDBRANCH   3   5
BRANCH   2  17
HETATM   17  C1  UNK     1      19.469  -2.616  36.002  1.00  0.00     0.114 C 
HETATM   18  C3  UNK     1      18.188  -2.112  36.671  1.00  0.00     0.037 C 
BRANCH  17  19
HETATM   19  C2  UNK     1      19.584  -2.129  34.572  1.00  0.00    -0.036 A 
HETATM   20  C5  UNK     1      18.718  -1.147  34.122  1.00  0.00     0.010 A 
HETATM   21  C7  UNK     1      18.824  -0.699  32.807  1.00  0.00     0.007 A 
HETATM   22  C4  UNK     1      19.793  -1.240  31.961  1.00  0.00    -0.059 A 
HETATM   23  C8  UNK     1      20.656  -2.229  32.432  1.00  0.00     0.007 A 
HETATM   24  C6  UNK     1      20.551  -2.677  33.749  1.00  0.00     0.010 A 
BRANCH  22  25
HETATM   25  C9  UNK     1      19.906  -0.760  30.554  1.00  0.00     0.034 C 
HETATM   26  C16 UNK     1      20.402  -1.850  29.606  1.00  0.00     0.010 C 
ENDBRANCH  22  25
ENDBRANCH  17  19
ENDBRANCH   2  17
TORSDOF 4
ENDMDL
MODEL 4
REMARK VINA RESULT:      -8.7      5.688      9.007
REMARK  4 active torsions:
REMARK  status: ('A' for Active; 'I' for Inactive)
REMARK    1  A    between atoms: C1_6  and  N1_5 
REMARK       I    between atoms: C10_15  and  N1_5 
REMARK    2  A    between atoms: C1_6  and  C2_7 
REMARK    3  A    between atoms: C4_9  and  C9_14 
REMARK    4  A    between atoms: C10_15  and  C11_16 
ROOT
HETATM    1  O2  UNK     1      19.646  -1.243  35.483  1.00  0.00    -0.267 OA
HETATM    2  N1  UNK     1      19.836  -3.513  34.988  1.00  0.00    -0.348 N 
HETATM    3  C10 UNK     1      19.795  -2.164  34.684  1.00  0.00     0.258 C 
HETATM    4  H2  UNK     1      20.027  -4.184  34.252  1.00  0.00     0.163 HD
ENDROOT
BRANCH   3   5
HETATM    5  C11 UNK     1      19.954  -1.899  33.248  1.00  0.00     0.108 A 
HETATM    6  C13 UNK     1      19.345  -0.805  32.779  1.00  0.00     0.037 A 
HETATM    7  C12 UNK     1      19.444  -0.458  31.369  1.00  0.00     0.001 A 
HETATM    8  C14 UNK     1      20.181  -1.281  30.524  1.00  0.00     0.089 A 
HETATM    9  C17 UNK     1      18.824   0.675  30.835  1.00  0.00     0.038 A 
HETATM   10  O1  UNK     1      20.820  -2.431  31.025  1.00  0.00    -0.274 OA
HETATM   11  C18 UNK     1      20.316  -1.005  29.165  1.00  0.00     0.040 A 
HETATM   12  C15 UNK     1      20.743  -2.788  32.368  1.00  0.00     0.304 A 
HETATM   13  O3  UNK     1      21.304  -3.792  32.796  1.00  0.00    -0.259 OA
HETATM   14  C20 UNK     1      19.693   0.126  28.641  1.00  0.00     0.026 A 
HETATM   15  C19 UNK     1      18.949   0.965  29.474  1.00  0.00     0.035 A 
HETATM   16 Cl1  UNK     1      18.184   2.362  28.820  1.00  0.00    -0.084 Cl
ENDBRANCH   3   5
BRANCH   2  17
HETATM   17  C1  UNK     1      19.704  -4.021  36.336  1.00  0.00     0.114 C 
HETATM   18  C3  UNK     1      20.711  -3.323  37.252  1.00  0.00     0.037 C 
BRANCH  17  19
HETATM   19  C2  UNK     1      19.856  -5.528  36.378  1.00  0.00    -0.036 A 
HETATM   20  C5  UNK     1      19.992  -6.225  35.191  1.00  0.00     0.010 A 
HETATM   21  C7  UNK     1      20.132  -7.611  35.230  1.00  0.00     0.007 A 
HETATM   22  C4  UNK     1      20.135  -8.278  36.456  1.00  0.00    -0.059 A 
HETATM   23  C8  UNK     1      19.997  -7.558  37.642  1.00  0.00     0.007 A 
HETATM   24  C6  UNK     1      19.856  -6.170  37.603  1.00  0.00     0.010 A 
BRANCH  22  25
HETATM   25  C9  UNK     1      20.285  -9.761  36.497  1.00  0.00     0.034 C 
HETATM   26  C16 UNK     1      19.516 -10.392  37.656  1.00  0.00     0.010 C 
ENDBRANCH  22  25
ENDBRANCH  17  19
ENDBRANCH   2  17
TORSDOF 4
ENDMDL
MODEL 5
REMARK VINA RESULT:      -8.6      3.339      7.816
REMARK  4 active torsions:
REMARK  status: ('A' for Active; 'I' for Inactive)
REMARK    1  A    between atoms: C1_6  and  N1_5 
REMARK       I    between atoms: C10_15  and  N1_5 
REMARK    2  A    between atoms: C1_6  and  C2_7 
REMARK    3  A    between atoms: C4_9  and  C9_14 
REMARK    4  A    between atoms: C10_15  and  C11_16 
ROOT
HETATM    1  O2  UNK     1      18.293   2.885  29.559  1.00  0.00    -0.267 OA
HETATM    2  N1  UNK     1      18.782   4.268  31.371  1.00  0.00    -0.348 N 
HETATM    3  C10 UNK     1      18.553   3.054  30.748  1.00  0.00     0.258 C 
HETATM    4  H2  UNK     1      19.051   4.283  32.349  1.00  0.00     0.163 HD
ENDROOT
BRANCH   3   5
HETATM    5  C11 UNK     1      18.651   1.914  31.668  1.00  0.00     0.108 A 
HETATM    6  C13 UNK     1      18.190   2.115  32.908  1.00  0.00     0.037 A 
HETATM    7  C12 UNK     1      18.244   1.045  33.893  1.00  0.00     0.001 A 
HETATM    8  C14 UNK     1      18.781  -0.184  33.522  1.00  0.00     0.089 A 
HETATM    9  C17 UNK     1      17.775   1.209  35.198  1.00  0.00     0.038 A 
HETATM   10  O1  UNK     1      19.264  -0.388  32.215  1.00  0.00    -0.274 OA
HETATM   11  C18 UNK     1      18.862  -1.249  34.417  1.00  0.00     0.040 A 
HETATM   12  C15 UNK     1      19.225   0.616  31.252  1.00  0.00     0.304 A 
HETATM   13  O3  UNK     1      19.648   0.429  30.116  1.00  0.00    -0.259 OA
HETATM   14  C20 UNK     1      18.392  -1.076  35.717  1.00  0.00     0.026 A 
HETATM   15  C19 UNK     1      17.849   0.150  36.107  1.00  0.00     0.035 A 
HETATM   16 Cl1  UNK     1      17.269   0.357  37.715  1.00  0.00    -0.084 Cl
ENDBRANCH   3   5
BRANCH   2  17
HETATM   17  C1  UNK     1      18.742   5.533  30.671  1.00  0.00     0.114 C 
HETATM   18  C3  UNK     1      20.116   5.832  30.065  1.00  0.00     0.037 C 
BRANCH  17  19
HETATM   19  C2  UNK     1      18.271   6.653  31.575  1.00  0.00    -0.036 A 
HETATM   20  C5  UNK     1      19.042   7.005  32.669  1.00  0.00     0.010 A 
HETATM   21  C7  UNK     1      18.609   8.035  33.502  1.00  0.00     0.007 A 
HETATM   22  C4  UNK     1      17.412   8.698  33.226  1.00  0.00    -0.059 A 
HETATM   23  C8  UNK     1      16.649   8.329  32.119  1.00  0.00     0.007 A 
HETATM   24  C6  UNK     1      17.083   7.297  31.286  1.00  0.00     0.010 A 
BRANCH  22  25
HETATM   25  C9  UNK     1      16.949   9.801  34.117  1.00  0.00     0.034 C 
HETATM   26  C16 UNK     1      17.888  11.005  34.089  1.00  0.00     0.010 C 
ENDBRANCH  22  25
ENDBRANCH  17  19
ENDBRANCH   2  17
TORSDOF 4
ENDMDL
MODEL 6
REMARK VINA RESULT:      -8.5      2.890      5.236
REMARK  4 active torsions:
REMARK  status: ('A' for Active; 'I' for Inactive)
REMARK    1  A    between atoms: C1_6  and  N1_5 
REMARK       I    between atoms: C10_15  and  N1_5 
REMARK    2  A    between atoms: C1_6  and  C2_7 
REMARK    3  A    between atoms: C4_9  and  C9_14 
REMARK    4  A    between atoms: C10_15  and  C11_16 
ROOT
HETATM    1  O2  UNK     1      16.677   6.604  34.817  1.00  0.00    -0.267 OA
HETATM    2  N1  UNK     1      18.024   7.366  33.074  1.00  0.00    -0.348 N 
HETATM    3  C10 UNK     1      16.926   7.400  33.915  1.00  0.00     0.258 C 
HETATM    4  H2  UNK     1      18.161   8.115  32.402  1.00  0.00     0.163 HD
ENDROOT
BRANCH   3   5
HETATM    5  C11 UNK     1      16.029   8.528  33.635  1.00  0.00     0.108 A 
HETATM    6  C13 UNK     1      15.540   9.172  34.701  1.00  0.00     0.037 A 
HETATM    7  C12 UNK     1      14.642  10.304  34.525  1.00  0.00     0.001 A 
HETATM    8  C14 UNK     1      14.305  10.701  33.236  1.00  0.00     0.089 A 
HETATM    9  C17 UNK     1      14.106  11.005  35.608  1.00  0.00     0.038 A 
HETATM   10  O1  UNK     1      14.824  10.019  32.118  1.00  0.00    -0.274 OA
HETATM   11  C18 UNK     1      13.450  11.776  32.999  1.00  0.00     0.040 A 
HETATM   12  C15 UNK     1      15.685   8.934  32.255  1.00  0.00     0.304 A 
HETATM   13  O3  UNK     1      16.132   8.346  31.276  1.00  0.00    -0.259 OA
HETATM   14  C20 UNK     1      12.920  12.470  34.085  1.00  0.00     0.026 A 
HETATM   15  C19 UNK     1      13.248  12.085  35.387  1.00  0.00     0.035 A 
HETATM   16 Cl1  UNK     1      12.591  12.947  36.725  1.00  0.00    -0.084 Cl
ENDBRANCH   3   5
BRANCH   2  17
HETATM   17  C1  UNK     1      19.049   6.350  33.158  1.00  0.00     0.114 C 
HETATM   18  C3  UNK     1      20.432   7.002  33.078  1.00  0.00     0.037 C 
BRANCH  17  19
HETATM   19  C2  UNK     1      18.867   5.289  32.091  1.00  0.00    -0.036 A 
HETATM   20  C5  UNK     1      18.244   4.099  32.424  1.00  0.00     0.010 A 
HETATM   21  C7  UNK     1      18.077   3.123  31.443  1.00  0.00     0.007 A 
HETATM   22  C4  UNK     1      18.535   3.352  30.146  1.00  0.00    -0.059 A 
HETATM   23  C8  UNK     1      19.160   4.557  29.830  1.00  0.00     0.007 A 
HETATM   24  C6  UNK     1      19.328   5.534  30.811  1.00  0.00     0.010 A 
BRANCH  22  25
HETATM   25  C9  UNK     1      18.355   2.307  29.097  1.00  0.00     0.034 C 
HETATM   26  C16 UNK     1      19.190   1.059  29.370  1.00  0.00     0.010 C 
ENDBRANCH  22  25
ENDBRANCH  17  19
ENDBRANCH   2  17
TORSDOF 4
ENDMDL
MODEL 7
REMARK VINA RESULT:      -8.4      3.700      8.303
REMARK  4 active torsions:
REMARK  status: ('A' for Active; 'I' for Inactive)
REMARK    1  A    between atoms: C1_6  and  N1_5 
REMARK       I    between atoms: C10_15  and  N1_5 
REMARK    2  A    between atoms: C1_6  and  C2_7 
REMARK    3  A    between atoms: C4_9  and  C9_14 
REMARK    4  A    between atoms: C10_15  and  C11_16 
ROOT
HETATM    1  O2  UNK     1      17.577   1.866  29.415  1.00  0.00    -0.267 OA
HETATM    2  N1  UNK     1      18.992   3.044  30.846  1.00  0.00    -0.348 N 
HETATM    3  C10 UNK     1      18.485   1.906  30.243  1.00  0.00     0.258 C 
HETATM    4  H2  UNK     1      19.788   2.964  31.470  1.00  0.00     0.163 HD
ENDROOT
BRANCH   3   5
HETATM    5  C11 UNK     1      19.153   0.678  30.690  1.00  0.00     0.108 A 
HETATM    6  C13 UNK     1      18.935   0.316  31.959  1.00  0.00     0.037 A 
HETATM    7  C12 UNK     1      19.555  -0.887  32.495  1.00  0.00     0.001 A 
HETATM    8  C14 UNK     1      20.372  -1.649  31.667  1.00  0.00     0.089 A 
HETATM    9  C17 UNK     1      19.356  -1.303  33.814  1.00  0.00     0.038 A 
HETATM   10  O1  UNK     1      20.597  -1.262  30.332  1.00  0.00    -0.274 OA
HETATM   11  C18 UNK     1      20.995  -2.811  32.118  1.00  0.00     0.040 A 
HETATM   12  C15 UNK     1      20.019  -0.117  29.791  1.00  0.00     0.304 A 
HETATM   13  O3  UNK     1      20.220   0.212  28.627  1.00  0.00    -0.259 OA
HETATM   14  C20 UNK     1      20.791  -3.218  33.435  1.00  0.00     0.026 A 
HETATM   15  C19 UNK     1      19.973  -2.467  34.281  1.00  0.00     0.035 A 
HETATM   16 Cl1  UNK     1      19.724  -2.976  35.907  1.00  0.00    -0.084 Cl
ENDBRANCH   3   5
BRANCH   2  17
HETATM   17  C1  UNK     1      18.496   4.372  30.564  1.00  0.00     0.114 C 
HETATM   18  C3  UNK     1      19.142   4.905  29.283  1.00  0.00     0.037 C 
BRANCH  17  19
HETATM   19  C2  UNK     1      18.718   5.307  31.735  1.00  0.00    -0.036 A 
HETATM   20  C5  UNK     1      17.717   5.455  32.679  1.00  0.00     0.010 A 
HETATM   21  C7  UNK     1      17.922   6.316  33.757  1.00  0.00     0.007 A 
HETATM   22  C4  UNK     1      19.124   7.014  33.873  1.00  0.00    -0.059 A 
HETATM   23  C8  UNK     1      20.121   6.852  32.912  1.00  0.00     0.007 A 
HETATM   24  C6  UNK     1      19.916   5.991  31.833  1.00  0.00     0.010 A 
BRANCH  22  25
HETATM   25  C9  UNK     1      19.343   7.934  35.026  1.00  0.00     0.034 C 
HETATM   26  C16 UNK     1      20.185   9.151  34.648  1.00  0.00     0.010 C 
ENDBRANCH  22  25
ENDBRANCH  17  19
ENDBRANCH   2  17
TORSDOF 4
ENDMDL
MODEL 8
REMARK VINA RESULT:      -8.3     22.711     24.292
REMARK  4 active torsions:
REMARK  status: ('A' for Active; 'I' for Inactive)
REMARK    1  A    between atoms: C1_6  and  N1_5 
REMARK       I    between atoms: C10_15  and  N1_5 
REMARK    2  A    between atoms: C1_6  and  C2_7 
REMARK    3  A    between atoms: C4_9  and  C9_14 
REMARK    4  A    between atoms: C10_15  and  C11_16 
ROOT
HETATM    1  O2  UNK     1       7.226   7.053   8.728  1.00  0.00    -0.267 OA
HETATM    2  N1  UNK     1       9.092   5.657   8.799  1.00  0.00    -0.348 N 
HETATM    3  C10 UNK     1       7.794   6.028   9.100  1.00  0.00     0.258 C 
HETATM    4  H2  UNK     1       9.437   4.755   9.111  1.00  0.00     0.163 HD
ENDROOT
BRANCH   3   5
HETATM    5  C11 UNK     1       7.102   5.047   9.946  1.00  0.00     0.108 A 
HETATM    6  C13 UNK     1       6.786   5.452  11.181  1.00  0.00     0.037 A 
HETATM    7  C12 UNK     1       6.099   4.551  12.095  1.00  0.00     0.001 A 
HETATM    8  C14 UNK     1       5.779   3.269  11.661  1.00  0.00     0.089 A 
HETATM    9  C17 UNK     1       5.750   4.930  13.393  1.00  0.00     0.038 A 
HETATM   10  O1  UNK     1       6.115   2.849  10.359  1.00  0.00    -0.274 OA
HETATM   11  C18 UNK     1       5.122   2.357  12.486  1.00  0.00     0.040 A 
HETATM   12  C15 UNK     1       6.772   3.689   9.463  1.00  0.00     0.304 A 
HETATM   13  O3  UNK     1       7.060   3.315   8.331  1.00  0.00    -0.259 OA
HETATM   14  C20 UNK     1       4.778   2.744  13.779  1.00  0.00     0.026 A 
HETATM   15  C19 UNK     1       5.091   4.027  14.232  1.00  0.00     0.035 A 
HETATM   16 Cl1  UNK     1       4.661   4.500  15.831  1.00  0.00    -0.084 Cl
ENDBRANCH   3   5
BRANCH   2  17
HETATM   17  C1  UNK     1       9.971   6.460   7.979  1.00  0.00     0.114 C 
HETATM   18  C3  UNK     1       9.734   6.142   6.501  1.00  0.00     0.037 C 
BRANCH  17  19
HETATM   19  C2  UNK     1      11.423   6.268   8.368  1.00  0.00    -0.036 A 
HETATM   20  C5  UNK     1      12.053   7.243   9.122  1.00  0.00     0.010 A 
HETATM   21  C7  UNK     1      13.389   7.066   9.479  1.00  0.00     0.007 A 
HETATM   22  C4  UNK     1      14.072   5.918   9.079  1.00  0.00    -0.059 A 
HETATM   23  C8  UNK     1      13.420   4.947   8.320  1.00  0.00     0.007 A 
HETATM   24  C6  UNK     1      12.083   5.124   7.961  1.00  0.00     0.010 A 
BRANCH  22  25
HETATM   25  C9  UNK     1      15.501   5.729   9.463  1.00  0.00     0.034 C 
HETATM   26  C16 UNK     1      16.048   6.905  10.268  1.00  0.00     0.010 C 
ENDBRANCH  22  25
ENDBRANCH  17  19
ENDBRANCH   2  17
TORSDOF 4
ENDMDL
MODEL 9
REMARK VINA RESULT:      -8.3     23.077     25.048
REMARK  4 active torsions:
REMARK  status: ('A' for Active; 'I' for Inactive)
REMARK    1  A    between atoms: C1_6  and  N1_5 
REMARK       I    between atoms: C10_15  and  N1_5 
REMARK    2  A    between atoms: C1_6  and  C2_7 
REMARK    3  A    between atoms: C4_9  and  C9_14 
REMARK    4  A    between atoms: C10_15  and  C11_16 
ROOT
HETATM    1  O2  UNK     1      13.854   9.050  10.396  1.00  0.00    -0.267 OA
HETATM    2  N1  UNK     1      14.972   7.352   9.254  1.00  0.00    -0.348 N 
HETATM    3  C10 UNK     1      14.773   8.652   9.684  1.00  0.00     0.258 C 
HETATM    4  H2  UNK     1      15.803   7.126   8.718  1.00  0.00     0.163 HD
ENDROOT
BRANCH   3   5
HETATM    5  C11 UNK     1      15.806   9.576   9.199  1.00  0.00     0.108 A 
HETATM    6  C13 UNK     1      15.372  10.635   8.506  1.00  0.00     0.037 A 
HETATM    7  C12 UNK     1      16.319  11.608   7.983  1.00  0.00     0.001 A 
HETATM    8  C14 UNK     1      17.677  11.418   8.217  1.00  0.00     0.089 A 
HETATM    9  C17 UNK     1      15.912  12.728   7.253  1.00  0.00     0.038 A 
HETATM   10  O1  UNK     1      18.127  10.301   8.948  1.00  0.00    -0.274 OA
HETATM   11  C18 UNK     1      18.636  12.312   7.744  1.00  0.00     0.040 A 
HETATM   12  C15 UNK     1      17.245   9.354   9.461  1.00  0.00     0.304 A 
HETATM   13  O3  UNK     1      17.646   8.385  10.096  1.00  0.00    -0.259 OA
HETATM   14  C20 UNK     1      18.221  13.425   7.017  1.00  0.00     0.026 A 
HETATM   15  C19 UNK     1      16.862  13.633   6.772  1.00  0.00     0.035 A 
HETATM   16 Cl1  UNK     1      16.354  15.012   5.875  1.00  0.00    -0.084 Cl
ENDBRANCH   3   5
BRANCH   2  17
HETATM   17  C1  UNK     1      14.088   6.263   9.605  1.00  0.00     0.114 C 
HETATM   18  C3  UNK     1      14.862   4.943   9.589  1.00  0.00     0.037 C 
BRANCH  17  19
HETATM   19  C2  UNK     1      12.878   6.215   8.693  1.00  0.00    -0.036 A 
HETATM   20  C5  UNK     1      13.039   6.483   7.345  1.00  0.00     0.010 A 
HETATM   21  C7  UNK     1      11.926   6.439   6.507  1.00  0.00     0.007 A 
HETATM   22  C4  UNK     1      10.671   6.128   7.030  1.00  0.00    -0.059 A 
HETATM   23  C8  UNK     1      10.528   5.862   8.392  1.00  0.00     0.007 A 
HETATM   24  C6  UNK     1      11.642   5.906   9.231  1.00  0.00     0.010 A 
BRANCH  22  25
HETATM   25  C9  UNK     1       9.480   6.081   6.133  1.00  0.00     0.034 C 
HETATM   26  C16 UNK     1       8.223   6.627   6.805  1.00  0.00     0.010 C 
ENDBRANCH  22  25
ENDBRANCH  17  19
ENDBRANCH   2  17
TORSDOF 4
ENDMDL
MODEL 10
REMARK VINA RESULT:      -8.3     14.324     16.636
REMARK  4 active torsions:
REMARK  status: ('A' for Active; 'I' for Inactive)
REMARK    1  A    between atoms: C1_6  and  N1_5 
REMARK       I    between atoms: C10_15  and  N1_5 
REMARK    2  A    between atoms: C1_6  and  C2_7 
REMARK    3  A    between atoms: C4_9  and  C9_14 
REMARK    4  A    between atoms: C10_15  and  C11_16 
ROOT
HETATM    1  O2  UNK     1      27.193 -10.042  36.011  1.00  0.00    -0.267 OA
HETATM    2  N1  UNK     1      26.692  -9.870  38.281  1.00  0.00    -0.348 N 
HETATM    3  C10 UNK     1      26.387  -9.999  36.938  1.00  0.00     0.258 C 
HETATM    4  H2  UNK     1      25.945  -9.910  38.967  1.00  0.00     0.163 HD
ENDROOT
BRANCH   3   5
HETATM    5  C11 UNK     1      24.943 -10.090  36.687  1.00  0.00     0.108 A 
HETATM    6  C13 UNK     1      24.207  -9.049  37.093  1.00  0.00     0.037 A 
HETATM    7  C12 UNK     1      22.766  -9.046  36.889  1.00  0.00     0.001 A 
HETATM    8  C14 UNK     1      22.173 -10.139  36.266  1.00  0.00     0.089 A 
HETATM    9  C17 UNK     1      21.958  -7.982  37.297  1.00  0.00     0.038 A 
HETATM   10  O1  UNK     1      22.954 -11.231  35.841  1.00  0.00    -0.274 OA
HETATM   11  C18 UNK     1      20.799 -10.199  36.041  1.00  0.00     0.040 A 
HETATM   12  C15 UNK     1      24.334 -11.263  36.022  1.00  0.00     0.304 A 
HETATM   13  O3  UNK     1      25.006 -12.218  35.648  1.00  0.00    -0.259 OA
HETATM   14  C20 UNK     1      20.001  -9.133  36.451  1.00  0.00     0.026 A 
HETATM   15  C19 UNK     1      20.579  -8.027  37.077  1.00  0.00     0.035 A 
HETATM   16 Cl1  UNK     1      19.587  -6.712  37.581  1.00  0.00    -0.084 Cl
ENDBRANCH   3   5
BRANCH   2  17
HETATM   17  C1  UNK     1      28.046  -9.766  38.775  1.00  0.00     0.114 C 
HETATM   18  C3  UNK     1      28.135 -10.380  40.174  1.00  0.00     0.037 C 
BRANCH  17  19
HETATM   19  C2  UNK     1      28.533  -8.331  38.760  1.00  0.00    -0.036 A 
HETATM   20  C5  UNK     1      29.765  -8.043  38.199  1.00  0.00     0.010 A 
HETATM   21  C7  UNK     1      30.212  -6.723  38.186  1.00  0.00     0.007 A 
HETATM   22  C4  UNK     1      29.421  -5.712  38.733  1.00  0.00    -0.059 A 
HETATM   23  C8  UNK     1      28.183  -6.022  39.294  1.00  0.00     0.007 A 
HETATM   24  C6  UNK     1      27.735  -7.343  39.308  1.00  0.00     0.010 A 
BRANCH  22  25
HETATM   25  C9  UNK     1      29.901  -4.300  38.718  1.00  0.00     0.034 C 
HETATM   26  C16 UNK     1      30.679  -3.963  37.449  1.00  0.00     0.010 C 
ENDBRANCH  22  25
ENDBRANCH  17  19
ENDBRANCH   2  17
TORSDOF 4
ENDMDL
