MODEL 1
REMARK VINA RESULT:      -8.4      0.000      0.000
REMARK  7 active torsions:
REMARK  status: ('A' for Active; 'I' for Inactive)
REMARK    1  A    between atoms: C4_11  and  N1_5 
REMARK    2  A    between atoms: C7_14  and  N2_6 
REMARK    3  A    between atoms: C8_15  and  N2_6 
REMARK    4  A    between atoms: C10_17  and  N3_7 
REMARK    5  A    between atoms: C8_15  and  N3_7 
REMARK    6  A    between atoms: C4_11  and  C6_13 
REMARK    7  A    between atoms: C6_13  and  C7_14 
ROOT
HETATM    1  N3  UNK     1      19.403   3.817  29.982  1.00  0.00    -0.333 N 
HETATM    2  H14 UNK     1      19.749   4.206  29.110  1.00  0.00     0.168 HD
ENDROOT
BRANCH   1   3
HETATM    3  C10 UNK     1      19.238   4.800  30.958  1.00  0.00     0.036 A 
HETATM    4  C12 UNK     1      17.978   5.047  31.494  1.00  0.00     0.067 A 
HETATM    5  C11 UNK     1      17.834   6.035  32.470  1.00  0.00     0.092 A 
HETATM    6  O2  UNK     1      16.535   6.239  32.974  1.00  0.00    -0.275 OA
HETATM    7  C9  UNK     1      18.914   6.789  32.933  1.00  0.00     0.004 A 
HETATM    8  C18 UNK     1      16.276   7.194  33.946  1.00  0.00     0.288 A 
HETATM    9  C16 UNK     1      17.425   7.980  34.424  1.00  0.00     0.090 A 
HETATM   10  O3  UNK     1      15.149   7.380  34.392  1.00  0.00    -0.260 OA
HETATM   11  C13 UNK     1      18.672   7.808  33.962  1.00  0.00    -0.043 A 
HETATM   12  C17 UNK     1      19.813   8.634  34.480  1.00  0.00     0.049 C 
HETATM   13  C14 UNK     1      20.175   6.524  32.381  1.00  0.00     0.017 A 
HETATM   14  C15 UNK     1      20.334   5.537  31.401  1.00  0.00     0.030 A 
ENDBRANCH   1   3
BRANCH   1  15
HETATM   15  C8  UNK     1      18.907   2.507  29.858  1.00  0.00     0.172 C 
HETATM   16  S1  UNK     1      17.830   1.921  28.711  1.00  0.00    -0.041 SA
BRANCH  15  17
HETATM   17  N2  UNK     1      19.406   1.593  30.777  1.00  0.00    -0.367 N 
HETATM   18  H13 UNK     1      19.434   1.897  31.746  1.00  0.00     0.161 HD
BRANCH  17  19
HETATM   19  C7  UNK     1      19.873   0.246  30.509  1.00  0.00     0.123 C 
BRANCH  19  20
HETATM   20  C6  UNK     1      19.956  -0.608  31.772  1.00  0.00     0.039 C 
BRANCH  20  21
HETATM   21  C4  UNK     1      18.602  -0.873  32.428  1.00  0.00     0.127 C 
BRANCH  21  22
HETATM   22  N1  UNK     1      18.486  -0.255  33.730  1.00  0.00    -0.352 N 
HETATM   23  C1  UNK     1      18.711  -1.004  34.945  1.00  0.00     0.126 C 
HETATM   24  C2  UNK     1      18.839   0.079  35.998  1.00  0.00     0.029 C 
HETATM   25  C3  UNK     1      17.955   1.205  35.474  1.00  0.00     0.104 C 
HETATM   26  C5  UNK     1      18.031   1.038  33.974  1.00  0.00     0.219 C 
HETATM   27  O1  UNK     1      17.699   1.889  33.162  1.00  0.00    -0.273 OA
ENDBRANCH  21  22
ENDBRANCH  20  21
ENDBRANCH  19  20
ENDBRANCH  17  19
ENDBRANCH  15  17
ENDBRANCH   1  15
TORSDOF 7
ENDMDL
MODEL 2
REMARK VINA RESULT:      -8.0      2.344      3.679
REMARK  7 active torsions:
REMARK  status: ('A' for Active; 'I' for Inactive)
REMARK    1  A    between atoms: C4_11  and  N1_5 
REMARK    2  A    between atoms: C7_14  and  N2_6 
REMARK    3  A    between atoms: C8_15  and  N2_6 
REMARK    4  A    between atoms: C10_17  and  N3_7 
REMARK    5  A    between atoms: C8_15  and  N3_7 
REMARK    6  A    between atoms: C4_11  and  C6_13 
REMARK    7  A    between atoms: C6_13  and  C7_14 
ROOT
HETATM    1  N3  UNK     1      18.559  -0.332  31.512  1.00  0.00    -0.333 N 
HETATM    2  H14 UNK     1      17.608  -0.689  31.528  1.00  0.00     0.168 HD
ENDROOT
BRANCH   1   3
HETATM    3  C10 UNK     1      18.590   1.055  31.366  1.00  0.00     0.036 A 
HETATM    4  C12 UNK     1      18.241   1.877  32.433  1.00  0.00     0.067 A 
HETATM    5  C11 UNK     1      18.279   3.262  32.266  1.00  0.00     0.092 A 
HETATM    6  O2  UNK     1      17.915   4.042  33.381  1.00  0.00    -0.275 OA
HETATM    7  C9  UNK     1      18.658   3.858  31.062  1.00  0.00     0.004 A 
HETATM    8  C18 UNK     1      17.917   5.427  33.330  1.00  0.00     0.288 A 
HETATM    9  C16 UNK     1      18.319   6.041  32.053  1.00  0.00     0.090 A 
HETATM   10  O3  UNK     1      17.601   6.115  34.294  1.00  0.00    -0.260 OA
HETATM   11  C13 UNK     1      18.670   5.324  30.976  1.00  0.00    -0.043 A 
HETATM   12  C17 UNK     1      19.073   5.995  29.695  1.00  0.00     0.049 C 
HETATM   13  C14 UNK     1      19.007   3.012  30.000  1.00  0.00     0.017 A 
HETATM   14  C15 UNK     1      18.972   1.622  30.152  1.00  0.00     0.030 A 
ENDBRANCH   1   3
BRANCH   1  15
HETATM   15  C8  UNK     1      19.518  -1.265  31.945  1.00  0.00     0.172 C 
HETATM   16  S1  UNK     1      20.431  -2.313  31.003  1.00  0.00    -0.041 SA
BRANCH  15  17
HETATM   17  N2  UNK     1      19.751  -1.285  33.314  1.00  0.00    -0.367 N 
HETATM   18  H13 UNK     1      19.653  -0.400  33.802  1.00  0.00     0.161 HD
BRANCH  17  19
HETATM   19  C7  UNK     1      20.101  -2.435  34.126  1.00  0.00     0.123 C 
BRANCH  19  20
HETATM   20  C6  UNK     1      20.005  -2.147  35.623  1.00  0.00     0.039 C 
BRANCH  20  21
HETATM   21  C4  UNK     1      18.614  -2.384  36.208  1.00  0.00     0.127 C 
BRANCH  21  22
HETATM   22  N1  UNK     1      17.874  -1.156  36.397  1.00  0.00    -0.352 N 
HETATM   23  C1  UNK     1      17.781  -0.521  37.691  1.00  0.00     0.126 C 
HETATM   24  C2  UNK     1      17.250   0.860  37.358  1.00  0.00     0.029 C 
HETATM   25  C3  UNK     1      16.405   0.637  36.110  1.00  0.00     0.104 C 
HETATM   26  C5  UNK     1      17.082  -0.533  35.435  1.00  0.00     0.219 C 
HETATM   27  O1  UNK     1      16.904  -0.864  34.272  1.00  0.00    -0.273 OA
ENDBRANCH  21  22
ENDBRANCH  20  21
ENDBRANCH  19  20
ENDBRANCH  17  19
ENDBRANCH  15  17
ENDBRANCH   1  15
TORSDOF 7
ENDMDL
MODEL 3
REMARK VINA RESULT:      -7.9      2.781      7.556
REMARK  7 active torsions:
REMARK  status: ('A' for Active; 'I' for Inactive)
REMARK    1  A    between atoms: C4_11  and  N1_5 
REMARK    2  A    between atoms: C7_14  and  N2_6 
REMARK    3  A    between atoms: C8_15  and  N2_6 
REMARK    4  A    between atoms: C10_17  and  N3_7 
REMARK    5  A    between atoms: C8_15  and  N3_7 
REMARK    6  A    between atoms: C4_11  and  C6_13 
REMARK    7  A    between atoms: C6_13  and  C7_14 
ROOT
HETATM    1  N3  UNK     1      18.690  -0.351  31.450  1.00  0.00    -0.333 N 
HETATM    2  H14 UNK     1      17.855  -0.706  30.993  1.00  0.00     0.168 HD
ENDROOT
BRANCH   1   3
HETATM    3  C10 UNK     1      18.715  -0.674  32.806  1.00  0.00     0.036 A 
HETATM    4  C12 UNK     1      19.510  -1.721  33.261  1.00  0.00     0.067 A 
HETATM    5  C11 UNK     1      19.521  -2.027  34.623  1.00  0.00     0.092 A 
HETATM    6  O2  UNK     1      20.345  -3.097  35.022  1.00  0.00    -0.275 OA
HETATM    7  C9  UNK     1      18.760  -1.316  35.553  1.00  0.00     0.004 A 
HETATM    8  C18 UNK     1      20.434  -3.488  36.349  1.00  0.00     0.288 A 
HETATM    9  C16 UNK     1      19.625  -2.729  37.318  1.00  0.00     0.090 A 
HETATM   10  O3  UNK     1      21.149  -4.418  36.708  1.00  0.00    -0.260 OA
HETATM   11  C13 UNK     1      18.833  -1.707  36.967  1.00  0.00    -0.043 A 
HETATM   12  C17 UNK     1      18.026  -0.962  37.991  1.00  0.00     0.049 C 
HETATM   13  C14 UNK     1      17.966  -0.265  35.075  1.00  0.00     0.017 A 
HETATM   14  C15 UNK     1      17.944   0.053  33.712  1.00  0.00     0.030 A 
ENDBRANCH   1   3
BRANCH   1  15
HETATM   15  C8  UNK     1      19.689   0.067  30.552  1.00  0.00     0.172 C 
HETATM   16  S1  UNK     1      20.760  -0.894  29.687  1.00  0.00    -0.041 SA
BRANCH  15  17
HETATM   17  N2  UNK     1      19.761   1.437  30.340  1.00  0.00    -0.367 N 
HETATM   18  H13 UNK     1      20.674   1.865  30.458  1.00  0.00     0.161 HD
BRANCH  17  19
HETATM   19  C7  UNK     1      18.678   2.321  29.950  1.00  0.00     0.123 C 
BRANCH  19  20
HETATM   20  C6  UNK     1      18.322   3.328  31.042  1.00  0.00     0.039 C 
BRANCH  20  21
HETATM   21  C4  UNK     1      19.121   4.628  30.966  1.00  0.00     0.127 C 
BRANCH  21  22
HETATM   22  N1  UNK     1      18.865   5.503  32.089  1.00  0.00    -0.352 N 
HETATM   23  C1  UNK     1      17.522   5.788  32.535  1.00  0.00     0.126 C 
HETATM   24  C2  UNK     1      17.738   6.420  33.896  1.00  0.00     0.029 C 
HETATM   25  C3  UNK     1      19.091   7.110  33.768  1.00  0.00     0.104 C 
HETATM   26  C5  UNK     1      19.826   6.254  32.763  1.00  0.00     0.219 C 
HETATM   27  O1  UNK     1      21.033   6.282  32.576  1.00  0.00    -0.273 OA
ENDBRANCH  21  22
ENDBRANCH  20  21
ENDBRANCH  19  20
ENDBRANCH  17  19
ENDBRANCH  15  17
ENDBRANCH   1  15
TORSDOF 7
ENDMDL
MODEL 4
REMARK VINA RESULT:      -7.8      6.798     12.102
REMARK  7 active torsions:
REMARK  status: ('A' for Active; 'I' for Inactive)
REMARK    1  A    between atoms: C4_11  and  N1_5 
REMARK    2  A    between atoms: C7_14  and  N2_6 
REMARK    3  A    between atoms: C8_15  and  N2_6 
REMARK    4  A    between atoms: C10_17  and  N3_7 
REMARK    5  A    between atoms: C8_15  and  N3_7 
REMARK    6  A    between atoms: C4_11  and  C6_13 
REMARK    7  A    between atoms: C6_13  and  C7_14 
ROOT
HETATM    1  N3  UNK     1      18.455  -4.559  36.492  1.00  0.00    -0.333 N 
HETATM    2  H14 UNK     1      17.526  -4.538  36.082  1.00  0.00     0.168 HD
ENDROOT
BRANCH   1   3
HETATM    3  C10 UNK     1      19.028  -5.827  36.413  1.00  0.00     0.036 A 
HETATM    4  C12 UNK     1      18.722  -6.793  37.366  1.00  0.00     0.067 A 
HETATM    5  C11 UNK     1      19.306  -8.057  37.269  1.00  0.00     0.092 A 
HETATM    6  O2  UNK     1      18.957  -8.992  38.263  1.00  0.00    -0.275 OA
HETATM    7  C9  UNK     1      20.193  -8.391  36.244  1.00  0.00     0.004 A 
HETATM    8  C18 UNK     1      19.477 -10.277  38.265  1.00  0.00     0.288 A 
HETATM    9  C16 UNK     1      20.411 -10.614  37.178  1.00  0.00     0.090 A 
HETATM   10  O3  UNK     1      19.180 -11.098  39.126  1.00  0.00    -0.260 OA
HETATM   11  C13 UNK     1      20.761  -9.745  36.219  1.00  0.00    -0.043 A 
HETATM   12  C17 UNK     1      21.717 -10.135  35.130  1.00  0.00     0.049 C 
HETATM   13  C14 UNK     1      20.489  -7.404  35.293  1.00  0.00     0.017 A 
HETATM   14  C15 UNK     1      19.911  -6.133  35.378  1.00  0.00     0.030 A 
ENDBRANCH   1   3
BRANCH   1  15
HETATM   15  C8  UNK     1      18.998  -3.281  36.720  1.00  0.00     0.172 C 
HETATM   16  S1  UNK     1      18.280  -1.987  37.513  1.00  0.00    -0.041 SA
BRANCH  15  17
HETATM   17  N2  UNK     1      20.296  -3.097  36.262  1.00  0.00    -0.367 N 
HETATM   18  H13 UNK     1      21.005  -3.708  36.655  1.00  0.00     0.161 HD
BRANCH  17  19
HETATM   19  C7  UNK     1      20.746  -2.139  35.270  1.00  0.00     0.123 C 
BRANCH  19  20
HETATM   20  C6  UNK     1      20.362  -2.543  33.848  1.00  0.00     0.039 C 
BRANCH  20  21
HETATM   21  C4  UNK     1      19.374  -1.589  33.180  1.00  0.00     0.127 C 
BRANCH  21  22
HETATM   22  N1  UNK     1      19.740  -1.275  31.816  1.00  0.00    -0.352 N 
HETATM   23  C1  UNK     1      20.560  -2.166  31.030  1.00  0.00     0.126 C 
HETATM   24  C2  UNK     1      20.387  -1.638  29.619  1.00  0.00     0.029 C 
HETATM   25  C3  UNK     1      20.151  -0.145  29.815  1.00  0.00     0.104 C 
HETATM   26  C5  UNK     1      19.477  -0.072  31.165  1.00  0.00     0.219 C 
HETATM   27  O1  UNK     1      18.867   0.899  31.587  1.00  0.00    -0.273 OA
ENDBRANCH  21  22
ENDBRANCH  20  21
ENDBRANCH  19  20
ENDBRANCH  17  19
ENDBRANCH  15  17
ENDBRANCH   1  15
TORSDOF 7
ENDMDL
MODEL 5
REMARK VINA RESULT:      -7.8      5.619      8.640
REMARK  7 active torsions:
REMARK  status: ('A' for Active; 'I' for Inactive)
REMARK    1  A    between atoms: C4_11  and  N1_5 
REMARK    2  A    between atoms: C7_14  and  N2_6 
REMARK    3  A    between atoms: C8_15  and  N2_6 
REMARK    4  A    between atoms: C10_17  and  N3_7 
REMARK    5  A    between atoms: C8_15  and  N3_7 
REMARK    6  A    between atoms: C4_11  and  C6_13 
REMARK    7  A    between atoms: C6_13  and  C7_14 
ROOT
HETATM    1  N3  UNK     1      19.883  -3.014  34.984  1.00  0.00    -0.333 N 
HETATM    2  H14 UNK     1      20.400  -3.886  34.921  1.00  0.00     0.168 HD
ENDROOT
BRANCH   1   3
HETATM    3  C10 UNK     1      19.904  -2.310  33.780  1.00  0.00     0.036 A 
HETATM    4  C12 UNK     1      19.167  -1.139  33.643  1.00  0.00     0.067 A 
HETATM    5  C11 UNK     1      19.203  -0.449  32.430  1.00  0.00     0.092 A 
HETATM    6  O2  UNK     1      18.436   0.731  32.352  1.00  0.00    -0.275 OA
HETATM    7  C9  UNK     1      19.956  -0.893  31.342  1.00  0.00     0.004 A 
HETATM    8  C18 UNK     1      18.397   1.495  31.196  1.00  0.00     0.288 A 
HETATM    9  C16 UNK     1      19.197   1.013  30.057  1.00  0.00     0.090 A 
HETATM   10  O3  UNK     1      17.734   2.523  31.117  1.00  0.00    -0.260 OA
HETATM   11  C13 UNK     1      19.935  -0.105  30.103  1.00  0.00    -0.043 A 
HETATM   12  C17 UNK     1      20.734  -0.556  28.915  1.00  0.00     0.049 C 
HETATM   13  C14 UNK     1      20.692  -2.076  31.500  1.00  0.00     0.017 A 
HETATM   14  C15 UNK     1      20.665  -2.778  32.711  1.00  0.00     0.030 A 
ENDBRANCH   1   3
BRANCH   1  15
HETATM   15  C8  UNK     1      19.061  -2.928  36.123  1.00  0.00     0.172 C 
HETATM   16  S1  UNK     1      18.588  -1.543  36.946  1.00  0.00    -0.041 SA
BRANCH  15  17
HETATM   17  N2  UNK     1      18.560  -4.137  36.587  1.00  0.00    -0.367 N 
HETATM   18  H13 UNK     1      17.579  -4.149  36.849  1.00  0.00     0.161 HD
BRANCH  17  19
HETATM   19  C7  UNK     1      19.280  -5.390  36.720  1.00  0.00     0.123 C 
BRANCH  19  20
HETATM   20  C6  UNK     1      18.348  -6.583  36.917  1.00  0.00     0.039 C 
BRANCH  20  21
HETATM   21  C4  UNK     1      18.496  -7.665  35.849  1.00  0.00     0.127 C 
BRANCH  21  22
HETATM   22  N1  UNK     1      19.412  -8.712  36.243  1.00  0.00    -0.352 N 
HETATM   23  C1  UNK     1      19.065  -9.677  37.260  1.00  0.00     0.126 C 
HETATM   24  C2  UNK     1      20.122 -10.751  37.090  1.00  0.00     0.029 C 
HETATM   25  C3  UNK     1      21.338  -9.990  36.577  1.00  0.00     0.104 C 
HETATM   26  C5  UNK     1      20.732  -8.836  35.813  1.00  0.00     0.219 C 
HETATM   27  O1  UNK     1      21.335  -8.139  35.011  1.00  0.00    -0.273 OA
ENDBRANCH  21  22
ENDBRANCH  20  21
ENDBRANCH  19  20
ENDBRANCH  17  19
ENDBRANCH  15  17
ENDBRANCH   1  15
TORSDOF 7
ENDMDL
MODEL 6
REMARK VINA RESULT:      -7.8      6.798      9.798
REMARK  7 active torsions:
REMARK  status: ('A' for Active; 'I' for Inactive)
REMARK    1  A    between atoms: C4_11  and  N1_5 
REMARK    2  A    between atoms: C7_14  and  N2_6 
REMARK    3  A    between atoms: C8_15  and  N2_6 
REMARK    4  A    between atoms: C10_17  and  N3_7 
REMARK    5  A    between atoms: C8_15  and  N3_7 
REMARK    6  A    between atoms: C4_11  and  C6_13 
REMARK    7  A    between atoms: C6_13  and  C7_14 
ROOT
HETATM    1  N3  UNK     1      20.288  -4.168  36.762  1.00  0.00    -0.333 N 
HETATM    2  H14 UNK     1      21.293  -4.063  36.666  1.00  0.00     0.168 HD
ENDROOT
BRANCH   1   3
HETATM    3  C10 UNK     1      19.624  -2.949  36.626  1.00  0.00     0.036 A 
HETATM    4  C12 UNK     1      19.621  -2.287  35.403  1.00  0.00     0.067 A 
HETATM    5  C11 UNK     1      18.950  -1.068  35.288  1.00  0.00     0.092 A 
HETATM    6  O2  UNK     1      18.982  -0.447  34.025  1.00  0.00    -0.275 OA
HETATM    7  C9  UNK     1      18.278  -0.484  36.363  1.00  0.00     0.004 A 
HETATM    8  C18 UNK     1      18.350   0.766  33.796  1.00  0.00     0.288 A 
HETATM    9  C16 UNK     1      17.645   1.370  34.940  1.00  0.00     0.090 A 
HETATM   10  O3  UNK     1      18.372   1.315  32.700  1.00  0.00    -0.260 OA
HETATM   11  C13 UNK     1      17.598   0.801  36.153  1.00  0.00    -0.043 A 
HETATM   12  C17 UNK     1      16.866   1.455  37.288  1.00  0.00     0.049 C 
HETATM   13  C14 UNK     1      18.293  -1.166  37.587  1.00  0.00     0.017 A 
HETATM   14  C15 UNK     1      18.961  -2.389  37.717  1.00  0.00     0.030 A 
ENDBRANCH   1   3
BRANCH   1  15
HETATM   15  C8  UNK     1      19.851  -5.503  36.686  1.00  0.00     0.172 C 
HETATM   16  S1  UNK     1      19.964  -6.548  35.377  1.00  0.00    -0.041 SA
BRANCH  15  17
HETATM   17  N2  UNK     1      19.296  -6.013  37.853  1.00  0.00    -0.367 N 
HETATM   18  H13 UNK     1      18.944  -5.333  38.520  1.00  0.00     0.161 HD
BRANCH  17  19
HETATM   19  C7  UNK     1      19.147  -7.410  38.213  1.00  0.00     0.123 C 
BRANCH  19  20
HETATM   20  C6  UNK     1      20.082  -7.826  39.347  1.00  0.00     0.039 C 
BRANCH  20  21
HETATM   21  C4  UNK     1      20.515  -9.289  39.284  1.00  0.00     0.127 C 
BRANCH  21  22
HETATM   22  N1  UNK     1      21.044  -9.657  37.989  1.00  0.00    -0.352 N 
HETATM   23  C1  UNK     1      22.172  -8.967  37.409  1.00  0.00     0.126 C 
HETATM   24  C2  UNK     1      22.589  -9.882  36.275  1.00  0.00     0.029 C 
HETATM   25  C3  UNK     1      21.288 -10.548  35.844  1.00  0.00     0.104 C 
HETATM   26  C5  UNK     1      20.476 -10.584  37.118  1.00  0.00     0.219 C 
HETATM   27  O1  UNK     1      19.485 -11.278  37.293  1.00  0.00    -0.273 OA
ENDBRANCH  21  22
ENDBRANCH  20  21
ENDBRANCH  19  20
ENDBRANCH  17  19
ENDBRANCH  15  17
ENDBRANCH   1  15
TORSDOF 7
ENDMDL
MODEL 7
REMARK VINA RESULT:      -7.7      2.757      7.909
REMARK  7 active torsions:
REMARK  status: ('A' for Active; 'I' for Inactive)
REMARK    1  A    between atoms: C4_11  and  N1_5 
REMARK    2  A    between atoms: C7_14  and  N2_6 
REMARK    3  A    between atoms: C8_15  and  N2_6 
REMARK    4  A    between atoms: C10_17  and  N3_7 
REMARK    5  A    between atoms: C8_15  and  N3_7 
REMARK    6  A    between atoms: C4_11  and  C6_13 
REMARK    7  A    between atoms: C6_13  and  C7_14 
ROOT
HETATM    1  N3  UNK     1      17.546   4.008  31.704  1.00  0.00    -0.333 N 
HETATM    2  H14 UNK     1      16.538   3.934  31.606  1.00  0.00     0.168 HD
ENDROOT
BRANCH   1   3
HETATM    3  C10 UNK     1      18.192   2.832  31.325  1.00  0.00     0.036 A 
HETATM    4  C12 UNK     1      18.407   1.822  32.256  1.00  0.00     0.067 A 
HETATM    5  C11 UNK     1      19.054   0.651  31.856  1.00  0.00     0.092 A 
HETATM    6  O2  UNK     1      19.242  -0.335  32.844  1.00  0.00    -0.275 OA
HETATM    7  C9  UNK     1      19.498   0.455  30.547  1.00  0.00     0.004 A 
HETATM    8  C18 UNK     1      19.873  -1.536  32.559  1.00  0.00     0.288 A 
HETATM    9  C16 UNK     1      20.336  -1.728  31.174  1.00  0.00     0.090 A 
HETATM   10  O3  UNK     1      20.042  -2.401  33.411  1.00  0.00    -0.260 OA
HETATM   11  C13 UNK     1      20.171  -0.807  30.214  1.00  0.00    -0.043 A 
HETATM   12  C17 UNK     1      20.659  -1.048  28.815  1.00  0.00     0.049 C 
HETATM   13  C14 UNK     1      19.272   1.485  29.624  1.00  0.00     0.017 A 
HETATM   14  C15 UNK     1      18.625   2.664  30.010  1.00  0.00     0.030 A 
ENDBRANCH   1   3
BRANCH   1  15
HETATM   15  C8  UNK     1      18.000   5.328  31.880  1.00  0.00     0.172 C 
HETATM   16  S1  UNK     1      19.568   5.906  31.720  1.00  0.00    -0.041 SA
BRANCH  15  17
HETATM   17  N2  UNK     1      17.015   6.258  32.187  1.00  0.00    -0.367 N 
HETATM   18  H13 UNK     1      16.258   5.935  32.782  1.00  0.00     0.161 HD
BRANCH  17  19
HETATM   19  C7  UNK     1      16.959   7.645  31.765  1.00  0.00     0.123 C 
BRANCH  19  20
HETATM   20  C6  UNK     1      15.976   8.470  32.594  1.00  0.00     0.039 C 
BRANCH  20  21
HETATM   21  C4  UNK     1      16.382   8.625  34.058  1.00  0.00     0.127 C 
BRANCH  21  22
HETATM   22  N1  UNK     1      17.790   8.917  34.216  1.00  0.00    -0.352 N 
HETATM   23  C1  UNK     1      18.706   7.949  34.771  1.00  0.00     0.126 C 
HETATM   24  C2  UNK     1      20.066   8.521  34.421  1.00  0.00     0.029 C 
HETATM   25  C3  UNK     1      19.836  10.028  34.406  1.00  0.00     0.104 C 
HETATM   26  C5  UNK     1      18.388  10.156  33.993  1.00  0.00     0.219 C 
HETATM   27  O1  UNK     1      17.868  11.185  33.589  1.00  0.00    -0.273 OA
ENDBRANCH  21  22
ENDBRANCH  20  21
ENDBRANCH  19  20
ENDBRANCH  17  19
ENDBRANCH  15  17
ENDBRANCH   1  15
TORSDOF 7
ENDMDL
MODEL 8
REMARK VINA RESULT:      -7.7      2.001      2.402
REMARK  7 active torsions:
REMARK  status: ('A' for Active; 'I' for Inactive)
REMARK    1  A    between atoms: C4_11  and  N1_5 
REMARK    2  A    between atoms: C7_14  and  N2_6 
REMARK    3  A    between atoms: C8_15  and  N2_6 
REMARK    4  A    between atoms: C10_17  and  N3_7 
REMARK    5  A    between atoms: C8_15  and  N3_7 
REMARK    6  A    between atoms: C4_11  and  C6_13 
REMARK    7  A    between atoms: C6_13  and  C7_14 
ROOT
HETATM    1  N3  UNK     1      18.846   4.172  30.487  1.00  0.00    -0.333 N 
HETATM    2  H14 UNK     1      18.842   4.431  29.505  1.00  0.00     0.168 HD
ENDROOT
BRANCH   1   3
HETATM    3  C10 UNK     1      18.892   5.291  31.318  1.00  0.00     0.036 A 
HETATM    4  C12 UNK     1      17.750   6.059  31.519  1.00  0.00     0.067 A 
HETATM    5  C11 UNK     1      17.816   7.174  32.355  1.00  0.00     0.092 A 
HETATM    6  O2  UNK     1      16.628   7.912  32.519  1.00  0.00    -0.275 OA
HETATM    7  C9  UNK     1      18.995   7.551  33.003  1.00  0.00     0.004 A 
HETATM    8  C18 UNK     1      16.578   9.038  33.326  1.00  0.00     0.288 A 
HETATM    9  C16 UNK     1      17.829   9.423  34.003  1.00  0.00     0.090 A 
HETATM   10  O3  UNK     1      15.549   9.687  33.476  1.00  0.00    -0.260 OA
HETATM   11  C13 UNK     1      18.974   8.740  33.865  1.00  0.00    -0.043 A 
HETATM   12  C17 UNK     1      20.225   9.171  34.575  1.00  0.00     0.049 C 
HETATM   13  C14 UNK     1      20.134   6.764  32.788  1.00  0.00     0.017 A 
HETATM   14  C15 UNK     1      20.082   5.643  31.951  1.00  0.00     0.030 A 
ENDBRANCH   1   3
BRANCH   1  15
HETATM   15  C8  UNK     1      18.495   2.829  30.717  1.00  0.00     0.172 C 
HETATM   16  S1  UNK     1      18.892   1.490  29.785  1.00  0.00    -0.041 SA
BRANCH  15  17
HETATM   17  N2  UNK     1      17.765   2.596  31.875  1.00  0.00    -0.367 N 
HETATM   18  H13 UNK     1      16.799   2.307  31.749  1.00  0.00     0.161 HD
BRANCH  17  19
HETATM   19  C7  UNK     1      18.235   2.702  33.243  1.00  0.00     0.123 C 
BRANCH  19  20
HETATM   20  C6  UNK     1      17.806   1.515  34.104  1.00  0.00     0.039 C 
BRANCH  20  21
HETATM   21  C4  UNK     1      18.191   1.650  35.576  1.00  0.00     0.127 C 
BRANCH  21  22
HETATM   22  N1  UNK     1      18.215   0.377  36.262  1.00  0.00    -0.352 N 
HETATM   23  C1  UNK     1      18.319  -0.869  35.540  1.00  0.00     0.126 C 
HETATM   24  C2  UNK     1      18.665  -1.869  36.626  1.00  0.00     0.029 C 
HETATM   25  C3  UNK     1      17.997  -1.300  37.872  1.00  0.00     0.104 C 
HETATM   26  C5  UNK     1      18.013   0.191  37.628  1.00  0.00     0.219 C 
HETATM   27  O1  UNK     1      17.832   1.039  38.488  1.00  0.00    -0.273 OA
ENDBRANCH  21  22
ENDBRANCH  20  21
ENDBRANCH  19  20
ENDBRANCH  17  19
ENDBRANCH  15  17
ENDBRANCH   1  15
TORSDOF 7
ENDMDL
MODEL 9
REMARK VINA RESULT:      -7.7      1.862      6.664
REMARK  7 active torsions:
REMARK  status: ('A' for Active; 'I' for Inactive)
REMARK    1  A    between atoms: C4_11  and  N1_5 
REMARK    2  A    between atoms: C7_14  and  N2_6 
REMARK    3  A    between atoms: C8_15  and  N2_6 
REMARK    4  A    between atoms: C10_17  and  N3_7 
REMARK    5  A    between atoms: C8_15  and  N3_7 
REMARK    6  A    between atoms: C4_11  and  C6_13 
REMARK    7  A    between atoms: C6_13  and  C7_14 
ROOT
HETATM    1  N3  UNK     1      19.159   0.330  30.722  1.00  0.00    -0.333 N 
HETATM    2  H14 UNK     1      19.845  -0.258  30.260  1.00  0.00     0.168 HD
ENDROOT
BRANCH   1   3
HETATM    3  C10 UNK     1      18.972  -0.038  32.055  1.00  0.00     0.036 A 
HETATM    4  C12 UNK     1      18.400   0.857  32.953  1.00  0.00     0.067 A 
HETATM    5  C11 UNK     1      18.222   0.468  34.282  1.00  0.00     0.092 A 
HETATM    6  O2  UNK     1      17.638   1.417  35.144  1.00  0.00    -0.275 OA
HETATM    7  C9  UNK     1      18.599  -0.793  34.747  1.00  0.00     0.004 A 
HETATM    8  C18 UNK     1      17.414   1.140  36.483  1.00  0.00     0.288 A 
HETATM    9  C16 UNK     1      17.817  -0.195  36.958  1.00  0.00     0.090 A 
HETATM   10  O3  UNK     1      16.906   1.958  37.242  1.00  0.00    -0.260 OA
HETATM   11  C13 UNK     1      18.374  -1.117  36.162  1.00  0.00    -0.043 A 
HETATM   12  C17 UNK     1      18.768  -2.465  36.692  1.00  0.00     0.049 C 
HETATM   13  C14 UNK     1      19.173  -1.680  33.826  1.00  0.00     0.017 A 
HETATM   14  C15 UNK     1      19.359  -1.304  32.490  1.00  0.00     0.030 A 
ENDBRANCH   1   3
BRANCH   1  15
HETATM   15  C8  UNK     1      18.844   1.498  30.005  1.00  0.00     0.172 C 
HETATM   16  S1  UNK     1      17.829   1.646  28.675  1.00  0.00    -0.041 SA
BRANCH  15  17
HETATM   17  N2  UNK     1      19.422   2.665  30.488  1.00  0.00    -0.367 N 
HETATM   18  H13 UNK     1      20.223   2.552  31.102  1.00  0.00     0.161 HD
BRANCH  17  19
HETATM   19  C7  UNK     1      19.018   4.028  30.197  1.00  0.00     0.123 C 
BRANCH  19  20
HETATM   20  C6  UNK     1      18.556   4.781  31.443  1.00  0.00     0.039 C 
BRANCH  20  21
HETATM   21  C4  UNK     1      18.313   6.271  31.208  1.00  0.00     0.127 C 
BRANCH  21  22
HETATM   22  N1  UNK     1      17.338   6.825  32.121  1.00  0.00    -0.352 N 
HETATM   23  C1  UNK     1      17.158   6.290  33.451  1.00  0.00     0.126 C 
HETATM   24  C2  UNK     1      16.337   7.360  34.144  1.00  0.00     0.029 C 
HETATM   25  C3  UNK     1      15.515   7.976  33.018  1.00  0.00     0.104 C 
HETATM   26  C5  UNK     1      16.399   7.804  31.806  1.00  0.00     0.219 C 
HETATM   27  O1  UNK     1      16.254   8.400  30.748  1.00  0.00    -0.273 OA
ENDBRANCH  21  22
ENDBRANCH  20  21
ENDBRANCH  19  20
ENDBRANCH  17  19
ENDBRANCH  15  17
ENDBRANCH   1  15
TORSDOF 7
ENDMDL
MODEL 10
REMARK VINA RESULT:      -7.6      2.590      3.859
REMARK  7 active torsions:
REMARK  status: ('A' for Active; 'I' for Inactive)
REMARK    1  A    between atoms: C4_11  and  N1_5 
REMARK    2  A    between atoms: C7_14  and  N2_6 
REMARK    3  A    between atoms: C8_15  and  N2_6 
REMARK    4  A    between atoms: C10_17  and  N3_7 
REMARK    5  A    between atoms: C8_15  and  N3_7 
REMARK    6  A    between atoms: C4_11  and  C6_13 
REMARK    7  A    between atoms: C6_13  and  C7_14 
ROOT
HETATM    1  N3  UNK     1      17.986   0.376  33.245  1.00  0.00    -0.333 N 
HETATM    2  H14 UNK     1      17.198   0.134  33.838  1.00  0.00     0.168 HD
ENDROOT
BRANCH   1   3
HETATM    3  C10 UNK     1      18.201   1.753  33.203  1.00  0.00     0.036 A 
HETATM    4  C12 UNK     1      18.334   2.402  31.980  1.00  0.00     0.067 A 
HETATM    5  C11 UNK     1      18.548   3.782  31.960  1.00  0.00     0.092 A 
HETATM    6  O2  UNK     1      18.675   4.382  30.692  1.00  0.00    -0.275 OA
HETATM    7  C9  UNK     1      18.633   4.540  33.129  1.00  0.00     0.004 A 
HETATM    8  C18 UNK     1      18.889   5.744  30.553  1.00  0.00     0.288 A 
HETATM    9  C16 UNK     1      18.976   6.531  31.795  1.00  0.00     0.090 A 
HETATM   10  O3  UNK     1      19.001   6.277  29.454  1.00  0.00    -0.260 OA
HETATM   11  C13 UNK     1      18.859   5.986  33.014  1.00  0.00    -0.043 A 
HETATM   12  C17 UNK     1      18.955   6.829  34.253  1.00  0.00     0.049 C 
HETATM   13  C14 UNK     1      18.495   3.867  34.351  1.00  0.00     0.017 A 
HETATM   14  C15 UNK     1      18.281   2.484  34.387  1.00  0.00     0.030 A 
ENDBRANCH   1   3
BRANCH   1  15
HETATM   15  C8  UNK     1      18.796  -0.724  32.909  1.00  0.00     0.172 C 
HETATM   16  S1  UNK     1      19.709  -0.940  31.516  1.00  0.00    -0.041 SA
BRANCH  15  17
HETATM   17  N2  UNK     1      18.867  -1.725  33.869  1.00  0.00    -0.367 N 
HETATM   18  H13 UNK     1      18.272  -2.535  33.722  1.00  0.00     0.161 HD
BRANCH  17  19
HETATM   19  C7  UNK     1      19.712  -1.749  35.048  1.00  0.00     0.123 C 
BRANCH  19  20
HETATM   20  C6  UNK     1      18.954  -2.177  36.303  1.00  0.00     0.039 C 
BRANCH  20  21
HETATM   21  C4  UNK     1      17.467  -1.826  36.276  1.00  0.00     0.127 C 
BRANCH  21  22
HETATM   22  N1  UNK     1      17.197  -0.514  36.822  1.00  0.00    -0.352 N 
HETATM   23  C1  UNK     1      17.820  -0.061  38.044  1.00  0.00     0.126 C 
HETATM   24  C2  UNK     1      17.546   1.430  38.036  1.00  0.00     0.029 C 
HETATM   25  C3  UNK     1      16.223   1.556  37.291  1.00  0.00     0.104 C 
HETATM   26  C5  UNK     1      16.245   0.381  36.340  1.00  0.00     0.219 C 
HETATM   27  O1  UNK     1      15.515   0.258  35.368  1.00  0.00    -0.273 OA
ENDBRANCH  21  22
ENDBRANCH  20  21
ENDBRANCH  19  20
ENDBRANCH  17  19
ENDBRANCH  15  17
ENDBRANCH   1  15
TORSDOF 7
ENDMDL
