MODEL 1
REMARK VINA RESULT:      -9.8      0.000      0.000
REMARK  5 active torsions:
REMARK  status: ('A' for Active; 'I' for Inactive)
REMARK    1  A    between atoms: C12_23  and  O2_8 
REMARK    2  A    between atoms: C1_12  and  N1_11 
REMARK       I    between atoms: C11_22  and  N1_11 
REMARK    3  A    between atoms: C15_26  and  C3_14 
REMARK    4  A    between atoms: C16_27  and  C4_15 
REMARK    5  A    between atoms: C11_22  and  C5_16 
ROOT
HETATM    1  O3  UNK     1      18.121   4.450  30.257  1.00  0.00    -0.267 OA
HETATM    2  N1  UNK     1      18.328   4.533  32.602  1.00  0.00    -0.323 N 
HETATM    3  C11 UNK     1      18.348   3.933  31.350  1.00  0.00     0.262 C 
HETATM    4  H5  UNK     1      18.562   3.967  33.413  1.00  0.00     0.169 HD
ENDROOT
BRANCH   2   5
HETATM    5  C1  UNK     1      18.040   5.886  32.906  1.00  0.00     0.036 A 
HETATM    6  C7  UNK     1      16.778   6.386  32.636  1.00  0.00     0.045 A 
HETATM    7  C3  UNK     1      16.494   7.720  32.935  1.00  0.00     0.050 A 
HETATM    8  C9  UNK     1      17.478   8.531  33.500  1.00  0.00     0.032 A 
HETATM    9  C4  UNK     1      18.744   8.011  33.766  1.00  0.00     0.050 A 
HETATM   10  C6  UNK     1      19.028   6.679  33.467  1.00  0.00     0.045 A 
BRANCH   7  11
HETATM   11  C15 UNK     1      15.141   8.276  32.651  1.00  0.00     0.417 C 
HETATM   12  F1  UNK     1      14.322   8.308  33.743  1.00  0.00    -0.166 F 
HETATM   13  F2  UNK     1      15.164   9.561  32.187  1.00  0.00    -0.166 F 
HETATM   14  F3  UNK     1      14.465   7.558  31.707  1.00  0.00    -0.166 F 
ENDBRANCH   7  11
BRANCH   9  15
HETATM   15  C16 UNK     1      19.795   8.879  34.370  1.00  0.00     0.417 C 
HETATM   16  F4  UNK     1      21.005   8.793  33.741  1.00  0.00    -0.166 F 
HETATM   17  F5  UNK     1      19.482  10.210  34.353  1.00  0.00    -0.166 F 
HETATM   18  F6  UNK     1      20.040   8.578  35.678  1.00  0.00    -0.166 F 
ENDBRANCH   9  15
ENDBRANCH   2   5
BRANCH   3  19
HETATM   19  C5  UNK     1      18.691   2.508  31.425  1.00  0.00     0.108 A 
HETATM   20  C10 UNK     1      19.256   1.978  30.334  1.00  0.00     0.037 A 
HETATM   21  C2  UNK     1      19.632   0.573  30.312  1.00  0.00     0.002 A 
HETATM   22  C13 UNK     1      20.226  -0.023  29.196  1.00  0.00     0.014 A 
HETATM   23  C8  UNK     1      19.393  -0.205  31.440  1.00  0.00     0.123 A 
HETATM   24  C18 UNK     1      20.569  -1.377  29.226  1.00  0.00     0.004 A 
HETATM   25  C17 UNK     1      20.321  -2.143  30.367  1.00  0.00     0.040 A 
HETATM   26  C12 UNK     1      19.729  -1.557  31.484  1.00  0.00     0.102 A 
HETATM   27  O1  UNK     1      18.797   0.358  32.585  1.00  0.00    -0.271 OA
HETATM   28  C14 UNK     1      18.427   1.700  32.636  1.00  0.00     0.304 A 
HETATM   29  O4  UNK     1      17.910   2.182  33.638  1.00  0.00    -0.259 OA
BRANCH  26  30
HETATM   30  O2  UNK     1      19.489  -2.307  32.593  1.00  0.00    -0.353 OA
HETATM   31  C19 UNK     1      20.595  -2.559  33.459  1.00  0.00     0.210 C 
ENDBRANCH  26  30
ENDBRANCH   3  19
TORSDOF 5
ENDMDL
MODEL 2
REMARK VINA RESULT:      -9.8      0.100      3.175
REMARK  5 active torsions:
REMARK  status: ('A' for Active; 'I' for Inactive)
REMARK    1  A    between atoms: C12_23  and  O2_8 
REMARK    2  A    between atoms: C1_12  and  N1_11 
REMARK       I    between atoms: C11_22  and  N1_11 
REMARK    3  A    between atoms: C15_26  and  C3_14 
REMARK    4  A    between atoms: C16_27  and  C4_15 
REMARK    5  A    between atoms: C11_22  and  C5_16 
ROOT
HETATM    1  O3  UNK     1      18.107   4.507  30.312  1.00  0.00    -0.267 OA
HETATM    2  N1  UNK     1      18.305   4.571  32.658  1.00  0.00    -0.323 N 
HETATM    3  C11 UNK     1      18.327   3.981  31.401  1.00  0.00     0.262 C 
HETATM    4  H5  UNK     1      18.535   3.997  33.466  1.00  0.00     0.169 HD
ENDROOT
BRANCH   2   5
HETATM    5  C1  UNK     1      18.021   5.922  32.972  1.00  0.00     0.036 A 
HETATM    6  C7  UNK     1      19.023   6.719  33.498  1.00  0.00     0.045 A 
HETATM    7  C3  UNK     1      18.743   8.051  33.809  1.00  0.00     0.050 A 
HETATM    8  C9  UNK     1      17.465   8.563  33.588  1.00  0.00     0.032 A 
HETATM    9  C4  UNK     1      16.467   7.747  33.057  1.00  0.00     0.050 A 
HETATM   10  C6  UNK     1      16.747   6.416  32.747  1.00  0.00     0.045 A 
BRANCH   7  11
HETATM   11  C15 UNK     1      19.808   8.924  34.377  1.00  0.00     0.417 C 
HETATM   12  F1  UNK     1      20.110   8.646  35.679  1.00  0.00    -0.166 F 
HETATM   13  F2  UNK     1      20.999   8.839  33.712  1.00  0.00    -0.166 F 
HETATM   14  F3  UNK     1      19.472  10.247  34.354  1.00  0.00    -0.166 F 
ENDBRANCH   7  11
BRANCH   9  15
HETATM   15  C16 UNK     1      15.101   8.295  32.822  1.00  0.00     0.417 C 
HETATM   16  F4  UNK     1      14.358   7.559  31.943  1.00  0.00    -0.166 F 
HETATM   17  F5  UNK     1      14.338   8.369  33.954  1.00  0.00    -0.166 F 
HETATM   18  F6  UNK     1      15.122   9.561  32.313  1.00  0.00    -0.166 F 
ENDBRANCH   9  15
ENDBRANCH   2   5
BRANCH   3  19
HETATM   19  C5  UNK     1      18.666   2.554  31.466  1.00  0.00     0.108 A 
HETATM   20  C10 UNK     1      19.235   2.031  30.374  1.00  0.00     0.037 A 
HETATM   21  C2  UNK     1      19.607   0.625  30.342  1.00  0.00     0.002 A 
HETATM   22  C13 UNK     1      20.205   0.037  29.224  1.00  0.00     0.014 A 
HETATM   23  C8  UNK     1      19.359  -0.162  31.462  1.00  0.00     0.123 A 
HETATM   24  C18 UNK     1      20.543  -1.318  29.244  1.00  0.00     0.004 A 
HETATM   25  C17 UNK     1      20.286  -2.093  30.377  1.00  0.00     0.040 A 
HETATM   26  C12 UNK     1      19.691  -1.515  31.496  1.00  0.00     0.102 A 
HETATM   27  O1  UNK     1      18.759   0.394  32.608  1.00  0.00    -0.271 OA
HETATM   28  C14 UNK     1      18.393   1.736  32.669  1.00  0.00     0.304 A 
HETATM   29  O4  UNK     1      17.872   2.211  33.672  1.00  0.00    -0.259 OA
BRANCH  26  30
HETATM   30  O2  UNK     1      19.442  -2.273  32.597  1.00  0.00    -0.353 OA
HETATM   31  C19 UNK     1      20.538  -2.520  33.477  1.00  0.00     0.210 C 
ENDBRANCH  26  30
ENDBRANCH   3  19
TORSDOF 5
ENDMDL
MODEL 3
REMARK VINA RESULT:      -9.6      4.992      8.989
REMARK  5 active torsions:
REMARK  status: ('A' for Active; 'I' for Inactive)
REMARK    1  A    between atoms: C12_23  and  O2_8 
REMARK    2  A    between atoms: C1_12  and  N1_11 
REMARK       I    between atoms: C11_22  and  N1_11 
REMARK    3  A    between atoms: C15_26  and  C3_14 
REMARK    4  A    between atoms: C16_27  and  C4_15 
REMARK    5  A    between atoms: C11_22  and  C5_16 
ROOT
HETATM    1  O3  UNK     1      17.838   3.893  32.046  1.00  0.00    -0.267 OA
HETATM    2  N1  UNK     1      18.144   3.753  34.377  1.00  0.00    -0.323 N 
HETATM    3  C11 UNK     1      17.980   4.398  33.159  1.00  0.00     0.262 C 
HETATM    4  H5  UNK     1      18.227   4.321  35.217  1.00  0.00     0.169 HD
ENDROOT
BRANCH   2   5
HETATM    5  C1  UNK     1      18.188   2.358  34.617  1.00  0.00     0.036 A 
HETATM    6  C7  UNK     1      18.461   1.499  33.567  1.00  0.00     0.045 A 
HETATM    7  C3  UNK     1      18.503   0.125  33.802  1.00  0.00     0.050 A 
HETATM    8  C9  UNK     1      18.271  -0.369  35.086  1.00  0.00     0.032 A 
HETATM    9  C4  UNK     1      17.998   0.510  36.134  1.00  0.00     0.050 A 
HETATM   10  C6  UNK     1      17.955   1.884  35.898  1.00  0.00     0.045 A 
BRANCH   7  11
HETATM   11  C15 UNK     1      18.796  -0.816  32.684  1.00  0.00     0.417 C 
HETATM   12  F1  UNK     1      19.838  -1.661  32.937  1.00  0.00    -0.166 F 
HETATM   13  F2  UNK     1      17.747  -1.631  32.365  1.00  0.00    -0.166 F 
HETATM   14  F3  UNK     1      19.122  -0.170  31.526  1.00  0.00    -0.166 F 
ENDBRANCH   7  11
BRANCH   9  15
HETATM   15  C16 UNK     1      17.749  -0.018  37.506  1.00  0.00     0.417 C 
HETATM   16  F4  UNK     1      18.522  -1.098  37.825  1.00  0.00    -0.166 F 
HETATM   17  F5  UNK     1      17.988   0.894  38.495  1.00  0.00    -0.166 F 
HETATM   18  F6  UNK     1      16.459  -0.424  37.687  1.00  0.00    -0.166 F 
ENDBRANCH   9  15
ENDBRANCH   2   5
BRANCH   3  19
HETATM   19  C5  UNK     1      17.984   5.858  33.300  1.00  0.00     0.108 A 
HETATM   20  C10 UNK     1      19.118   6.406  33.752  1.00  0.00     0.037 A 
HETATM   21  C2  UNK     1      19.219   7.846  33.925  1.00  0.00     0.002 A 
HETATM   22  C13 UNK     1      20.384   8.462  34.393  1.00  0.00     0.014 A 
HETATM   23  C8  UNK     1      18.120   8.640  33.615  1.00  0.00     0.123 A 
HETATM   24  C18 UNK     1      20.430   9.850  34.541  1.00  0.00     0.004 A 
HETATM   25  C17 UNK     1      19.316  10.631  34.226  1.00  0.00     0.040 A 
HETATM   26  C12 UNK     1      18.151  10.026  33.759  1.00  0.00     0.102 A 
HETATM   27  O1  UNK     1      16.928   8.059  33.141  1.00  0.00    -0.271 OA
HETATM   28  C14 UNK     1      16.802   6.683  32.963  1.00  0.00     0.304 A 
HETATM   29  O4  UNK     1      15.761   6.186  32.549  1.00  0.00    -0.259 OA
BRANCH  26  30
HETATM   30  O2  UNK     1      17.068  10.790  33.453  1.00  0.00    -0.353 OA
HETATM   31  C19 UNK     1      16.343  11.356  34.545  1.00  0.00     0.210 C 
ENDBRANCH  26  30
ENDBRANCH   3  19
TORSDOF 5
ENDMDL
MODEL 4
REMARK VINA RESULT:      -9.6      4.992      9.068
REMARK  5 active torsions:
REMARK  status: ('A' for Active; 'I' for Inactive)
REMARK    1  A    between atoms: C12_23  and  O2_8 
REMARK    2  A    between atoms: C1_12  and  N1_11 
REMARK       I    between atoms: C11_22  and  N1_11 
REMARK    3  A    between atoms: C15_26  and  C3_14 
REMARK    4  A    between atoms: C16_27  and  C4_15 
REMARK    5  A    between atoms: C11_22  and  C5_16 
ROOT
HETATM    1  O3  UNK     1      17.912   3.882  32.034  1.00  0.00    -0.267 OA
HETATM    2  N1  UNK     1      18.147   3.743  34.373  1.00  0.00    -0.323 N 
HETATM    3  C11 UNK     1      18.017   4.387  33.150  1.00  0.00     0.262 C 
HETATM    4  H5  UNK     1      18.202   4.311  35.215  1.00  0.00     0.169 HD
ENDROOT
BRANCH   2   5
HETATM    5  C1  UNK     1      18.189   2.349  34.614  1.00  0.00     0.036 A 
HETATM    6  C7  UNK     1      17.951   1.876  35.894  1.00  0.00     0.045 A 
HETATM    7  C3  UNK     1      17.993   0.502  36.133  1.00  0.00     0.050 A 
HETATM    8  C9  UNK     1      18.273  -0.378  35.087  1.00  0.00     0.032 A 
HETATM    9  C4  UNK     1      18.510   0.114  33.804  1.00  0.00     0.050 A 
HETATM   10  C6  UNK     1      18.468   1.488  33.566  1.00  0.00     0.045 A 
BRANCH   7  11
HETATM   11  C15 UNK     1      17.740  -0.026  37.503  1.00  0.00     0.417 C 
HETATM   12  F1  UNK     1      17.988   0.881  38.494  1.00  0.00    -0.166 F 
HETATM   13  F2  UNK     1      16.450  -0.428  37.705  1.00  0.00    -0.166 F 
HETATM   14  F3  UNK     1      18.512  -1.112  37.800  1.00  0.00    -0.166 F 
ENDBRANCH   7  11
BRANCH   9  15
HETATM   15  C16 UNK     1      18.809  -0.827  32.687  1.00  0.00     0.417 C 
HETATM   16  F4  UNK     1      19.845  -1.678  32.950  1.00  0.00    -0.166 F 
HETATM   17  F5  UNK     1      17.759  -1.638  32.358  1.00  0.00    -0.166 F 
HETATM   18  F6  UNK     1      19.149  -0.183  31.533  1.00  0.00    -0.166 F 
ENDBRANCH   9  15
ENDBRANCH   2   5
BRANCH   3  19
HETATM   19  C5  UNK     1      18.011   5.848  33.292  1.00  0.00     0.108 A 
HETATM   20  C10 UNK     1      19.141   6.403  33.745  1.00  0.00     0.037 A 
HETATM   21  C2  UNK     1      19.231   7.844  33.919  1.00  0.00     0.002 A 
HETATM   22  C13 UNK     1      20.391   8.468  34.388  1.00  0.00     0.014 A 
HETATM   23  C8  UNK     1      18.127   8.631  33.607  1.00  0.00     0.123 A 
HETATM   24  C18 UNK     1      20.427   9.856  34.537  1.00  0.00     0.004 A 
HETATM   25  C17 UNK     1      19.308  10.630  34.220  1.00  0.00     0.040 A 
HETATM   26  C12 UNK     1      18.148  10.016  33.751  1.00  0.00     0.102 A 
HETATM   27  O1  UNK     1      16.940   8.041  33.131  1.00  0.00    -0.271 OA
HETATM   28  C14 UNK     1      16.824   6.664  32.953  1.00  0.00     0.304 A 
HETATM   29  O4  UNK     1      15.787   6.160  32.537  1.00  0.00    -0.259 OA
BRANCH  26  30
HETATM   30  O2  UNK     1      17.060  10.773  33.443  1.00  0.00    -0.353 OA
HETATM   31  C19 UNK     1      16.221  11.174  34.526  1.00  0.00     0.210 C 
ENDBRANCH  26  30
ENDBRANCH   3  19
TORSDOF 5
ENDMDL
MODEL 5
REMARK VINA RESULT:      -9.6      9.594     13.661
REMARK  5 active torsions:
REMARK  status: ('A' for Active; 'I' for Inactive)
REMARK    1  A    between atoms: C12_23  and  O2_8 
REMARK    2  A    between atoms: C1_12  and  N1_11 
REMARK       I    between atoms: C11_22  and  N1_11 
REMARK    3  A    between atoms: C15_26  and  C3_14 
REMARK    4  A    between atoms: C16_27  and  C4_15 
REMARK    5  A    between atoms: C11_22  and  C5_16 
ROOT
HETATM    1  O3  UNK     1      20.202  -5.236  34.970  1.00  0.00    -0.267 OA
HETATM    2  N1  UNK     1      20.076  -5.026  37.312  1.00  0.00    -0.323 N 
HETATM    3  C11 UNK     1      20.011  -4.587  35.997  1.00  0.00     0.262 C 
HETATM    4  H5  UNK     1      19.867  -4.362  38.055  1.00  0.00     0.169 HD
ENDROOT
BRANCH   2   5
HETATM    5  C1  UNK     1      20.379  -6.330  37.774  1.00  0.00     0.036 A 
HETATM    6  C7  UNK     1      21.428  -6.507  38.659  1.00  0.00     0.045 A 
HETATM    7  C3  UNK     1      21.728  -7.792  39.113  1.00  0.00     0.050 A 
HETATM    8  C9  UNK     1      20.974  -8.880  38.674  1.00  0.00     0.032 A 
HETATM    9  C4  UNK     1      19.920  -8.684  37.782  1.00  0.00     0.050 A 
HETATM   10  C6  UNK     1      19.620  -7.399  37.328  1.00  0.00     0.045 A 
BRANCH   7  11
HETATM   11  C15 UNK     1      22.854  -8.003  40.066  1.00  0.00     0.417 C 
HETATM   12  F1  UNK     1      22.688  -9.088  40.879  1.00  0.00    -0.166 F 
HETATM   13  F2  UNK     1      24.060  -8.198  39.456  1.00  0.00    -0.166 F 
HETATM   14  F3  UNK     1      23.037  -6.942  40.906  1.00  0.00    -0.166 F 
ENDBRANCH   7  11
BRANCH   9  15
HETATM   15  C16 UNK     1      19.114  -9.847  37.312  1.00  0.00     0.417 C 
HETATM   16  F4  UNK     1      18.039  -9.495  36.545  1.00  0.00    -0.166 F 
HETATM   17  F5  UNK     1      19.822 -10.730  36.545  1.00  0.00    -0.166 F 
HETATM   18  F6  UNK     1      18.604 -10.584  38.341  1.00  0.00    -0.166 F 
ENDBRANCH   9  15
ENDBRANCH   2   5
BRANCH   3  19
HETATM   19  C5  UNK     1      19.665  -3.164  35.905  1.00  0.00     0.108 A 
HETATM   20  C10 UNK     1      18.918  -2.671  36.900  1.00  0.00     0.037 A 
HETATM   21  C2  UNK     1      18.524  -1.271  36.897  1.00  0.00     0.002 A 
HETATM   22  C13 UNK     1      17.745  -0.713  37.915  1.00  0.00     0.014 A 
HETATM   23  C8  UNK     1      18.935  -0.458  35.846  1.00  0.00     0.123 A 
HETATM   24  C18 UNK     1      17.394   0.638  37.866  1.00  0.00     0.004 A 
HETATM   25  C17 UNK     1      17.816   1.439  36.803  1.00  0.00     0.040 A 
HETATM   26  C12 UNK     1      18.592   0.891  35.784  1.00  0.00     0.102 A 
HETATM   27  O1  UNK     1      19.721  -0.982  34.802  1.00  0.00    -0.271 OA
HETATM   28  C14 UNK     1      20.115  -2.317  34.777  1.00  0.00     0.304 A 
HETATM   29  O4  UNK     1      20.800  -2.765  33.864  1.00  0.00    -0.259 OA
BRANCH  26  30
HETATM   30  O2  UNK     1      19.001   1.674  34.749  1.00  0.00    -0.353 OA
HETATM   31  C19 UNK     1      18.048   1.939  33.719  1.00  0.00     0.210 C 
ENDBRANCH  26  30
ENDBRANCH   3  19
TORSDOF 5
ENDMDL
MODEL 6
REMARK VINA RESULT:      -9.6      9.595     13.346
REMARK  5 active torsions:
REMARK  status: ('A' for Active; 'I' for Inactive)
REMARK    1  A    between atoms: C12_23  and  O2_8 
REMARK    2  A    between atoms: C1_12  and  N1_11 
REMARK       I    between atoms: C11_22  and  N1_11 
REMARK    3  A    between atoms: C15_26  and  C3_14 
REMARK    4  A    between atoms: C16_27  and  C4_15 
REMARK    5  A    between atoms: C11_22  and  C5_16 
ROOT
HETATM    1  O3  UNK     1      20.152  -5.261  34.950  1.00  0.00    -0.267 OA
HETATM    2  N1  UNK     1      20.069  -5.041  37.294  1.00  0.00    -0.323 N 
HETATM    3  C11 UNK     1      19.984  -4.606  35.978  1.00  0.00     0.262 C 
HETATM    4  H5  UNK     1      19.879  -4.372  38.037  1.00  0.00     0.169 HD
ENDROOT
BRANCH   2   5
HETATM    5  C1  UNK     1      20.373  -6.345  37.755  1.00  0.00     0.036 A 
HETATM    6  C7  UNK     1      19.622  -7.415  37.301  1.00  0.00     0.045 A 
HETATM    7  C3  UNK     1      19.920  -8.700  37.756  1.00  0.00     0.050 A 
HETATM    8  C9  UNK     1      20.966  -8.894  38.657  1.00  0.00     0.032 A 
HETATM    9  C4  UNK     1      21.714  -7.805  39.104  1.00  0.00     0.050 A 
HETATM   10  C6  UNK     1      21.415  -6.521  38.650  1.00  0.00     0.045 A 
BRANCH   7  11
HETATM   11  C15 UNK     1      19.122  -9.864  37.278  1.00  0.00     0.417 C 
HETATM   12  F1  UNK     1      19.834 -10.739  36.509  1.00  0.00    -0.166 F 
HETATM   13  F2  UNK     1      18.601 -10.622  38.289  1.00  0.00    -0.166 F 
HETATM   14  F3  UNK     1      18.053  -9.492  36.514  1.00  0.00    -0.166 F 
ENDBRANCH   7  11
BRANCH   9  15
HETATM   15  C16 UNK     1      22.832  -8.013  40.068  1.00  0.00     0.417 C 
HETATM   16  F4  UNK     1      22.637  -9.068  40.914  1.00  0.00    -0.166 F 
HETATM   17  F5  UNK     1      24.035  -8.259  39.467  1.00  0.00    -0.166 F 
HETATM   18  F6  UNK     1      23.041  -6.931  40.873  1.00  0.00    -0.166 F 
ENDBRANCH   9  15
ENDBRANCH   2   5
BRANCH   3  19
HETATM   19  C5  UNK     1      19.645  -3.181  35.886  1.00  0.00     0.108 A 
HETATM   20  C10 UNK     1      18.908  -2.683  36.886  1.00  0.00     0.037 A 
HETATM   21  C2  UNK     1      18.521  -1.281  36.884  1.00  0.00     0.002 A 
HETATM   22  C13 UNK     1      17.753  -0.718  37.907  1.00  0.00     0.014 A 
HETATM   23  C8  UNK     1      18.929  -0.472  35.829  1.00  0.00     0.123 A 
HETATM   24  C18 UNK     1      17.409   0.636  37.858  1.00  0.00     0.004 A 
HETATM   25  C17 UNK     1      17.827   1.432  36.791  1.00  0.00     0.040 A 
HETATM   26  C12 UNK     1      18.593   0.879  35.767  1.00  0.00     0.102 A 
HETATM   27  O1  UNK     1      19.704  -1.002  34.779  1.00  0.00    -0.271 OA
HETATM   28  C14 UNK     1      20.090  -2.339  34.754  1.00  0.00     0.304 A 
HETATM   29  O4  UNK     1      20.766  -2.792  33.836  1.00  0.00    -0.259 OA
BRANCH  26  30
HETATM   30  O2  UNK     1      18.997   1.658  34.728  1.00  0.00    -0.353 OA
HETATM   31  C19 UNK     1      18.018   1.987  33.742  1.00  0.00     0.210 C 
ENDBRANCH  26  30
ENDBRANCH   3  19
TORSDOF 5
ENDMDL
MODEL 7
REMARK VINA RESULT:      -9.5      9.671     13.585
REMARK  5 active torsions:
REMARK  status: ('A' for Active; 'I' for Inactive)
REMARK    1  A    between atoms: C12_23  and  O2_8 
REMARK    2  A    between atoms: C1_12  and  N1_11 
REMARK       I    between atoms: C11_22  and  N1_11 
REMARK    3  A    between atoms: C15_26  and  C3_14 
REMARK    4  A    between atoms: C16_27  and  C4_15 
REMARK    5  A    between atoms: C11_22  and  C5_16 
ROOT
HETATM    1  O3  UNK     1      21.585  -4.249  37.305  1.00  0.00    -0.267 OA
HETATM    2  N1  UNK     1      19.887  -5.529  36.292  1.00  0.00    -0.323 N 
HETATM    3  C11 UNK     1      20.552  -4.363  36.646  1.00  0.00     0.262 C 
HETATM    4  H5  UNK     1      19.048  -5.452  35.721  1.00  0.00     0.169 HD
ENDROOT
BRANCH   2   5
HETATM    5  C1  UNK     1      20.248  -6.860  36.611  1.00  0.00     0.036 A 
HETATM    6  C7  UNK     1      20.792  -7.667  35.627  1.00  0.00     0.045 A 
HETATM    7  C3  UNK     1      21.148  -8.980  35.939  1.00  0.00     0.050 A 
HETATM    8  C9  UNK     1      20.952  -9.464  37.233  1.00  0.00     0.032 A 
HETATM    9  C4  UNK     1      20.403  -8.638  38.213  1.00  0.00     0.050 A 
HETATM   10  C6  UNK     1      20.047  -7.326  37.899  1.00  0.00     0.045 A 
BRANCH   7  11
HETATM   11  C15 UNK     1      21.735  -9.863  34.894  1.00  0.00     0.417 C 
HETATM   12  F1  UNK     1      21.047 -11.028  34.710  1.00  0.00    -0.166 F 
HETATM   13  F2  UNK     1      21.792  -9.286  33.657  1.00  0.00    -0.166 F 
HETATM   14  F3  UNK     1      23.017 -10.238  35.180  1.00  0.00    -0.166 F 
ENDBRANCH   7  11
BRANCH   9  15
HETATM   15  C16 UNK     1      20.193  -9.157  39.595  1.00  0.00     0.417 C 
HETATM   16  F4  UNK     1      19.515  -8.294  40.407  1.00  0.00    -0.166 F 
HETATM   17  F5  UNK     1      19.479 -10.321  39.640  1.00  0.00    -0.166 F 
HETATM   18  F6  UNK     1      21.366  -9.423  40.240  1.00  0.00    -0.166 F 
ENDBRANCH   9  15
ENDBRANCH   2   5
BRANCH   3  19
HETATM   19  C5  UNK     1      19.880  -3.164  36.134  1.00  0.00     0.108 A 
HETATM   20  C10 UNK     1      19.112  -2.498  37.004  1.00  0.00     0.037 A 
HETATM   21  C2  UNK     1      18.405  -1.297  36.590  1.00  0.00     0.002 A 
HETATM   22  C13 UNK     1      17.593  -0.570  37.465  1.00  0.00     0.014 A 
HETATM   23  C8  UNK     1      18.540  -0.855  35.278  1.00  0.00     0.123 A 
HETATM   24  C18 UNK     1      16.935   0.579  37.017  1.00  0.00     0.004 A 
HETATM   25  C17 UNK     1      17.082   1.007  35.696  1.00  0.00     0.040 A 
HETATM   26  C12 UNK     1      17.890   0.288  34.817  1.00  0.00     0.102 A 
HETATM   27  O1  UNK     1      19.349  -1.560  34.365  1.00  0.00    -0.271 OA
HETATM   28  C14 UNK     1      20.039  -2.712  34.733  1.00  0.00     0.304 A 
HETATM   29  O4  UNK     1      20.742  -3.319  33.932  1.00  0.00    -0.259 OA
BRANCH  26  30
HETATM   30  O2  UNK     1      18.030   0.707  33.531  1.00  0.00    -0.353 OA
HETATM   31  C19 UNK     1      18.148   2.113  33.315  1.00  0.00     0.210 C 
ENDBRANCH  26  30
ENDBRANCH   3  19
TORSDOF 5
ENDMDL
MODEL 8
REMARK VINA RESULT:      -9.5      9.677     13.614
REMARK  5 active torsions:
REMARK  status: ('A' for Active; 'I' for Inactive)
REMARK    1  A    between atoms: C12_23  and  O2_8 
REMARK    2  A    between atoms: C1_12  and  N1_11 
REMARK       I    between atoms: C11_22  and  N1_11 
REMARK    3  A    between atoms: C15_26  and  C3_14 
REMARK    4  A    between atoms: C16_27  and  C4_15 
REMARK    5  A    between atoms: C11_22  and  C5_16 
ROOT
HETATM    1  O3  UNK     1      21.618  -4.245  37.291  1.00  0.00    -0.267 OA
HETATM    2  N1  UNK     1      19.899  -5.529  36.320  1.00  0.00    -0.323 N 
HETATM    3  C11 UNK     1      20.571  -4.362  36.655  1.00  0.00     0.262 C 
HETATM    4  H5  UNK     1      19.049  -5.455  35.765  1.00  0.00     0.169 HD
ENDROOT
BRANCH   2   5
HETATM    5  C1  UNK     1      20.268  -6.859  36.636  1.00  0.00     0.036 A 
HETATM    6  C7  UNK     1      20.088  -7.321  37.928  1.00  0.00     0.045 A 
HETATM    7  C3  UNK     1      20.452  -8.632  38.241  1.00  0.00     0.050 A 
HETATM    8  C9  UNK     1      20.989  -9.459  37.256  1.00  0.00     0.032 A 
HETATM    9  C4  UNK     1      21.163  -8.978  35.958  1.00  0.00     0.050 A 
HETATM   10  C6  UNK     1      20.800  -7.668  35.646  1.00  0.00     0.045 A 
BRANCH   7  11
HETATM   11  C15 UNK     1      20.266  -9.147  39.627  1.00  0.00     0.417 C 
HETATM   12  F1  UNK     1      19.599  -8.284  40.448  1.00  0.00    -0.166 F 
HETATM   13  F2  UNK     1      19.557 -10.313  39.687  1.00  0.00    -0.166 F 
HETATM   14  F3  UNK     1      21.450  -9.407  40.255  1.00  0.00    -0.166 F 
ENDBRANCH   7  11
BRANCH   9  15
HETATM   15  C16 UNK     1      21.739  -9.863  34.905  1.00  0.00     0.417 C 
HETATM   16  F4  UNK     1      21.040 -11.022  34.721  1.00  0.00    -0.166 F 
HETATM   17  F5  UNK     1      21.791  -9.281  33.670  1.00  0.00    -0.166 F 
HETATM   18  F6  UNK     1      23.019 -10.247  35.182  1.00  0.00    -0.166 F 
ENDBRANCH   9  15
ENDBRANCH   2   5
BRANCH   3  19
HETATM   19  C5  UNK     1      19.888  -3.165  36.152  1.00  0.00     0.108 A 
HETATM   20  C10 UNK     1      19.116  -2.512  37.028  1.00  0.00     0.037 A 
HETATM   21  C2  UNK     1      18.398  -1.314  36.622  1.00  0.00     0.002 A 
HETATM   22  C13 UNK     1      17.581  -0.600  37.504  1.00  0.00     0.014 A 
HETATM   23  C8  UNK     1      18.527  -0.862  35.313  1.00  0.00     0.123 A 
HETATM   24  C18 UNK     1      16.912   0.546  37.065  1.00  0.00     0.004 A 
HETATM   25  C17 UNK     1      17.054   0.984  35.746  1.00  0.00     0.040 A 
HETATM   26  C12 UNK     1      17.866   0.278  34.861  1.00  0.00     0.102 A 
HETATM   27  O1  UNK     1      19.341  -1.554  34.395  1.00  0.00    -0.271 OA
HETATM   28  C14 UNK     1      20.041  -2.703  34.754  1.00  0.00     0.304 A 
HETATM   29  O4  UNK     1      20.748  -3.297  33.948  1.00  0.00    -0.259 OA
BRANCH  26  30
HETATM   30  O2  UNK     1      18.001   0.708  33.578  1.00  0.00    -0.353 OA
HETATM   31  C19 UNK     1      18.187   2.109  33.378  1.00  0.00     0.210 C 
ENDBRANCH  26  30
ENDBRANCH   3  19
TORSDOF 5
ENDMDL
MODEL 9
REMARK VINA RESULT:      -9.4      4.943      9.125
REMARK  5 active torsions:
REMARK  status: ('A' for Active; 'I' for Inactive)
REMARK    1  A    between atoms: C12_23  and  O2_8 
REMARK    2  A    between atoms: C1_12  and  N1_11 
REMARK       I    between atoms: C11_22  and  N1_11 
REMARK    3  A    between atoms: C15_26  and  C3_14 
REMARK    4  A    between atoms: C16_27  and  C4_15 
REMARK    5  A    between atoms: C11_22  and  C5_16 
ROOT
HETATM    1  O3  UNK     1      18.558   3.992  30.941  1.00  0.00    -0.267 OA
HETATM    2  N1  UNK     1      18.054   3.422  33.170  1.00  0.00    -0.323 N 
HETATM    3  C11 UNK     1      18.227   4.278  32.091  1.00  0.00     0.262 C 
HETATM    4  H5  UNK     1      17.754   3.818  34.057  1.00  0.00     0.169 HD
ENDROOT
BRANCH   2   5
HETATM    5  C1  UNK     1      18.222   2.016  33.192  1.00  0.00     0.036 A 
HETATM    6  C7  UNK     1      18.890   1.398  32.150  1.00  0.00     0.045 A 
HETATM    7  C3  UNK     1      19.055   0.012  32.171  1.00  0.00     0.050 A 
HETATM    8  C9  UNK     1      18.548  -0.733  33.235  1.00  0.00     0.032 A 
HETATM    9  C4  UNK     1      17.877  -0.094  34.278  1.00  0.00     0.050 A 
HETATM   10  C6  UNK     1      17.713   1.290  34.256  1.00  0.00     0.045 A 
BRANCH   7  11
HETATM   11  C15 UNK     1      19.771  -0.671  31.057  1.00  0.00     0.417 C 
HETATM   12  F1  UNK     1      19.435  -0.203  29.820  1.00  0.00    -0.166 F 
HETATM   13  F2  UNK     1      21.131  -0.551  31.125  1.00  0.00    -0.166 F 
HETATM   14  F3  UNK     1      19.526  -2.014  31.019  1.00  0.00    -0.166 F 
ENDBRANCH   7  11
BRANCH   9  15
HETATM   15  C16 UNK     1      17.335  -0.892  35.415  1.00  0.00     0.417 C 
HETATM   16  F4  UNK     1      17.086  -0.150  36.535  1.00  0.00    -0.166 F 
HETATM   17  F5  UNK     1      16.152  -1.514  35.133  1.00  0.00    -0.166 F 
HETATM   18  F6  UNK     1      18.183  -1.884  35.814  1.00  0.00    -0.166 F 
ENDBRANCH   9  15
ENDBRANCH   2   5
BRANCH   3  19
HETATM   19  C5  UNK     1      17.962   5.677  32.445  1.00  0.00     0.108 A 
HETATM   20  C10 UNK     1      16.674   6.026  32.553  1.00  0.00     0.037 A 
HETATM   21  C2  UNK     1      16.311   7.390  32.901  1.00  0.00     0.002 A 
HETATM   22  C13 UNK     1      14.980   7.799  33.025  1.00  0.00     0.014 A 
HETATM   23  C8  UNK     1      17.321   8.321  33.118  1.00  0.00     0.123 A 
HETATM   24  C18 UNK     1      14.683   9.122  33.362  1.00  0.00     0.004 A 
HETATM   25  C17 UNK     1      15.711  10.043  33.575  1.00  0.00     0.040 A 
HETATM   26  C12 UNK     1      17.040   9.644  33.454  1.00  0.00     0.102 A 
HETATM   27  O1  UNK     1      18.674   7.949  33.003  1.00  0.00    -0.271 OA
HETATM   28  C14 UNK     1      19.053   6.650  32.673  1.00  0.00     0.304 A 
HETATM   29  O4  UNK     1      20.234   6.335  32.576  1.00  0.00    -0.259 OA
BRANCH  26  30
HETATM   30  O2  UNK     1      18.038  10.545  33.662  1.00  0.00    -0.353 OA
HETATM   31  C19 UNK     1      17.673  11.796  34.244  1.00  0.00     0.210 C 
ENDBRANCH  26  30
ENDBRANCH   3  19
TORSDOF 5
ENDMDL
MODEL 10
REMARK VINA RESULT:      -9.3      6.548      9.706
REMARK  5 active torsions:
REMARK  status: ('A' for Active; 'I' for Inactive)
REMARK    1  A    between atoms: C12_23  and  O2_8 
REMARK    2  A    between atoms: C1_12  and  N1_11 
REMARK       I    between atoms: C11_22  and  N1_11 
REMARK    3  A    between atoms: C15_26  and  C3_14 
REMARK    4  A    between atoms: C16_27  and  C4_15 
REMARK    5  A    between atoms: C11_22  and  C5_16 
ROOT
HETATM    1  O3  UNK     1      20.207  -2.345  37.344  1.00  0.00    -0.267 OA
HETATM    2  N1  UNK     1      19.725  -3.395  35.292  1.00  0.00    -0.323 N 
HETATM    3  C11 UNK     1      20.058  -3.341  36.639  1.00  0.00     0.262 C 
HETATM    4  H5  UNK     1      19.617  -4.308  34.856  1.00  0.00     0.169 HD
ENDROOT
BRANCH   2   5
HETATM    5  C1  UNK     1      19.480  -2.307  34.419  1.00  0.00     0.036 A 
HETATM    6  C7  UNK     1      18.709  -1.245  34.861  1.00  0.00     0.045 A 
HETATM    7  C3  UNK     1      18.467  -0.173  34.001  1.00  0.00     0.050 A 
HETATM    8  C9  UNK     1      19.001  -0.180  32.712  1.00  0.00     0.032 A 
HETATM    9  C4  UNK     1      19.776  -1.257  32.283  1.00  0.00     0.050 A 
HETATM   10  C6  UNK     1      20.017  -2.329  33.143  1.00  0.00     0.045 A 
BRANCH   7  11
HETATM   11  C15 UNK     1      17.640   0.978  34.458  1.00  0.00     0.417 C 
HETATM   12  F1  UNK     1      17.747   2.082  33.661  1.00  0.00    -0.166 F 
HETATM   13  F2  UNK     1      16.302   0.706  34.508  1.00  0.00    -0.166 F 
HETATM   14  F3  UNK     1      17.974   1.400  35.714  1.00  0.00    -0.166 F 
ENDBRANCH   7  11
BRANCH   9  15
HETATM   15  C16 UNK     1      20.345  -1.265  30.905  1.00  0.00     0.417 C 
HETATM   16  F4  UNK     1      20.918  -2.455  30.555  1.00  0.00    -0.166 F 
HETATM   17  F5  UNK     1      19.421  -1.016  29.929  1.00  0.00    -0.166 F 
HETATM   18  F6  UNK     1      21.319  -0.325  30.733  1.00  0.00    -0.166 F 
ENDBRANCH   9  15
ENDBRANCH   2   5
BRANCH   3  19
HETATM   19  C5  UNK     1      20.234  -4.678  37.219  1.00  0.00     0.108 A 
HETATM   20  C10 UNK     1      21.383  -4.893  37.869  1.00  0.00     0.037 A 
HETATM   21  C2  UNK     1      21.650  -6.187  38.478  1.00  0.00     0.002 A 
HETATM   22  C13 UNK     1      22.836  -6.457  39.167  1.00  0.00     0.014 A 
HETATM   23  C8  UNK     1      20.693  -7.191  38.372  1.00  0.00     0.123 A 
HETATM   24  C18 UNK     1      23.043  -7.716  39.735  1.00  0.00     0.004 A 
HETATM   25  C17 UNK     1      22.071  -8.712  39.618  1.00  0.00     0.040 A 
HETATM   26  C12 UNK     1      20.886  -8.452  38.933  1.00  0.00     0.102 A 
HETATM   27  O1  UNK     1      19.485  -6.958  37.686  1.00  0.00    -0.271 OA
HETATM   28  C14 UNK     1      19.201  -5.730  37.094  1.00  0.00     0.304 A 
HETATM   29  O4  UNK     1      18.146  -5.537  36.499  1.00  0.00    -0.259 OA
BRANCH  26  30
HETATM   30  O2  UNK     1      19.942  -9.425  38.820  1.00  0.00    -0.353 OA
HETATM   31  C19 UNK     1      20.174 -10.446  37.850  1.00  0.00     0.210 C 
ENDBRANCH  26  30
ENDBRANCH   3  19
TORSDOF 5
ENDMDL
