MODEL 1
REMARK VINA RESULT:      -8.6      0.000      0.000
REMARK  4 active torsions:
REMARK  status: ('A' for Active; 'I' for Inactive)
REMARK    1  A    between atoms: C1_7  and  O1_1 
REMARK    2  A    between atoms: C16_22  and  O1_1 
REMARK    3  A    between atoms: C15_21  and  C6_12 
REMARK    4  A    between atoms: C16_22  and  C9_15 
ROOT
HETATM    1  O2  UNK     1      29.126  -5.085  32.085  1.00  0.00    -0.293 OA
HETATM    2  N1  UNK     1      30.019  -9.708  31.576  1.00  0.00    -0.362 N 
HETATM    3  C6  UNK     1      30.703  -7.333  32.969  1.00  0.00     0.104 C 
HETATM    4  C7  UNK     1      29.569  -7.414  31.952  1.00  0.00     0.024 C 
HETATM    5  C8  UNK     1      29.267  -8.575  31.335  1.00  0.00     0.020 C 
HETATM    6  C9  UNK     1      31.534  -8.618  33.034  1.00  0.00     0.052 C 
HETATM    7  C10 UNK     1      28.126  -8.723  30.363  1.00  0.00     0.058 C 
HETATM    8  C11 UNK     1      27.082  -7.628  30.532  1.00  0.00     0.014 C 
HETATM    9  C12 UNK     1      31.160  -9.734  32.365  1.00  0.00     0.018 C 
HETATM   10  C13 UNK     1      27.733  -6.256  30.542  1.00  0.00     0.084 C 
HETATM   11  C14 UNK     1      28.821  -6.169  31.590  1.00  0.00     0.158 C 
HETATM   12  C17 UNK     1      31.889 -11.051  32.356  1.00  0.00     0.069 C 
HETATM   13  H17 UNK     1      29.767 -10.557  31.084  1.00  0.00     0.165 HD
ENDROOT
BRANCH   3  14
HETATM   14  C15 UNK     1      30.157  -6.996  34.329  1.00  0.00     0.029 A 
HETATM   15  C18 UNK     1      30.779  -5.879  35.086  1.00  0.00     0.194 A 
HETATM   16  O5  UNK     1      31.715  -5.232  34.639  1.00  0.00    -0.287 OA
HETATM   17  C20 UNK     1      30.205  -5.592  36.414  1.00  0.00     0.048 A 
HETATM   18  C21 UNK     1      29.138  -6.363  36.874  1.00  0.00     0.089 A 
HETATM   19  C22 UNK     1      30.721  -4.561  37.204  1.00  0.00     0.018 A 
HETATM   20  O4  UNK     1      28.593  -7.387  36.141  1.00  0.00    -0.321 OA
HETATM   21  C23 UNK     1      28.580  -6.108  38.128  1.00  0.00     0.038 A 
HETATM   22  C19 UNK     1      29.137  -7.644  34.907  1.00  0.00     0.154 A 
HETATM   23  C25 UNK     1      29.093  -5.079  38.918  1.00  0.00     0.003 A 
HETATM   24  C24 UNK     1      30.160  -4.308  38.457  1.00  0.00     0.001 A 
ENDBRANCH   3  14
BRANCH   6  25
HETATM   25  C16 UNK     1      32.755  -8.558  33.854  1.00  0.00     0.292 C 
HETATM   26  O3  UNK     1      33.687  -7.813  33.613  1.00  0.00    -0.259 OA
BRANCH  25  27
HETATM   27  O1  UNK     1      32.632  -9.447  34.869  1.00  0.00    -0.312 OA
BRANCH  27  28
HETATM   28  C1  UNK     1      31.917  -8.976  35.994  1.00  0.00     0.132 C 
HETATM   29  C3  UNK     1      31.372 -10.117  36.836  1.00  0.00     0.032 C 
HETATM   30  C5  UNK     1      31.142  -9.492  38.206  1.00  0.00     0.002 C 
HETATM   31  C4  UNK     1      32.076  -8.282  38.282  1.00  0.00     0.002 C 
HETATM   32  C2  UNK     1      32.839  -8.257  36.965  1.00  0.00     0.032 C 
ENDBRANCH  27  28
ENDBRANCH  25  27
ENDBRANCH   6  25
TORSDOF 4
ENDMDL
MODEL 2
REMARK VINA RESULT:      -8.4      1.507      2.438
REMARK  4 active torsions:
REMARK  status: ('A' for Active; 'I' for Inactive)
REMARK    1  A    between atoms: C1_7  and  O1_1 
REMARK    2  A    between atoms: C16_22  and  O1_1 
REMARK    3  A    between atoms: C15_21  and  C6_12 
REMARK    4  A    between atoms: C16_22  and  C9_15 
ROOT
HETATM    1  O2  UNK     1      29.412  -5.290  31.963  1.00  0.00    -0.293 OA
HETATM    2  N1  UNK     1      29.032  -9.999  31.632  1.00  0.00    -0.362 N 
HETATM    3  C6  UNK     1      30.307  -7.843  32.964  1.00  0.00     0.104 C 
HETATM    4  C7  UNK     1      29.211  -7.656  31.919  1.00  0.00     0.024 C 
HETATM    5  C8  UNK     1      28.618  -8.717  31.333  1.00  0.00     0.020 C 
HETATM    6  C9  UNK     1      30.758  -9.301  33.095  1.00  0.00     0.052 C 
HETATM    7  C10 UNK     1      27.497  -8.590  30.335  1.00  0.00     0.058 C 
HETATM    8  C11 UNK     1      26.784  -7.248  30.439  1.00  0.00     0.014 C 
HETATM    9  C12 UNK     1      30.109 -10.301  32.453  1.00  0.00     0.018 C 
HETATM   10  C13 UNK     1      27.782  -6.103  30.422  1.00  0.00     0.084 C 
HETATM   11  C14 UNK     1      28.834  -6.271  31.496  1.00  0.00     0.158 C 
HETATM   12  C17 UNK     1      30.455 -11.765  32.508  1.00  0.00     0.069 C 
HETATM   13  H17 UNK     1      28.568 -10.768  31.162  1.00  0.00     0.165 HD
ENDROOT
BRANCH   3  14
HETATM   14  C15 UNK     1      29.848  -7.318  34.297  1.00  0.00     0.029 A 
HETATM   15  C18 UNK     1      30.649  -6.255  34.954  1.00  0.00     0.194 A 
HETATM   16  O5  UNK     1      31.664  -5.797  34.447  1.00  0.00    -0.287 OA
HETATM   17  C20 UNK     1      30.155  -5.777  36.259  1.00  0.00     0.048 A 
HETATM   18  C21 UNK     1      28.992  -6.335  36.790  1.00  0.00     0.089 A 
HETATM   19  C22 UNK     1      30.839  -4.779  36.957  1.00  0.00     0.018 A 
HETATM   20  O4  UNK     1      28.281  -7.317  36.148  1.00  0.00    -0.321 OA
HETATM   21  C23 UNK     1      28.506  -5.897  38.023  1.00  0.00     0.038 A 
HETATM   22  C19 UNK     1      28.753  -7.753  34.935  1.00  0.00     0.154 A 
HETATM   23  C25 UNK     1      29.188  -4.900  38.722  1.00  0.00     0.003 A 
HETATM   24  C24 UNK     1      30.351  -4.342  38.190  1.00  0.00     0.001 A 
ENDBRANCH   3  14
BRANCH   6  25
HETATM   25  C16 UNK     1      31.936  -9.540  33.946  1.00  0.00     0.292 C 
HETATM   26  O3  UNK     1      31.864  -9.751  35.143  1.00  0.00    -0.259 OA
BRANCH  25  27
HETATM   27  O1  UNK     1      33.043  -9.483  33.169  1.00  0.00    -0.312 OA
BRANCH  27  28
HETATM   28  C1  UNK     1      33.934  -8.427  33.473  1.00  0.00     0.132 C 
HETATM   29  C3  UNK     1      35.373  -8.908  33.556  1.00  0.00     0.032 C 
HETATM   30  C5  UNK     1      36.200  -7.647  33.338  1.00  0.00     0.002 C 
HETATM   31  C4  UNK     1      35.299  -6.677  32.569  1.00  0.00     0.002 C 
HETATM   32  C2  UNK     1      33.986  -7.414  32.341  1.00  0.00     0.032 C 
ENDBRANCH  27  28
ENDBRANCH  25  27
ENDBRANCH   6  25
TORSDOF 4
ENDMDL
MODEL 3
REMARK VINA RESULT:      -8.2      2.368      6.188
REMARK  4 active torsions:
REMARK  status: ('A' for Active; 'I' for Inactive)
REMARK    1  A    between atoms: C1_7  and  O1_1 
REMARK    2  A    between atoms: C16_22  and  O1_1 
REMARK    3  A    between atoms: C15_21  and  C6_12 
REMARK    4  A    between atoms: C16_22  and  C9_15 
ROOT
HETATM    1  O2  UNK     1      29.048  -8.014  36.829  1.00  0.00    -0.293 OA
HETATM    2  N1  UNK     1      32.941  -5.318  36.783  1.00  0.00    -0.362 N 
HETATM    3  C6  UNK     1      31.494  -7.359  35.446  1.00  0.00     0.104 C 
HETATM    4  C7  UNK     1      30.978  -6.638  36.687  1.00  0.00     0.024 C 
HETATM    5  C8  UNK     1      31.694  -5.655  37.271  1.00  0.00     0.020 C 
HETATM    6  C9  UNK     1      32.938  -6.983  35.099  1.00  0.00     0.052 C 
HETATM    7  C10 UNK     1      31.210  -4.876  38.466  1.00  0.00     0.058 C 
HETATM    8  C11 UNK     1      29.696  -4.944  38.620  1.00  0.00     0.014 C 
HETATM    9  C12 UNK     1      33.584  -5.990  35.754  1.00  0.00     0.018 C 
HETATM   10  C13 UNK     1      29.210  -6.381  38.561  1.00  0.00     0.084 C 
HETATM   11  C14 UNK     1      29.683  -7.072  37.300  1.00  0.00     0.158 C 
HETATM   12  C17 UNK     1      34.995  -5.530  35.500  1.00  0.00     0.069 C 
HETATM   13  H17 UNK     1      33.452  -4.582  37.257  1.00  0.00     0.165 HD
ENDROOT
BRANCH   3  14
HETATM   14  C15 UNK     1      30.589  -7.088  34.275  1.00  0.00     0.029 A 
HETATM   15  C18 UNK     1      29.978  -8.243  33.570  1.00  0.00     0.194 A 
HETATM   16  O5  UNK     1      30.187  -9.399  33.910  1.00  0.00    -0.287 OA
HETATM   17  C20 UNK     1      29.100  -7.921  32.429  1.00  0.00     0.048 A 
HETATM   18  C21 UNK     1      28.897  -6.585  32.084  1.00  0.00     0.089 A 
HETATM   19  C22 UNK     1      28.478  -8.938  31.700  1.00  0.00     0.018 A 
HETATM   20  O4  UNK     1      29.482  -5.547  32.765  1.00  0.00    -0.321 OA
HETATM   21  C23 UNK     1      28.069  -6.258  31.009  1.00  0.00     0.038 A 
HETATM   22  C19 UNK     1      30.297  -5.861  33.824  1.00  0.00     0.154 A 
HETATM   23  C25 UNK     1      27.447  -7.272  30.280  1.00  0.00     0.003 A 
HETATM   24  C24 UNK     1      27.651  -8.608  30.625  1.00  0.00     0.001 A 
ENDBRANCH   3  14
BRANCH   6  25
HETATM   25  C16 UNK     1      33.571  -7.769  34.027  1.00  0.00     0.292 C 
HETATM   26  O3  UNK     1      33.935  -8.921  34.169  1.00  0.00    -0.259 OA
BRANCH  25  27
HETATM   27  O1  UNK     1      33.656  -6.992  32.921  1.00  0.00    -0.312 OA
BRANCH  27  28
HETATM   28  C1  UNK     1      33.548  -7.684  31.693  1.00  0.00     0.132 C 
HETATM   29  C3  UNK     1      32.329  -7.244  30.901  1.00  0.00     0.032 C 
HETATM   30  C5  UNK     1      32.655  -7.640  29.466  1.00  0.00     0.002 C 
HETATM   31  C4  UNK     1      34.182  -7.711  29.382  1.00  0.00     0.002 C 
HETATM   32  C2  UNK     1      34.696  -7.329  30.763  1.00  0.00     0.032 C 
ENDBRANCH  27  28
ENDBRANCH  25  27
ENDBRANCH   6  25
TORSDOF 4
ENDMDL
MODEL 4
REMARK VINA RESULT:      -8.2      2.280      6.130
REMARK  4 active torsions:
REMARK  status: ('A' for Active; 'I' for Inactive)
REMARK    1  A    between atoms: C1_7  and  O1_1 
REMARK    2  A    between atoms: C16_22  and  O1_1 
REMARK    3  A    between atoms: C15_21  and  C6_12 
REMARK    4  A    between atoms: C16_22  and  C9_15 
ROOT
HETATM    1  O2  UNK     1      29.375  -9.592  36.501  1.00  0.00    -0.293 OA
HETATM    2  N1  UNK     1      29.980  -5.101  37.876  1.00  0.00    -0.362 N 
HETATM    3  C6  UNK     1      30.490  -7.014  35.845  1.00  0.00     0.104 C 
HETATM    4  C7  UNK     1      29.642  -7.305  37.079  1.00  0.00     0.024 C 
HETATM    5  C8  UNK     1      29.408  -6.351  38.004  1.00  0.00     0.020 C 
HETATM    6  C9  UNK     1      31.169  -5.642  35.901  1.00  0.00     0.052 C 
HETATM    7  C10 UNK     1      28.537  -6.569  39.214  1.00  0.00     0.058 C 
HETATM    8  C11 UNK     1      27.578  -7.737  39.028  1.00  0.00     0.014 C 
HETATM    9  C12 UNK     1      30.882  -4.753  36.881  1.00  0.00     0.018 C 
HETATM   10  C13 UNK     1      28.318  -8.973  38.548  1.00  0.00     0.084 C 
HETATM   11  C14 UNK     1      29.114  -8.689  37.294  1.00  0.00     0.158 C 
HETATM   12  C17 UNK     1      31.478  -3.380  37.039  1.00  0.00     0.069 C 
HETATM   13  H17 UNK     1      29.788  -4.417  38.598  1.00  0.00     0.165 HD
ENDROOT
BRANCH   3  14
HETATM   14  C15 UNK     1      29.652  -7.130  34.600  1.00  0.00     0.029 A 
HETATM   15  C18 UNK     1      30.051  -8.119  33.567  1.00  0.00     0.194 A 
HETATM   16  O5  UNK     1      31.034  -8.836  33.697  1.00  0.00    -0.287 OA
HETATM   17  C20 UNK     1      29.196  -8.191  32.367  1.00  0.00     0.048 A 
HETATM   18  C21 UNK     1      28.088  -7.349  32.272  1.00  0.00     0.089 A 
HETATM   19  C22 UNK     1      29.488  -9.090  31.338  1.00  0.00     0.018 A 
HETATM   20  O4  UNK     1      27.755  -6.449  33.253  1.00  0.00    -0.321 OA
HETATM   21  C23 UNK     1      27.265  -7.402  31.147  1.00  0.00     0.038 A 
HETATM   22  C19 UNK     1      28.560  -6.392  34.363  1.00  0.00     0.154 A 
HETATM   23  C25 UNK     1      27.554  -8.298  30.118  1.00  0.00     0.003 A 
HETATM   24  C24 UNK     1      28.663  -9.140  30.214  1.00  0.00     0.001 A 
ENDBRANCH   3  14
BRANCH   6  25
HETATM   25  C16 UNK     1      32.148  -5.360  34.838  1.00  0.00     0.292 C 
HETATM   26  O3  UNK     1      31.907  -4.654  33.877  1.00  0.00    -0.259 OA
BRANCH  25  27
HETATM   27  O1  UNK     1      33.300  -6.006  35.137  1.00  0.00    -0.312 OA
BRANCH  27  28
HETATM   28  C1  UNK     1      33.936  -6.633  34.042  1.00  0.00     0.132 C 
HETATM   29  C3  UNK     1      35.239  -5.944  33.674  1.00  0.00     0.032 C 
HETATM   30  C5  UNK     1      36.020  -7.006  32.908  1.00  0.00     0.002 C 
HETATM   31  C4  UNK     1      35.461  -8.356  33.368  1.00  0.00     0.002 C 
HETATM   32  C2  UNK     1      34.393  -8.037  34.405  1.00  0.00     0.032 C 
ENDBRANCH  27  28
ENDBRANCH  25  27
ENDBRANCH   6  25
TORSDOF 4
ENDMDL
MODEL 5
REMARK VINA RESULT:      -8.1      2.597      5.963
REMARK  4 active torsions:
REMARK  status: ('A' for Active; 'I' for Inactive)
REMARK    1  A    between atoms: C1_7  and  O1_1 
REMARK    2  A    between atoms: C16_22  and  O1_1 
REMARK    3  A    between atoms: C15_21  and  C6_12 
REMARK    4  A    between atoms: C16_22  and  C9_15 
ROOT
HETATM    1  O2  UNK     1      26.949 -10.192  36.088  1.00  0.00    -0.293 OA
HETATM    2  N1  UNK     1      29.870  -7.363  38.515  1.00  0.00    -0.362 N 
HETATM    3  C6  UNK     1      29.480  -8.808  36.106  1.00  0.00     0.104 C 
HETATM    4  C7  UNK     1      28.426  -8.705  37.204  1.00  0.00     0.024 C 
HETATM    5  C8  UNK     1      28.652  -7.983  38.321  1.00  0.00     0.020 C 
HETATM    6  C9  UNK     1      30.822  -8.191  36.511  1.00  0.00     0.052 C 
HETATM    7  C10 UNK     1      27.629  -7.807  39.413  1.00  0.00     0.058 C 
HETATM    8  C11 UNK     1      26.212  -8.072  38.920  1.00  0.00     0.014 C 
HETATM    9  C12 UNK     1      30.958  -7.495  37.665  1.00  0.00     0.018 C 
HETATM   10  C13 UNK     1      26.134  -9.399  38.185  1.00  0.00     0.084 C 
HETATM   11  C14 UNK     1      27.147  -9.470  37.064  1.00  0.00     0.158 C 
HETATM   12  C17 UNK     1      32.219  -6.843  38.166  1.00  0.00     0.069 C 
HETATM   13  H17 UNK     1      30.003  -6.840  39.373  1.00  0.00     0.165 HD
ENDROOT
BRANCH   3  14
HETATM   14  C15 UNK     1      28.974  -8.169  34.841  1.00  0.00     0.029 A 
HETATM   15  C18 UNK     1      28.942  -8.983  33.599  1.00  0.00     0.194 A 
HETATM   16  O5  UNK     1      29.313 -10.148  33.575  1.00  0.00    -0.287 OA
HETATM   17  C20 UNK     1      28.438  -8.307  32.388  1.00  0.00     0.048 A 
HETATM   18  C21 UNK     1      28.029  -6.976  32.474  1.00  0.00     0.089 A 
HETATM   19  C22 UNK     1      28.370  -8.988  31.170  1.00  0.00     0.018 A 
HETATM   20  O4  UNK     1      28.075  -6.261  33.644  1.00  0.00    -0.321 OA
HETATM   21  C23 UNK     1      27.549  -6.318  31.341  1.00  0.00     0.038 A 
HETATM   22  C19 UNK     1      28.547  -6.902  34.762  1.00  0.00     0.154 A 
HETATM   23  C25 UNK     1      27.479  -6.996  30.124  1.00  0.00     0.003 A 
HETATM   24  C24 UNK     1      27.888  -8.327  30.039  1.00  0.00     0.001 A 
ENDBRANCH   3  14
BRANCH   6  25
HETATM   25  C16 UNK     1      31.943  -8.410  35.582  1.00  0.00     0.292 C 
HETATM   26  O3  UNK     1      32.577  -9.447  35.533  1.00  0.00    -0.259 OA
BRANCH  25  27
HETATM   27  O1  UNK     1      32.107  -7.289  34.840  1.00  0.00    -0.312 OA
BRANCH  27  28
HETATM   28  C1  UNK     1      33.408  -6.736  34.870  1.00  0.00     0.132 C 
HETATM   29  C3  UNK     1      34.146  -6.954  33.560  1.00  0.00     0.032 C 
HETATM   30  C5  UNK     1      35.228  -5.882  33.559  1.00  0.00     0.002 C 
HETATM   31  C4  UNK     1      34.726  -4.772  34.486  1.00  0.00     0.002 C 
HETATM   32  C2  UNK     1      33.356  -5.221  34.975  1.00  0.00     0.032 C 
ENDBRANCH  27  28
ENDBRANCH  25  27
ENDBRANCH   6  25
TORSDOF 4
ENDMDL
MODEL 6
REMARK VINA RESULT:      -8.0      2.374      5.782
REMARK  4 active torsions:
REMARK  status: ('A' for Active; 'I' for Inactive)
REMARK    1  A    between atoms: C1_7  and  O1_1 
REMARK    2  A    between atoms: C16_22  and  O1_1 
REMARK    3  A    between atoms: C15_21  and  C6_12 
REMARK    4  A    between atoms: C16_22  and  C9_15 
ROOT
HETATM    1  O2  UNK     1      33.068  -8.372  36.280  1.00  0.00    -0.293 OA
HETATM    2  N1  UNK     1      31.765  -4.775  33.489  1.00  0.00    -0.362 N 
HETATM    3  C6  UNK     1      30.968  -7.230  34.664  1.00  0.00     0.104 C 
HETATM    4  C7  UNK     1      32.310  -6.561  34.944  1.00  0.00     0.024 C 
HETATM    5  C8  UNK     1      32.630  -5.378  34.379  1.00  0.00     0.020 C 
HETATM    6  C9  UNK     1      30.172  -6.526  33.561  1.00  0.00     0.052 C 
HETATM    7  C10 UNK     1      33.918  -4.649  34.661  1.00  0.00     0.058 C 
HETATM    8  C11 UNK     1      34.554  -5.093  35.972  1.00  0.00     0.014 C 
HETATM    9  C12 UNK     1      30.583  -5.345  33.040  1.00  0.00     0.018 C 
HETATM   10  C13 UNK     1      34.654  -6.606  36.040  1.00  0.00     0.084 C 
HETATM   11  C14 UNK     1      33.309  -7.260  35.813  1.00  0.00     0.158 C 
HETATM   12  C17 UNK     1      29.886  -4.560  31.961  1.00  0.00     0.069 C 
HETATM   13  H17 UNK     1      32.048  -3.893  33.078  1.00  0.00     0.165 HD
ENDROOT
BRANCH   3  14
HETATM   14  C15 UNK     1      30.153  -7.307  35.926  1.00  0.00     0.029 A 
HETATM   15  C18 UNK     1      29.691  -8.640  36.392  1.00  0.00     0.194 A 
HETATM   16  O5  UNK     1      29.952  -9.668  35.783  1.00  0.00    -0.287 OA
HETATM   17  C20 UNK     1      28.896  -8.658  37.634  1.00  0.00     0.048 A 
HETATM   18  C21 UNK     1      28.628  -7.455  38.286  1.00  0.00     0.089 A 
HETATM   19  C22 UNK     1      28.415  -9.863  38.153  1.00  0.00     0.018 A 
HETATM   20  O4  UNK     1      29.076  -6.244  37.821  1.00  0.00    -0.321 OA
HETATM   21  C23 UNK     1      27.878  -7.450  39.463  1.00  0.00     0.038 A 
HETATM   22  C19 UNK     1      29.814  -6.242  36.664  1.00  0.00     0.154 A 
HETATM   23  C25 UNK     1      27.397  -8.651  39.983  1.00  0.00     0.003 A 
HETATM   24  C24 UNK     1      27.665  -9.855  39.330  1.00  0.00     0.001 A 
ENDBRANCH   3  14
BRANCH   6  25
HETATM   25  C16 UNK     1      28.953  -7.212  33.103  1.00  0.00     0.292 C 
HETATM   26  O3  UNK     1      27.830  -6.794  33.317  1.00  0.00    -0.259 OA
BRANCH  25  27
HETATM   27  O1  UNK     1      29.319  -8.332  32.435  1.00  0.00    -0.312 OA
BRANCH  27  28
HETATM   28  C1  UNK     1      29.159  -8.272  31.032  1.00  0.00     0.132 C 
HETATM   29  C3  UNK     1      30.108  -9.215  30.313  1.00  0.00     0.032 C 
HETATM   30  C5  UNK     1      29.458  -9.432  28.952  1.00  0.00     0.002 C 
HETATM   31  C4  UNK     1      27.967  -9.143  29.144  1.00  0.00     0.002 C 
HETATM   32  C2  UNK     1      27.793  -8.793  30.615  1.00  0.00     0.032 C 
ENDBRANCH  27  28
ENDBRANCH  25  27
ENDBRANCH   6  25
TORSDOF 4
ENDMDL
MODEL 7
REMARK VINA RESULT:      -8.0      1.923      2.702
REMARK  4 active torsions:
REMARK  status: ('A' for Active; 'I' for Inactive)
REMARK    1  A    between atoms: C1_7  and  O1_1 
REMARK    2  A    between atoms: C16_22  and  O1_1 
REMARK    3  A    between atoms: C15_21  and  C6_12 
REMARK    4  A    between atoms: C16_22  and  C9_15 
ROOT
HETATM    1  O2  UNK     1      27.777  -6.050  33.214  1.00  0.00    -0.293 OA
HETATM    2  N1  UNK     1      30.409  -9.476  31.275  1.00  0.00    -0.362 N 
HETATM    3  C6  UNK     1      29.978  -7.879  33.579  1.00  0.00     0.104 C 
HETATM    4  C7  UNK     1      29.082  -7.833  32.345  1.00  0.00     0.024 C 
HETATM    5  C8  UNK     1      29.316  -8.633  31.284  1.00  0.00     0.020 C 
HETATM    6  C9  UNK     1      31.221  -8.751  33.377  1.00  0.00     0.052 C 
HETATM    7  C10 UNK     1      28.434  -8.665  30.063  1.00  0.00     0.058 C 
HETATM    8  C11 UNK     1      27.040  -8.121  30.346  1.00  0.00     0.014 C 
HETATM    9  C12 UNK     1      31.377  -9.510  32.267  1.00  0.00     0.018 C 
HETATM   10  C13 UNK     1      27.117  -6.771  31.038  1.00  0.00     0.084 C 
HETATM   11  C14 UNK     1      27.964  -6.839  32.290  1.00  0.00     0.158 C 
HETATM   12  C17 UNK     1      32.547 -10.406  31.961  1.00  0.00     0.069 C 
HETATM   13  H17 UNK     1      30.555 -10.052  30.454  1.00  0.00     0.165 HD
ENDROOT
BRANCH   3  14
HETATM   14  C15 UNK     1      29.194  -8.356  34.771  1.00  0.00     0.029 A 
HETATM   15  C18 UNK     1      29.203  -7.527  36.003  1.00  0.00     0.194 A 
HETATM   16  O5  UNK     1      29.824  -6.476  36.076  1.00  0.00    -0.287 OA
HETATM   17  C20 UNK     1      28.419  -8.042  37.142  1.00  0.00     0.048 A 
HETATM   18  C21 UNK     1      27.730  -9.247  37.003  1.00  0.00     0.089 A 
HETATM   19  C22 UNK     1      28.364  -7.335  38.346  1.00  0.00     0.018 A 
HETATM   20  O4  UNK     1      27.749  -9.981  35.844  1.00  0.00    -0.321 OA
HETATM   21  C23 UNK     1      26.982  -9.751  38.067  1.00  0.00     0.038 A 
HETATM   22  C19 UNK     1      28.483  -9.491  34.793  1.00  0.00     0.154 A 
HETATM   23  C25 UNK     1      26.926  -9.047  39.270  1.00  0.00     0.003 A 
HETATM   24  C24 UNK     1      27.615  -7.842  39.409  1.00  0.00     0.001 A 
ENDBRANCH   3  14
BRANCH   6  25
HETATM   25  C16 UNK     1      32.227  -8.702  34.451  1.00  0.00     0.292 C 
HETATM   26  O3  UNK     1      32.486  -9.651  35.168  1.00  0.00    -0.259 OA
BRANCH  25  27
HETATM   27  O1  UNK     1      32.770  -7.461  34.471  1.00  0.00    -0.312 OA
BRANCH  27  28
HETATM   28  C1  UNK     1      33.780  -7.265  35.441  1.00  0.00     0.132 C 
HETATM   29  C3  UNK     1      34.732  -6.147  35.049  1.00  0.00     0.032 C 
HETATM   30  C5  UNK     1      35.364  -5.717  36.367  1.00  0.00     0.002 C 
HETATM   31  C4  UNK     1      34.377  -6.127  37.464  1.00  0.00     0.002 C 
HETATM   32  C2  UNK     1      33.192  -6.759  36.748  1.00  0.00     0.032 C 
ENDBRANCH  27  28
ENDBRANCH  25  27
ENDBRANCH   6  25
TORSDOF 4
ENDMDL
MODEL 8
REMARK VINA RESULT:      -7.8      1.965      5.817
REMARK  4 active torsions:
REMARK  status: ('A' for Active; 'I' for Inactive)
REMARK    1  A    between atoms: C1_7  and  O1_1 
REMARK    2  A    between atoms: C16_22  and  O1_1 
REMARK    3  A    between atoms: C15_21  and  C6_12 
REMARK    4  A    between atoms: C16_22  and  C9_15 
ROOT
HETATM    1  O2  UNK     1      31.611  -5.080  33.967  1.00  0.00    -0.293 OA
HETATM    2  N1  UNK     1      32.637  -8.639  36.919  1.00  0.00    -0.362 N 
HETATM    3  C6  UNK     1      30.588  -7.326  35.461  1.00  0.00     0.104 C 
HETATM    4  C7  UNK     1      32.061  -6.939  35.374  1.00  0.00     0.024 C 
HETATM    5  C8  UNK     1      33.000  -7.613  36.069  1.00  0.00     0.020 C 
HETATM    6  C9  UNK     1      30.314  -8.382  36.537  1.00  0.00     0.052 C 
HETATM    7  C10 UNK     1      34.473  -7.306  35.981  1.00  0.00     0.058 C 
HETATM    8  C11 UNK     1      34.827  -6.553  34.706  1.00  0.00     0.014 C 
HETATM    9  C12 UNK     1      31.325  -8.994  37.197  1.00  0.00     0.018 C 
HETATM   10  C13 UNK     1      33.917  -5.352  34.517  1.00  0.00     0.084 C 
HETATM   11  C14 UNK     1      32.458  -5.754  34.551  1.00  0.00     0.158 C 
HETATM   12  C17 UNK     1      31.181 -10.044  38.266  1.00  0.00     0.069 C 
HETATM   13  H17 UNK     1      33.372  -9.112  37.431  1.00  0.00     0.165 HD
ENDROOT
BRANCH   3  14
HETATM   14  C15 UNK     1      30.099  -7.808  34.122  1.00  0.00     0.029 A 
HETATM   15  C18 UNK     1      28.935  -7.123  33.504  1.00  0.00     0.194 A 
HETATM   16  O5  UNK     1      28.367  -6.186  34.048  1.00  0.00    -0.287 OA
HETATM   17  C20 UNK     1      28.496  -7.635  32.193  1.00  0.00     0.048 A 
HETATM   18  C21 UNK     1      29.181  -8.707  31.620  1.00  0.00     0.089 A 
HETATM   19  C22 UNK     1      27.410  -7.058  31.530  1.00  0.00     0.018 A 
HETATM   20  O4  UNK     1      30.253  -9.311  32.226  1.00  0.00    -0.321 OA
HETATM   21  C23 UNK     1      28.783  -9.208  30.379  1.00  0.00     0.038 A 
HETATM   22  C19 UNK     1      30.650  -8.825  33.447  1.00  0.00     0.154 A 
HETATM   23  C25 UNK     1      27.699  -8.632  29.715  1.00  0.00     0.003 A 
HETATM   24  C24 UNK     1      27.015  -7.560  30.289  1.00  0.00     0.001 A 
ENDBRANCH   3  14
BRANCH   6  25
HETATM   25  C16 UNK     1      28.897  -8.675  36.811  1.00  0.00     0.292 C 
HETATM   26  O3  UNK     1      28.213  -9.388  36.100  1.00  0.00    -0.259 OA
BRANCH  25  27
HETATM   27  O1  UNK     1      28.539  -8.029  37.946  1.00  0.00    -0.312 OA
BRANCH  27  28
HETATM   28  C1  UNK     1      28.534  -6.618  37.856  1.00  0.00     0.132 C 
HETATM   29  C3  UNK     1      27.246  -6.021  38.397  1.00  0.00     0.032 C 
HETATM   30  C5  UNK     1      27.614  -4.581  38.730  1.00  0.00     0.002 C 
HETATM   31  C4  UNK     1      29.129  -4.570  38.949  1.00  0.00     0.002 C 
HETATM   32  C2  UNK     1      29.590  -6.009  38.763  1.00  0.00     0.032 C 
ENDBRANCH  27  28
ENDBRANCH  25  27
ENDBRANCH   6  25
TORSDOF 4
ENDMDL
MODEL 9
REMARK VINA RESULT:      -7.8      2.498      5.993
REMARK  4 active torsions:
REMARK  status: ('A' for Active; 'I' for Inactive)
REMARK    1  A    between atoms: C1_7  and  O1_1 
REMARK    2  A    between atoms: C16_22  and  O1_1 
REMARK    3  A    between atoms: C15_21  and  C6_12 
REMARK    4  A    between atoms: C16_22  and  C9_15 
ROOT
HETATM    1  O2  UNK     1      29.299  -8.126  36.671  1.00  0.00    -0.293 OA
HETATM    2  N1  UNK     1      32.969  -5.149  36.376  1.00  0.00    -0.362 N 
HETATM    3  C6  UNK     1      31.562  -7.259  35.107  1.00  0.00     0.104 C 
HETATM    4  C7  UNK     1      31.105  -6.608  36.408  1.00  0.00     0.024 C 
HETATM    5  C8  UNK     1      31.797  -5.589  36.958  1.00  0.00     0.020 C 
HETATM    6  C9  UNK     1      32.940  -6.769  34.650  1.00  0.00     0.052 C 
HETATM    7  C10 UNK     1      31.363  -4.877  38.213  1.00  0.00     0.058 C 
HETATM    8  C11 UNK     1      29.877  -5.060  38.492  1.00  0.00     0.014 C 
HETATM    9  C12 UNK     1      33.568  -5.747  35.277  1.00  0.00     0.018 C 
HETATM   10  C13 UNK     1      29.493  -6.528  38.431  1.00  0.00     0.084 C 
HETATM   11  C14 UNK     1      29.903  -7.152  37.115  1.00  0.00     0.158 C 
HETATM   12  C17 UNK     1      34.914  -5.177  34.919  1.00  0.00     0.069 C 
HETATM   13  H17 UNK     1      33.465  -4.389  36.827  1.00  0.00     0.165 HD
ENDROOT
BRANCH   3  14
HETATM   14  C15 UNK     1      30.542  -7.028  34.025  1.00  0.00     0.029 A 
HETATM   15  C18 UNK     1      30.020  -8.203  33.281  1.00  0.00     0.194 A 
HETATM   16  O5  UNK     1      30.393  -9.343  33.520  1.00  0.00    -0.287 OA
HETATM   17  C20 UNK     1      29.023  -7.920  32.231  1.00  0.00     0.048 A 
HETATM   18  C21 UNK     1      28.635  -6.600  32.001  1.00  0.00     0.089 A 
HETATM   19  C22 UNK     1      28.472  -8.958  31.475  1.00  0.00     0.018 A 
HETATM   20  O4  UNK     1      29.143  -5.544  32.714  1.00  0.00    -0.321 OA
HETATM   21  C23 UNK     1      27.692  -6.310  31.014  1.00  0.00     0.038 A 
HETATM   22  C19 UNK     1      30.071  -5.821  33.687  1.00  0.00     0.154 A 
HETATM   23  C25 UNK     1      27.141  -7.345  30.257  1.00  0.00     0.003 A 
HETATM   24  C24 UNK     1      27.530  -8.665  30.488  1.00  0.00     0.001 A 
ENDBRANCH   3  14
BRANCH   6  25
HETATM   25  C16 UNK     1      33.533  -7.480  33.505  1.00  0.00     0.292 C 
HETATM   26  O3  UNK     1      33.386  -7.127  32.350  1.00  0.00    -0.259 OA
BRANCH  25  27
HETATM   27  O1  UNK     1      34.233  -8.539  33.977  1.00  0.00    -0.312 OA
BRANCH  27  28
HETATM   28  C1  UNK     1      35.257  -9.008  33.124  1.00  0.00     0.132 C 
HETATM   29  C3  UNK     1      36.631  -8.551  33.584  1.00  0.00     0.032 C 
HETATM   30  C5  UNK     1      37.591  -9.541  32.937  1.00  0.00     0.002 C 
HETATM   31  C4  UNK     1      36.774 -10.807  32.666  1.00  0.00     0.002 C 
HETATM   32  C2  UNK     1      35.372 -10.523  33.188  1.00  0.00     0.032 C 
ENDBRANCH  27  28
ENDBRANCH  25  27
ENDBRANCH   6  25
TORSDOF 4
ENDMDL
MODEL 10
REMARK VINA RESULT:      -7.8      2.084      5.464
REMARK  4 active torsions:
REMARK  status: ('A' for Active; 'I' for Inactive)
REMARK    1  A    between atoms: C1_7  and  O1_1 
REMARK    2  A    between atoms: C16_22  and  O1_1 
REMARK    3  A    between atoms: C15_21  and  C6_12 
REMARK    4  A    between atoms: C16_22  and  C9_15 
ROOT
HETATM    1  O2  UNK     1      33.655  -6.938  30.650  1.00  0.00    -0.293 OA
HETATM    2  N1  UNK     1      34.095  -8.726  35.013  1.00  0.00    -0.362 N 
HETATM    3  C6  UNK     1      32.586  -7.015  33.328  1.00  0.00     0.104 C 
HETATM    4  C7  UNK     1      33.756  -7.860  32.836  1.00  0.00     0.024 C 
HETATM    5  C8  UNK     1      34.425  -8.679  33.674  1.00  0.00     0.020 C 
HETATM    6  C9  UNK     1      32.420  -7.060  34.851  1.00  0.00     0.052 C 
HETATM    7  C10 UNK     1      35.554  -9.573  33.230  1.00  0.00     0.058 C 
HETATM    8  C11 UNK     1      35.520  -9.838  31.730  1.00  0.00     0.014 C 
HETATM    9  C12 UNK     1      33.152  -7.906  35.614  1.00  0.00     0.018 C 
HETATM   10  C13 UNK     1      35.398  -8.539  30.954  1.00  0.00     0.084 C 
HETATM   11  C14 UNK     1      34.204  -7.731  31.413  1.00  0.00     0.158 C 
HETATM   12  C17 UNK     1      33.075  -8.043  37.111  1.00  0.00     0.069 C 
HETATM   13  H17 UNK     1      34.630  -9.345  35.611  1.00  0.00     0.165 HD
ENDROOT
BRANCH   3  14
HETATM   14  C15 UNK     1      31.313  -7.446  32.652  1.00  0.00     0.029 A 
HETATM   15  C18 UNK     1      30.432  -6.403  32.069  1.00  0.00     0.194 A 
HETATM   16  O5  UNK     1      30.708  -5.213  32.122  1.00  0.00    -0.287 OA
HETATM   17  C20 UNK     1      29.197  -6.880  31.418  1.00  0.00     0.048 A 
HETATM   18  C21 UNK     1      28.932  -8.250  31.388  1.00  0.00     0.089 A 
HETATM   19  C22 UNK     1      28.302  -5.977  30.840  1.00  0.00     0.018 A 
HETATM   20  O4  UNK     1      29.775  -9.180  31.940  1.00  0.00    -0.321 OA
HETATM   21  C23 UNK     1      27.770  -8.723  30.777  1.00  0.00     0.038 A 
HETATM   22  C19 UNK     1      30.920  -8.721  32.542  1.00  0.00     0.154 A 
HETATM   23  C25 UNK     1      26.875  -7.823  30.199  1.00  0.00     0.003 A 
HETATM   24  C24 UNK     1      27.140  -6.453  30.230  1.00  0.00     0.001 A 
ENDBRANCH   3  14
BRANCH   6  25
HETATM   25  C16 UNK     1      31.433  -6.130  35.422  1.00  0.00     0.292 C 
HETATM   26  O3  UNK     1      31.601  -4.926  35.476  1.00  0.00    -0.259 OA
BRANCH  25  27
HETATM   27  O1  UNK     1      30.365  -6.848  35.847  1.00  0.00    -0.312 OA
BRANCH  27  28
HETATM   28  C1  UNK     1      29.531  -6.188  36.778  1.00  0.00     0.132 C 
HETATM   29  C3  UNK     1      28.131  -6.776  36.800  1.00  0.00     0.032 C 
HETATM   30  C5  UNK     1      27.573  -6.362  38.156  1.00  0.00     0.002 C 
HETATM   31  C4  UNK     1      28.788  -6.116  39.055  1.00  0.00     0.002 C 
HETATM   32  C2  UNK     1      30.011  -6.419  38.201  1.00  0.00     0.032 C 
ENDBRANCH  27  28
ENDBRANCH  25  27
ENDBRANCH   6  25
TORSDOF 4
ENDMDL
