MODEL 1
REMARK VINA RESULT:      -8.8      0.000      0.000
REMARK  5 active torsions:
REMARK  status: ('A' for Active; 'I' for Inactive)
REMARK    1  A    between atoms: C13_19  and  O2_2 
REMARK    2  A    between atoms: C5_11  and  O2_2 
REMARK    3  A    between atoms: C7_13  and  N1_6 
REMARK       I    between atoms: C8_14  and  N1_6 
REMARK    4  A    between atoms: C3_9  and  C8_14 
REMARK    5  A    between atoms: C12_18  and  C7_13 
ROOT
HETATM    1  O1  UNK     1      18.888   0.480  32.242  1.00  0.00    -0.271 OA
HETATM    2  O5  UNK     1      18.000   2.577  32.425  1.00  0.00    -0.259 OA
HETATM    3  C1  UNK     1      19.901  -0.216  30.144  1.00  0.00     0.002 A 
HETATM    4  C2  UNK     1      19.545  -0.491  31.461  1.00  0.00     0.123 A 
HETATM    5  C3  UNK     1      18.958   2.009  30.334  1.00  0.00     0.108 A 
HETATM    6  C4  UNK     1      19.582   1.090  29.587  1.00  0.00     0.037 A 
HETATM    7  C5  UNK     1      19.822  -1.721  32.054  1.00  0.00     0.103 A 
HETATM    8  C6  UNK     1      20.552  -1.204  29.401  1.00  0.00     0.014 A 
HETATM    9  C9  UNK     1      18.572   1.738  31.737  1.00  0.00     0.304 A 
HETATM   10  C10 UNK     1      20.471  -2.701  31.306  1.00  0.00     0.040 A 
HETATM   11  C11 UNK     1      20.835  -2.443  29.982  1.00  0.00     0.004 A 
ENDROOT
BRANCH   5  12
HETATM   12  C8  UNK     1      18.680   3.294  29.683  1.00  0.00     0.258 C 
HETATM   13  O4  UNK     1      18.060   3.344  28.622  1.00  0.00    -0.267 OA
HETATM   14  N1  UNK     1      19.185   4.373  30.386  1.00  0.00    -0.351 N 
HETATM   15  H7  UNK     1      19.699   4.226  31.249  1.00  0.00     0.163 HD
BRANCH  14  16
HETATM   16  C7  UNK     1      19.039   5.740  29.942  1.00  0.00     0.187 C 
BRANCH  16  17
HETATM   17  C12 UNK     1      18.314   6.584  30.950  1.00  0.00     0.070 A 
HETATM   18  O3  UNK     1      17.199   7.182  30.497  1.00  0.00    -0.325 OA
HETATM   19  C17 UNK     1      16.710   7.882  31.554  1.00  0.00     0.142 A 
HETATM   20  C15 UNK     1      17.516   7.719  32.656  1.00  0.00     0.027 A 
HETATM   21  C14 UNK     1      18.568   6.864  32.250  1.00  0.00     0.036 A 
ENDBRANCH  16  17
ENDBRANCH  14  16
ENDBRANCH   5  12
BRANCH   7  22
HETATM   22  O2  UNK     1      19.468  -1.976  33.342  1.00  0.00    -0.349 OA
BRANCH  22  23
HETATM   23  C13 UNK     1      20.443  -2.608  34.172  1.00  0.00     0.171 C 
HETATM   24  C16 UNK     1      20.160  -2.258  35.617  1.00  0.00     0.034 C 
ENDBRANCH  22  23
ENDBRANCH   7  22
TORSDOF 5
ENDMDL
MODEL 2
REMARK VINA RESULT:      -8.5      1.544      1.852
REMARK  5 active torsions:
REMARK  status: ('A' for Active; 'I' for Inactive)
REMARK    1  A    between atoms: C13_19  and  O2_2 
REMARK    2  A    between atoms: C5_11  and  O2_2 
REMARK    3  A    between atoms: C7_13  and  N1_6 
REMARK       I    between atoms: C8_14  and  N1_6 
REMARK    4  A    between atoms: C3_9  and  C8_14 
REMARK    5  A    between atoms: C12_18  and  C7_13 
ROOT
HETATM    1  O1  UNK     1      18.762   0.618  32.606  1.00  0.00    -0.271 OA
HETATM    2  O5  UNK     1      17.940   2.513  33.584  1.00  0.00    -0.259 OA
HETATM    3  C1  UNK     1      19.519   0.691  30.297  1.00  0.00     0.002 A 
HETATM    4  C2  UNK     1      19.308  -0.019  31.475  1.00  0.00     0.123 A 
HETATM    5  C3  UNK     1      18.647   2.702  31.331  1.00  0.00     0.108 A 
HETATM    6  C4  UNK     1      19.165   2.102  30.253  1.00  0.00     0.037 A 
HETATM    7  C5  UNK     1      19.625  -1.371  31.583  1.00  0.00     0.103 A 
HETATM    8  C6  UNK     1      20.063   0.025  29.196  1.00  0.00     0.014 A 
HETATM    9  C9  UNK     1      18.415   1.966  32.594  1.00  0.00     0.304 A 
HETATM   10  C10 UNK     1      20.167  -2.028  30.481  1.00  0.00     0.040 A 
HETATM   11  C11 UNK     1      20.386  -1.332  29.290  1.00  0.00     0.004 A 
ENDROOT
BRANCH   5  12
HETATM   12  C8  UNK     1      18.323   4.126  31.188  1.00  0.00     0.258 C 
HETATM   13  O4  UNK     1      18.768   4.784  30.249  1.00  0.00    -0.267 OA
HETATM   14  N1  UNK     1      17.501   4.595  32.196  1.00  0.00    -0.351 N 
HETATM   15  H7  UNK     1      17.198   3.973  32.939  1.00  0.00     0.163 HD
BRANCH  14  16
HETATM   16  C7  UNK     1      17.049   5.966  32.271  1.00  0.00     0.187 C 
BRANCH  16  17
HETATM   17  C12 UNK     1      17.908   6.792  33.184  1.00  0.00     0.070 A 
HETATM   18  O3  UNK     1      17.308   7.203  34.314  1.00  0.00    -0.325 OA
HETATM   19  C17 UNK     1      18.248   7.922  34.981  1.00  0.00     0.142 A 
HETATM   20  C15 UNK     1      19.425   7.957  34.269  1.00  0.00     0.027 A 
HETATM   21  C14 UNK     1      19.192   7.211  33.089  1.00  0.00     0.036 A 
ENDBRANCH  16  17
ENDBRANCH  14  16
ENDBRANCH   5  12
BRANCH   7  22
HETATM   22  O2  UNK     1      19.413  -2.053  32.740  1.00  0.00    -0.349 OA
BRANCH  22  23
HETATM   23  C13 UNK     1      20.566  -2.495  33.456  1.00  0.00     0.171 C 
HETATM   24  C16 UNK     1      20.264  -2.474  34.939  1.00  0.00     0.034 C 
ENDBRANCH  22  23
ENDBRANCH   7  22
TORSDOF 5
ENDMDL
MODEL 3
REMARK VINA RESULT:      -8.3      3.125      8.546
REMARK  5 active torsions:
REMARK  status: ('A' for Active; 'I' for Inactive)
REMARK    1  A    between atoms: C13_19  and  O2_2 
REMARK    2  A    between atoms: C5_11  and  O2_2 
REMARK    3  A    between atoms: C7_13  and  N1_6 
REMARK       I    between atoms: C8_14  and  N1_6 
REMARK    4  A    between atoms: C3_9  and  C8_14 
REMARK    5  A    between atoms: C12_18  and  C7_13 
ROOT
HETATM    1  O1  UNK     1      18.735   0.125  32.563  1.00  0.00    -0.271 OA
HETATM    2  O5  UNK     1      18.510  -0.242  34.807  1.00  0.00    -0.259 OA
HETATM    3  C1  UNK     1      20.282  -1.238  31.274  1.00  0.00     0.002 A 
HETATM    4  C2  UNK     1      19.343  -0.213  31.338  1.00  0.00     0.123 A 
HETATM    5  C3  UNK     1      20.047  -1.628  33.654  1.00  0.00     0.108 A 
HETATM    6  C4  UNK     1      20.628  -1.953  32.492  1.00  0.00     0.037 A 
HETATM    7  C5  UNK     1      18.968   0.510  30.208  1.00  0.00     0.103 A 
HETATM    8  C6  UNK     1      20.862  -1.544  30.040  1.00  0.00     0.014 A 
HETATM    9  C9  UNK     1      19.044  -0.542  33.745  1.00  0.00     0.304 A 
HETATM   10  C10 UNK     1      19.551   0.199  28.982  1.00  0.00     0.040 A 
HETATM   11  C11 UNK     1      20.496  -0.827  28.898  1.00  0.00     0.004 A 
ENDROOT
BRANCH   5  12
HETATM   12  C8  UNK     1      20.461  -2.406  34.827  1.00  0.00     0.258 C 
HETATM   13  O4  UNK     1      21.581  -2.264  35.316  1.00  0.00    -0.267 OA
HETATM   14  N1  UNK     1      19.478  -3.270  35.273  1.00  0.00    -0.351 N 
HETATM   15  H7  UNK     1      18.587  -3.325  34.790  1.00  0.00     0.163 HD
BRANCH  14  16
HETATM   16  C7  UNK     1      19.654  -4.142  36.413  1.00  0.00     0.187 C 
BRANCH  16  17
HETATM   17  C12 UNK     1      19.717  -5.587  36.010  1.00  0.00     0.070 A 
HETATM   18  O3  UNK     1      20.300  -5.822  34.822  1.00  0.00    -0.325 OA
HETATM   19  C17 UNK     1      20.252  -7.170  34.657  1.00  0.00     0.142 A 
HETATM   20  C15 UNK     1      19.642  -7.768  35.735  1.00  0.00     0.027 A 
HETATM   21  C14 UNK     1      19.294  -6.719  36.620  1.00  0.00     0.036 A 
ENDBRANCH  16  17
ENDBRANCH  14  16
ENDBRANCH   5  12
BRANCH   7  22
HETATM   22  O2  UNK     1      18.049   1.509  30.285  1.00  0.00    -0.349 OA
BRANCH  22  23
HETATM   23  C13 UNK     1      18.529   2.847  30.155  1.00  0.00     0.171 C 
HETATM   24  C16 UNK     1      18.263   3.594  31.444  1.00  0.00     0.034 C 
ENDBRANCH  22  23
ENDBRANCH   7  22
TORSDOF 5
ENDMDL
MODEL 4
REMARK VINA RESULT:      -8.2     15.586     17.912
REMARK  5 active torsions:
REMARK  status: ('A' for Active; 'I' for Inactive)
REMARK    1  A    between atoms: C13_19  and  O2_2 
REMARK    2  A    between atoms: C5_11  and  O2_2 
REMARK    3  A    between atoms: C7_13  and  N1_6 
REMARK       I    between atoms: C8_14  and  N1_6 
REMARK    4  A    between atoms: C3_9  and  C8_14 
REMARK    5  A    between atoms: C12_18  and  C7_13 
ROOT
HETATM    1  O1  UNK     1      19.500  -1.932  12.767  1.00  0.00    -0.271 OA
HETATM    2  O5  UNK     1      19.371  -0.168  14.213  1.00  0.00    -0.259 OA
HETATM    3  C1  UNK     1      18.757  -4.132  13.488  1.00  0.00     0.002 A 
HETATM    4  C2  UNK     1      19.291  -3.301  12.508  1.00  0.00     0.123 A 
HETATM    5  C3  UNK     1      18.621  -2.264  15.025  1.00  0.00     0.108 A 
HETATM    6  C4  UNK     1      18.420  -3.565  14.785  1.00  0.00     0.037 A 
HETATM    7  C5  UNK     1      19.634  -3.781  11.246  1.00  0.00     0.103 A 
HETATM    8  C6  UNK     1      18.564  -5.484  13.193  1.00  0.00     0.014 A 
HETATM    9  C9  UNK     1      19.186  -1.361  13.997  1.00  0.00     0.304 A 
HETATM   10  C10 UNK     1      19.439  -5.130  10.960  1.00  0.00     0.040 A 
HETATM   11  C11 UNK     1      18.905  -5.981  11.932  1.00  0.00     0.004 A 
ENDROOT
BRANCH   5  12
HETATM   12  C8  UNK     1      18.250  -1.786  16.362  1.00  0.00     0.258 C 
HETATM   13  O4  UNK     1      17.118  -1.969  16.806  1.00  0.00    -0.267 OA
HETATM   14  N1  UNK     1      19.287  -1.139  17.009  1.00  0.00    -0.351 N 
HETATM   15  H7  UNK     1      20.184  -1.024  16.549  1.00  0.00     0.163 HD
BRANCH  14  16
HETATM   16  C7  UNK     1      19.160  -0.580  18.336  1.00  0.00     0.187 C 
BRANCH  16  17
HETATM   17  C12 UNK     1      19.145   0.922  18.314  1.00  0.00     0.070 A 
HETATM   18  O3  UNK     1      19.117   1.473  17.088  1.00  0.00    -0.325 OA
HETATM   19  C17 UNK     1      19.107   2.816  17.296  1.00  0.00     0.142 A 
HETATM   20  C15 UNK     1      19.129   3.096  18.643  1.00  0.00     0.027 A 
HETATM   21  C14 UNK     1      19.153   1.845  19.304  1.00  0.00     0.036 A 
ENDBRANCH  16  17
ENDBRANCH  14  16
ENDBRANCH   5  12
BRANCH   7  22
HETATM   22  O2  UNK     1      20.155  -2.957  10.298  1.00  0.00    -0.349 OA
BRANCH  22  23
HETATM   23  C13 UNK     1      20.873  -3.570   9.227  1.00  0.00     0.171 C 
HETATM   24  C16 UNK     1      22.085  -2.724   8.898  1.00  0.00     0.034 C 
ENDBRANCH  22  23
ENDBRANCH   7  22
TORSDOF 5
ENDMDL
MODEL 5
REMARK VINA RESULT:      -8.1      2.499      4.043
REMARK  5 active torsions:
REMARK  status: ('A' for Active; 'I' for Inactive)
REMARK    1  A    between atoms: C13_19  and  O2_2 
REMARK    2  A    between atoms: C5_11  and  O2_2 
REMARK    3  A    between atoms: C7_13  and  N1_6 
REMARK       I    between atoms: C8_14  and  N1_6 
REMARK    4  A    between atoms: C3_9  and  C8_14 
REMARK    5  A    between atoms: C12_18  and  C7_13 
ROOT
HETATM    1  O1  UNK     1      18.222   1.757  32.241  1.00  0.00    -0.271 OA
HETATM    2  O5  UNK     1      18.157   3.502  30.767  1.00  0.00    -0.259 OA
HETATM    3  C1  UNK     1      18.351   2.205  34.627  1.00  0.00     0.002 A 
HETATM    4  C2  UNK     1      18.289   1.300  33.572  1.00  0.00     0.123 A 
HETATM    5  C3  UNK     1      18.284   4.058  33.067  1.00  0.00     0.108 A 
HETATM    6  C4  UNK     1      18.348   3.630  34.334  1.00  0.00     0.037 A 
HETATM    7  C5  UNK     1      18.288  -0.077  33.785  1.00  0.00     0.103 A 
HETATM    8  C6  UNK     1      18.416   1.713  35.933  1.00  0.00     0.014 A 
HETATM    9  C9  UNK     1      18.216   3.114  31.929  1.00  0.00     0.304 A 
HETATM   10  C10 UNK     1      18.353  -0.559  35.090  1.00  0.00     0.040 A 
HETATM   11  C11 UNK     1      18.417   0.334  36.163  1.00  0.00     0.004 A 
ENDROOT
BRANCH   5  12
HETATM   12  C8  UNK     1      18.286   5.513  32.873  1.00  0.00     0.258 C 
HETATM   13  O4  UNK     1      19.131   6.221  33.419  1.00  0.00    -0.267 OA
HETATM   14  N1  UNK     1      17.267   5.946  32.045  1.00  0.00    -0.351 N 
HETATM   15  H7  UNK     1      16.608   5.281  31.654  1.00  0.00     0.163 HD
BRANCH  14  16
HETATM   16  C7  UNK     1      17.064   7.337  31.708  1.00  0.00     0.187 C 
BRANCH  16  17
HETATM   17  C12 UNK     1      16.003   7.973  32.559  1.00  0.00     0.070 A 
HETATM   18  O3  UNK     1      15.621   9.201  32.171  1.00  0.00    -0.325 OA
HETATM   19  C17 UNK     1      14.670   9.583  33.064  1.00  0.00     0.142 A 
HETATM   20  C15 UNK     1      14.463   8.596  34.000  1.00  0.00     0.027 A 
HETATM   21  C14 UNK     1      15.343   7.541  33.660  1.00  0.00     0.036 A 
ENDBRANCH  16  17
ENDBRANCH  14  16
ENDBRANCH   5  12
BRANCH   7  22
HETATM   22  O2  UNK     1      18.227  -0.949  32.744  1.00  0.00    -0.349 OA
BRANCH  22  23
HETATM   23  C13 UNK     1      19.422  -1.661  32.421  1.00  0.00     0.171 C 
HETATM   24  C16 UNK     1      19.981  -1.122  31.122  1.00  0.00     0.034 C 
ENDBRANCH  22  23
ENDBRANCH   7  22
TORSDOF 5
ENDMDL
MODEL 6
REMARK VINA RESULT:      -7.9      2.443      3.919
REMARK  5 active torsions:
REMARK  status: ('A' for Active; 'I' for Inactive)
REMARK    1  A    between atoms: C13_19  and  O2_2 
REMARK    2  A    between atoms: C5_11  and  O2_2 
REMARK    3  A    between atoms: C7_13  and  N1_6 
REMARK       I    between atoms: C8_14  and  N1_6 
REMARK    4  A    between atoms: C3_9  and  C8_14 
REMARK    5  A    between atoms: C12_18  and  C7_13 
ROOT
HETATM    1  O1  UNK     1      18.303   1.750  31.784  1.00  0.00    -0.271 OA
HETATM    2  O5  UNK     1      18.240   3.312  30.117  1.00  0.00    -0.259 OA
HETATM    3  C1  UNK     1      18.323   2.474  34.105  1.00  0.00     0.002 A 
HETATM    4  C2  UNK     1      18.331   1.452  33.160  1.00  0.00     0.123 A 
HETATM    5  C3  UNK     1      18.257   4.132  32.339  1.00  0.00     0.108 A 
HETATM    6  C4  UNK     1      18.285   3.855  33.649  1.00  0.00     0.037 A 
HETATM    7  C5  UNK     1      18.367   0.110  33.531  1.00  0.00     0.103 A 
HETATM    8  C6  UNK     1      18.351   2.138  35.461  1.00  0.00     0.014 A 
HETATM    9  C9  UNK     1      18.265   3.061  31.317  1.00  0.00     0.304 A 
HETATM   10  C10 UNK     1      18.396  -0.216  34.885  1.00  0.00     0.040 A 
HETATM   11  C11 UNK     1      18.388   0.796  35.849  1.00  0.00     0.004 A 
ENDROOT
BRANCH   5  12
HETATM   12  C8  UNK     1      18.220   5.554  31.978  1.00  0.00     0.258 C 
HETATM   13  O4  UNK     1      18.898   5.987  31.048  1.00  0.00    -0.267 OA
HETATM   14  N1  UNK     1      17.371   6.291  32.782  1.00  0.00    -0.351 N 
HETATM   15  H7  UNK     1      16.863   5.841  33.538  1.00  0.00     0.163 HD
BRANCH  14  16
HETATM   16  C7  UNK     1      17.169   7.713  32.620  1.00  0.00     0.187 C 
BRANCH  16  17
HETATM   17  C12 UNK     1      18.204   8.515  33.357  1.00  0.00     0.070 A 
HETATM   18  O3  UNK     1      18.009   9.844  33.346  1.00  0.00    -0.325 OA
HETATM   19  C17 UNK     1      19.042  10.366  34.057  1.00  0.00     0.142 A 
HETATM   20  C15 UNK     1      19.874   9.367  34.507  1.00  0.00     0.027 A 
HETATM   21  C14 UNK     1      19.314   8.152  34.042  1.00  0.00     0.036 A 
ENDBRANCH  16  17
ENDBRANCH  14  16
ENDBRANCH   5  12
BRANCH   7  22
HETATM   22  O2  UNK     1      18.376  -0.878  32.597  1.00  0.00    -0.349 OA
BRANCH  22  23
HETATM   23  C13 UNK     1      19.566  -1.658  32.486  1.00  0.00     0.171 C 
HETATM   24  C16 UNK     1      20.207  -1.389  31.141  1.00  0.00     0.034 C 
ENDBRANCH  22  23
ENDBRANCH   7  22
TORSDOF 5
ENDMDL
MODEL 7
REMARK VINA RESULT:      -7.9      3.645      8.840
REMARK  5 active torsions:
REMARK  status: ('A' for Active; 'I' for Inactive)
REMARK    1  A    between atoms: C13_19  and  O2_2 
REMARK    2  A    between atoms: C5_11  and  O2_2 
REMARK    3  A    between atoms: C7_13  and  N1_6 
REMARK       I    between atoms: C8_14  and  N1_6 
REMARK    4  A    between atoms: C3_9  and  C8_14 
REMARK    5  A    between atoms: C12_18  and  C7_13 
ROOT
HETATM    1  O1  UNK     1      16.819   7.751  32.877  1.00  0.00    -0.271 OA
HETATM    2  O5  UNK     1      15.800   5.877  32.059  1.00  0.00    -0.259 OA
HETATM    3  C1  UNK     1      19.145   7.643  33.579  1.00  0.00     0.002 A 
HETATM    4  C2  UNK     1      17.971   8.369  33.402  1.00  0.00     0.123 A 
HETATM    5  C3  UNK     1      18.066   5.653  32.713  1.00  0.00     0.108 A 
HETATM    6  C4  UNK     1      19.163   6.235  33.212  1.00  0.00     0.037 A 
HETATM    7  C5  UNK     1      17.888   9.720  33.733  1.00  0.00     0.103 A 
HETATM    8  C6  UNK     1      20.266   8.291  34.102  1.00  0.00     0.014 A 
HETATM    9  C9  UNK     1      16.807   6.407  32.516  1.00  0.00     0.304 A 
HETATM   10  C10 UNK     1      19.010  10.358  34.254  1.00  0.00     0.040 A 
HETATM   11  C11 UNK     1      20.198   9.645  34.439  1.00  0.00     0.004 A 
ENDROOT
BRANCH   5  12
HETATM   12  C8  UNK     1      18.183   4.230  32.374  1.00  0.00     0.258 C 
HETATM   13  O4  UNK     1      18.365   3.871  31.212  1.00  0.00    -0.267 OA
HETATM   14  N1  UNK     1      18.063   3.403  33.476  1.00  0.00    -0.351 N 
HETATM   15  H7  UNK     1      17.898   3.798  34.396  1.00  0.00     0.163 HD
BRANCH  14  16
HETATM   16  C7  UNK     1      18.143   1.962  33.392  1.00  0.00     0.187 C 
BRANCH  16  17
HETATM   17  C12 UNK     1      17.448   1.293  34.543  1.00  0.00     0.070 A 
HETATM   18  O3  UNK     1      16.270   0.720  34.242  1.00  0.00    -0.325 OA
HETATM   19  C17 UNK     1      15.822   0.183  35.407  1.00  0.00     0.142 A 
HETATM   20  C15 UNK     1      16.717   0.421  36.425  1.00  0.00     0.027 A 
HETATM   21  C14 UNK     1      17.783   1.151  35.847  1.00  0.00     0.036 A 
ENDBRANCH  16  17
ENDBRANCH  14  16
ENDBRANCH   5  12
BRANCH   7  22
HETATM   22  O2  UNK     1      16.734  10.417  33.556  1.00  0.00    -0.349 OA
BRANCH  22  23
HETATM   23  C13 UNK     1      16.020  10.802  34.730  1.00  0.00     0.171 C 
HETATM   24  C16 UNK     1      14.745   9.992  34.820  1.00  0.00     0.034 C 
ENDBRANCH  22  23
ENDBRANCH   7  22
TORSDOF 5
ENDMDL
MODEL 8
REMARK VINA RESULT:      -7.8      4.446     10.372
REMARK  5 active torsions:
REMARK  status: ('A' for Active; 'I' for Inactive)
REMARK    1  A    between atoms: C13_19  and  O2_2 
REMARK    2  A    between atoms: C5_11  and  O2_2 
REMARK    3  A    between atoms: C7_13  and  N1_6 
REMARK       I    between atoms: C8_14  and  N1_6 
REMARK    4  A    between atoms: C3_9  and  C8_14 
REMARK    5  A    between atoms: C12_18  and  C7_13 
ROOT
HETATM    1  O1  UNK     1      19.445  -1.122  34.592  1.00  0.00    -0.271 OA
HETATM    2  O5  UNK     1      20.500  -3.103  34.161  1.00  0.00    -0.259 OA
HETATM    3  C1  UNK     1      18.438  -0.749  36.774  1.00  0.00     0.002 A 
HETATM    4  C2  UNK     1      18.732  -0.302  35.489  1.00  0.00     0.123 A 
HETATM    5  C3  UNK     1      19.555  -2.851  36.319  1.00  0.00     0.108 A 
HETATM    6  C4  UNK     1      18.877  -2.076  37.175  1.00  0.00     0.037 A 
HETATM    7  C5  UNK     1      18.341   0.958  35.043  1.00  0.00     0.103 A 
HETATM    8  C6  UNK     1      17.730   0.093  37.634  1.00  0.00     0.014 A 
HETATM    9  C9  UNK     1      19.880  -2.396  34.948  1.00  0.00     0.304 A 
HETATM   10  C10 UNK     1      17.634   1.791  35.907  1.00  0.00     0.040 A 
HETATM   11  C11 UNK     1      17.329   1.360  37.200  1.00  0.00     0.004 A 
ENDROOT
BRANCH   5  12
HETATM   12  C8  UNK     1      19.954  -4.173  36.816  1.00  0.00     0.258 C 
HETATM   13  O4  UNK     1      21.106  -4.383  37.193  1.00  0.00    -0.267 OA
HETATM   14  N1  UNK     1      18.920  -5.089  36.799  1.00  0.00    -0.351 N 
HETATM   15  H7  UNK     1      18.004  -4.821  36.453  1.00  0.00     0.163 HD
BRANCH  14  16
HETATM   16  C7  UNK     1      19.072  -6.458  37.239  1.00  0.00     0.187 C 
BRANCH  16  17
HETATM   17  C12 UNK     1      19.982  -7.240  36.337  1.00  0.00     0.070 A 
HETATM   18  O3  UNK     1      20.906  -7.986  36.968  1.00  0.00    -0.325 OA
HETATM   19  C17 UNK     1      21.609  -8.600  35.980  1.00  0.00     0.142 A 
HETATM   20  C15 UNK     1      21.125  -8.237  34.744  1.00  0.00     0.027 A 
HETATM   21  C14 UNK     1      20.055  -7.344  34.989  1.00  0.00     0.036 A 
ENDBRANCH  16  17
ENDBRANCH  14  16
ENDBRANCH   5  12
BRANCH   7  22
HETATM   22  O2  UNK     1      18.634   1.381  33.784  1.00  0.00    -0.349 OA
BRANCH  22  23
HETATM   23  C13 UNK     1      18.193   2.688  33.418  1.00  0.00     0.171 C 
HETATM   24  C16 UNK     1      18.209   2.808  31.909  1.00  0.00     0.034 C 
ENDBRANCH  22  23
ENDBRANCH   7  22
TORSDOF 5
ENDMDL
MODEL 9
REMARK VINA RESULT:      -7.8     15.669     17.847
REMARK  5 active torsions:
REMARK  status: ('A' for Active; 'I' for Inactive)
REMARK    1  A    between atoms: C13_19  and  O2_2 
REMARK    2  A    between atoms: C5_11  and  O2_2 
REMARK    3  A    between atoms: C7_13  and  N1_6 
REMARK       I    between atoms: C8_14  and  N1_6 
REMARK    4  A    between atoms: C3_9  and  C8_14 
REMARK    5  A    between atoms: C12_18  and  C7_13 
ROOT
HETATM    1  O1  UNK     1      18.629  -4.604  13.482  1.00  0.00    -0.271 OA
HETATM    2  O5  UNK     1      17.564  -4.780  15.496  1.00  0.00    -0.259 OA
HETATM    3  C1  UNK     1      19.633  -2.485  12.837  1.00  0.00     0.002 A 
HETATM    4  C2  UNK     1      19.345  -3.818  12.558  1.00  0.00     0.123 A 
HETATM    5  C3  UNK     1      18.503  -2.669  14.973  1.00  0.00     0.108 A 
HETATM    6  C4  UNK     1      19.182  -1.917  14.098  1.00  0.00     0.037 A 
HETATM    7  C5  UNK     1      19.747  -4.422  11.369  1.00  0.00     0.103 A 
HETATM    8  C6  UNK     1      20.345  -1.739  11.896  1.00  0.00     0.014 A 
HETATM    9  C9  UNK     1      18.186  -4.088  14.697  1.00  0.00     0.304 A 
HETATM   10  C10 UNK     1      20.457  -3.670  10.435  1.00  0.00     0.040 A 
HETATM   11  C11 UNK     1      20.756  -2.331  10.698  1.00  0.00     0.004 A 
ENDROOT
BRANCH   5  12
HETATM   12  C8  UNK     1      18.092  -2.006  16.216  1.00  0.00     0.258 C 
HETATM   13  O4  UNK     1      16.938  -2.104  16.632  1.00  0.00    -0.267 OA
HETATM   14  N1  UNK     1      19.118  -1.299  16.814  1.00  0.00    -0.351 N 
HETATM   15  H7  UNK     1      20.036  -1.267  16.382  1.00  0.00     0.163 HD
BRANCH  14  16
HETATM   16  C7  UNK     1      18.954  -0.562  18.046  1.00  0.00     0.187 C 
BRANCH  16  17
HETATM   17  C12 UNK     1      19.085   0.919  17.837  1.00  0.00     0.070 A 
HETATM   18  O3  UNK     1      19.267   1.300  16.560  1.00  0.00    -0.325 OA
HETATM   19  C17 UNK     1      19.358   2.655  16.598  1.00  0.00     0.142 A 
HETATM   20  C15 UNK     1      19.233   3.112  17.890  1.00  0.00     0.027 A 
HETATM   21  C14 UNK     1      19.053   1.964  18.697  1.00  0.00     0.036 A 
ENDBRANCH  16  17
ENDBRANCH  14  16
ENDBRANCH   5  12
BRANCH   7  22
HETATM   22  O2  UNK     1      19.458  -5.725  11.109  1.00  0.00    -0.349 OA
BRANCH  22  23
HETATM   23  C13 UNK     1      20.558  -6.631  11.022  1.00  0.00     0.171 C 
HETATM   24  C16 UNK     1      20.866  -7.166  12.404  1.00  0.00     0.034 C 
ENDBRANCH  22  23
ENDBRANCH   7  22
TORSDOF 5
ENDMDL
MODEL 10
REMARK VINA RESULT:      -7.8      4.707     10.493
REMARK  5 active torsions:
REMARK  status: ('A' for Active; 'I' for Inactive)
REMARK    1  A    between atoms: C13_19  and  O2_2 
REMARK    2  A    between atoms: C5_11  and  O2_2 
REMARK    3  A    between atoms: C7_13  and  N1_6 
REMARK       I    between atoms: C8_14  and  N1_6 
REMARK    4  A    between atoms: C3_9  and  C8_14 
REMARK    5  A    between atoms: C12_18  and  C7_13 
ROOT
HETATM    1  O1  UNK     1      19.697  -0.954  34.879  1.00  0.00    -0.271 OA
HETATM    2  O5  UNK     1      20.689  -2.791  33.948  1.00  0.00    -0.259 OA
HETATM    3  C1  UNK     1      18.520  -1.169  36.995  1.00  0.00     0.002 A 
HETATM    4  C2  UNK     1      18.948  -0.386  35.928  1.00  0.00     0.123 A 
HETATM    5  C3  UNK     1      19.569  -3.119  36.010  1.00  0.00     0.108 A 
HETATM    6  C4  UNK     1      18.857  -2.584  37.010  1.00  0.00     0.037 A 
HETATM    7  C5  UNK     1      18.660   0.975  35.854  1.00  0.00     0.103 A 
HETATM    8  C6  UNK     1      17.780  -0.569  38.017  1.00  0.00     0.014 A 
HETATM    9  C9  UNK     1      20.036  -2.305  34.866  1.00  0.00     0.304 A 
HETATM   10  C10 UNK     1      17.921   1.565  36.877  1.00  0.00     0.040 A 
HETATM   11  C11 UNK     1      17.482   0.795  37.956  1.00  0.00     0.004 A 
ENDROOT
BRANCH   5  12
HETATM   12  C8  UNK     1      19.858  -4.554  36.115  1.00  0.00     0.258 C 
HETATM   13  O4  UNK     1      20.214  -5.200  35.130  1.00  0.00    -0.267 OA
HETATM   14  N1  UNK     1      19.682  -5.046  37.395  1.00  0.00    -0.351 N 
HETATM   15  H7  UNK     1      19.370  -4.432  38.141  1.00  0.00     0.163 HD
BRANCH  14  16
HETATM   16  C7  UNK     1      19.904  -6.431  37.744  1.00  0.00     0.187 C 
BRANCH  16  17
HETATM   17  C12 UNK     1      21.176  -6.618  38.520  1.00  0.00     0.070 A 
HETATM   18  O3  UNK     1      22.159  -5.751  38.220  1.00  0.00    -0.325 OA
HETATM   19  C17 UNK     1      23.200  -6.093  39.024  1.00  0.00     0.142 A 
HETATM   20  C15 UNK     1      22.865  -7.166  39.818  1.00  0.00     0.027 A 
HETATM   21  C14 UNK     1      21.532  -7.504  39.480  1.00  0.00     0.036 A 
ENDBRANCH  16  17
ENDBRANCH  14  16
ENDBRANCH   5  12
BRANCH   7  22
HETATM   22  O2  UNK     1      19.084   1.728  34.805  1.00  0.00    -0.349 OA
BRANCH  22  23
HETATM   23  C13 UNK     1      18.105   2.108  33.838  1.00  0.00     0.171 C 
HETATM   24  C16 UNK     1      18.237   3.589  33.558  1.00  0.00     0.034 C 
ENDBRANCH  22  23
ENDBRANCH   7  22
TORSDOF 5
ENDMDL
