MODEL 1
REMARK VINA RESULT:      -9.8      0.000      0.000
REMARK  7 active torsions:
REMARK  status: ('A' for Active; 'I' for Inactive)
REMARK    1  A    between atoms: C15_22  and  O3_3 
REMARK    2  A    between atoms: C23_30  and  O3_3 
REMARK    3  A    between atoms: C5_12  and  N1_5 
REMARK    4  A    between atoms: C6_13  and  N2_6 
REMARK    5  A    between atoms: C16_23  and  N3_7 
REMARK       I    between atoms: C9_16  and  N3_7 
REMARK    6  A    between atoms: C5_12  and  C7_14 
REMARK    7  A    between atoms: C6_13  and  C9_16 
ROOT
HETATM    1  N1  UNK     1      19.254  -3.201  36.374  1.00  0.00     0.096 N 
HETATM    2  N2  UNK     1      18.397  -0.486  35.877  1.00  0.00     0.100 N 
HETATM    3  C1  UNK     1      18.732  -2.357  37.456  1.00  0.00     0.303 C 
HETATM    4  C2  UNK     1      19.895  -2.377  35.343  1.00  0.00     0.303 C 
HETATM    5  C3  UNK     1      17.755  -1.311  36.908  1.00  0.00     0.303 C 
HETATM    6  C4  UNK     1      18.918  -1.330  34.796  1.00  0.00     0.303 C 
ENDROOT
BRANCH   1   7
HETATM    7  C5  UNK     1      20.188  -4.197  36.898  1.00  0.00     0.312 C 
BRANCH   7   8
HETATM    8  C7  UNK     1      19.641  -5.580  36.815  1.00  0.00    -0.011 A 
HETATM    9  C10 UNK     1      18.552  -5.850  36.081  1.00  0.00     0.092 A 
HETATM   10  C13 UNK     1      17.976  -7.201  35.968  1.00  0.00     0.288 A 
HETATM   11  O1  UNK     1      18.616  -8.212  36.666  1.00  0.00    -0.275 OA
HETATM   12  O4  UNK     1      16.978  -7.411  35.287  1.00  0.00    -0.260 OA
HETATM   13  C11 UNK     1      19.762  -7.958  37.446  1.00  0.00     0.090 A 
HETATM   14  C8  UNK     1      20.297  -6.673  37.544  1.00  0.00     0.009 A 
HETATM   15  C14 UNK     1      20.323  -9.052  38.107  1.00  0.00     0.041 A 
HETATM   16  C12 UNK     1      21.438  -6.503  38.340  1.00  0.00     0.051 A 
HETATM   17  C15 UNK     1      22.011  -7.590  39.009  1.00  0.00     0.069 A 
HETATM   18  C17 UNK     1      21.455  -8.863  38.893  1.00  0.00     0.039 A 
BRANCH  17  19
HETATM   19  O3  UNK     1      23.120  -7.404  39.779  1.00  0.00    -0.351 OA
BRANCH  19  20
HETATM   20  C23 UNK     1      24.299  -6.950  39.117  1.00  0.00     0.171 C 
HETATM   21  C26 UNK     1      25.147  -8.149  38.747  1.00  0.00     0.034 C 
ENDBRANCH  19  20
ENDBRANCH  17  19
ENDBRANCH   7   8
ENDBRANCH   1   7
BRANCH   2  22
HETATM   22  C6  UNK     1      17.465   0.511  35.355  1.00  0.00     0.375 C 
BRANCH  22  23
HETATM   23  C9  UNK     1      18.245   1.648  34.718  1.00  0.00     0.250 C 
HETATM   24  O2  UNK     1      19.221   2.163  35.255  1.00  0.00    -0.271 OA
HETATM   25  N3  UNK     1      17.691   1.980  33.483  1.00  0.00    -0.326 N 
HETATM   26  H15 UNK     1      16.874   1.458  33.175  1.00  0.00     0.169 HD
BRANCH  25  27
HETATM   27  C16 UNK     1      18.126   2.981  32.582  1.00  0.00     0.035 A 
HETATM   28  C18 UNK     1      18.245   4.303  33.011  1.00  0.00     0.037 A 
HETATM   29  C20 UNK     1      18.674   5.289  32.124  1.00  0.00    -0.054 A 
HETATM   30  C21 UNK     1      18.984   4.954  30.806  1.00  0.00    -0.056 A 
HETATM   31  C24 UNK     1      18.794   6.697  32.606  1.00  0.00     0.049 C 
HETATM   32  C22 UNK     1      18.865   3.632  30.376  1.00  0.00     0.009 A 
HETATM   33  C25 UNK     1      19.446   5.992  29.837  1.00  0.00     0.049 C 
HETATM   34  C19 UNK     1      18.436   2.645  31.264  1.00  0.00     0.030 A 
ENDBRANCH  25  27
ENDBRANCH  22  23
ENDBRANCH   2  22
TORSDOF 7
ENDMDL
MODEL 2
REMARK VINA RESULT:      -9.2      5.797      8.823
REMARK  7 active torsions:
REMARK  status: ('A' for Active; 'I' for Inactive)
REMARK    1  A    between atoms: C15_22  and  O3_3 
REMARK    2  A    between atoms: C23_30  and  O3_3 
REMARK    3  A    between atoms: C5_12  and  N1_5 
REMARK    4  A    between atoms: C6_13  and  N2_6 
REMARK    5  A    between atoms: C16_23  and  N3_7 
REMARK       I    between atoms: C9_16  and  N3_7 
REMARK    6  A    between atoms: C5_12  and  C7_14 
REMARK    7  A    between atoms: C6_13  and  C9_16 
ROOT
HETATM    1  N1  UNK     1      18.893   3.641  31.323  1.00  0.00     0.096 N 
HETATM    2  N2  UNK     1      19.257   6.301  32.394  1.00  0.00     0.100 N 
HETATM    3  C1  UNK     1      19.324   4.754  30.469  1.00  0.00     0.303 C 
HETATM    4  C2  UNK     1      18.070   4.135  32.434  1.00  0.00     0.303 C 
HETATM    5  C3  UNK     1      20.082   5.807  31.284  1.00  0.00     0.303 C 
HETATM    6  C4  UNK     1      18.828   5.189  33.249  1.00  0.00     0.303 C 
ENDROOT
BRANCH   1   7
HETATM    7  C5  UNK     1      18.168   2.639  30.545  1.00  0.00     0.312 C 
BRANCH   7   8
HETATM    8  C7  UNK     1      18.893   1.339  30.486  1.00  0.00    -0.011 A 
HETATM    9  C10 UNK     1      19.528   0.951  29.371  1.00  0.00     0.092 A 
HETATM   10  C13 UNK     1      20.258  -0.324  29.264  1.00  0.00     0.288 A 
HETATM   11  O1  UNK     1      20.266  -1.132  30.390  1.00  0.00    -0.275 OA
HETATM   12  O4  UNK     1      20.827  -0.646  28.227  1.00  0.00    -0.260 OA
HETATM   13  C11 UNK     1      19.607  -0.752  31.576  1.00  0.00     0.090 A 
HETATM   14  C8  UNK     1      18.919   0.460  31.662  1.00  0.00     0.009 A 
HETATM   15  C14 UNK     1      19.680  -1.645  32.646  1.00  0.00     0.041 A 
HETATM   16  C12 UNK     1      18.290   0.764  32.876  1.00  0.00     0.051 A 
HETATM   17  C15 UNK     1      18.354  -0.121  33.957  1.00  0.00     0.069 A 
HETATM   18  C17 UNK     1      19.048  -1.324  33.843  1.00  0.00     0.039 A 
BRANCH  17  19
HETATM   19  O3  UNK     1      17.735   0.194  35.129  1.00  0.00    -0.351 OA
BRANCH  19  20
HETATM   20  C23 UNK     1      17.951   1.507  35.643  1.00  0.00     0.171 C 
HETATM   21  C26 UNK     1      17.440   1.568  37.067  1.00  0.00     0.034 C 
ENDBRANCH  19  20
ENDBRANCH  17  19
ENDBRANCH   7   8
ENDBRANCH   1   7
BRANCH   2  22
HETATM   22  C6  UNK     1      19.981   7.305  33.172  1.00  0.00     0.375 C 
BRANCH  22  23
HETATM   23  C9  UNK     1      19.015   8.013  34.106  1.00  0.00     0.250 C 
HETATM   24  O2  UNK     1      19.163   8.029  35.324  1.00  0.00    -0.271 OA
HETATM   25  N3  UNK     1      17.989   8.612  33.376  1.00  0.00    -0.326 N 
HETATM   26  H15 UNK     1      18.005   8.504  32.364  1.00  0.00     0.169 HD
BRANCH  25  27
HETATM   27  C16 UNK     1      16.898   9.363  33.874  1.00  0.00     0.035 A 
HETATM   28  C18 UNK     1      17.069  10.705  34.208  1.00  0.00     0.037 A 
HETATM   29  C20 UNK     1      15.993  11.445  34.698  1.00  0.00    -0.054 A 
HETATM   30  C21 UNK     1      14.745  10.841  34.854  1.00  0.00    -0.056 A 
HETATM   31  C24 UNK     1      16.200  12.882  35.048  1.00  0.00     0.049 C 
HETATM   32  C22 UNK     1      14.575   9.497  34.521  1.00  0.00     0.009 A 
HETATM   33  C25 UNK     1      13.578  11.612  35.377  1.00  0.00     0.049 C 
HETATM   34  C19 UNK     1      15.650   8.758  34.030  1.00  0.00     0.030 A 
ENDBRANCH  25  27
ENDBRANCH  22  23
ENDBRANCH   2  22
TORSDOF 7
ENDMDL
MODEL 3
REMARK VINA RESULT:      -9.0      2.391     11.706
REMARK  7 active torsions:
REMARK  status: ('A' for Active; 'I' for Inactive)
REMARK    1  A    between atoms: C15_22  and  O3_3 
REMARK    2  A    between atoms: C23_30  and  O3_3 
REMARK    3  A    between atoms: C5_12  and  N1_5 
REMARK    4  A    between atoms: C6_13  and  N2_6 
REMARK    5  A    between atoms: C16_23  and  N3_7 
REMARK       I    between atoms: C9_16  and  N3_7 
REMARK    6  A    between atoms: C5_12  and  C7_14 
REMARK    7  A    between atoms: C6_13  and  C9_16 
ROOT
HETATM    1  N1  UNK     1      17.861   1.519  35.133  1.00  0.00     0.096 N 
HETATM    2  N2  UNK     1      18.197  -0.996  36.519  1.00  0.00     0.100 N 
HETATM    3  C1  UNK     1      18.932   0.584  34.768  1.00  0.00     0.303 C 
HETATM    4  C2  UNK     1      17.522   1.381  36.555  1.00  0.00     0.303 C 
HETATM    5  C3  UNK     1      18.534  -0.859  35.097  1.00  0.00     0.303 C 
HETATM    6  C4  UNK     1      17.125  -0.062  36.884  1.00  0.00     0.303 C 
ENDROOT
BRANCH   1   7
HETATM    7  C5  UNK     1      18.243   2.894  34.821  1.00  0.00     0.312 C 
BRANCH   7   8
HETATM    8  C7  UNK     1      18.301   3.143  33.354  1.00  0.00    -0.011 A 
HETATM    9  C10 UNK     1      18.321   2.127  32.480  1.00  0.00     0.092 A 
HETATM   10  C13 UNK     1      18.377   2.324  31.021  1.00  0.00     0.288 A 
HETATM   11  O1  UNK     1      18.409   3.633  30.570  1.00  0.00    -0.275 OA
HETATM   12  O4  UNK     1      18.394   1.369  30.251  1.00  0.00    -0.260 OA
HETATM   13  C11 UNK     1      18.390   4.722  31.464  1.00  0.00     0.090 A 
HETATM   14  C8  UNK     1      18.337   4.521  32.844  1.00  0.00     0.009 A 
HETATM   15  C14 UNK     1      18.427   5.997  30.898  1.00  0.00     0.041 A 
HETATM   16  C12 UNK     1      18.321   5.655  33.666  1.00  0.00     0.051 A 
HETATM   17  C15 UNK     1      18.359   6.940  33.113  1.00  0.00     0.069 A 
HETATM   18  C17 UNK     1      18.412   7.111  31.731  1.00  0.00     0.039 A 
BRANCH  17  19
HETATM   19  O3  UNK     1      18.344   8.030  33.930  1.00  0.00    -0.351 OA
BRANCH  19  20
HETATM   20  C23 UNK     1      19.408   8.147  34.874  1.00  0.00     0.171 C 
HETATM   21  C26 UNK     1      20.307   9.293  34.462  1.00  0.00     0.034 C 
ENDBRANCH  19  20
ENDBRANCH  17  19
ENDBRANCH   7   8
ENDBRANCH   1   7
BRANCH   2  22
HETATM   22  C6  UNK     1      17.816  -2.371  36.832  1.00  0.00     0.375 C 
BRANCH  22  23
HETATM   23  C9  UNK     1      19.057  -3.247  36.853  1.00  0.00     0.250 C 
HETATM   24  O2  UNK     1      20.179  -2.800  37.070  1.00  0.00    -0.271 OA
HETATM   25  N3  UNK     1      18.715  -4.574  36.598  1.00  0.00    -0.326 N 
HETATM   26  H15 UNK     1      17.734  -4.786  36.433  1.00  0.00     0.169 HD
BRANCH  25  27
HETATM   27  C16 UNK     1      19.580  -5.692  36.532  1.00  0.00     0.035 A 
HETATM   28  C18 UNK     1      20.218  -6.151  37.684  1.00  0.00     0.037 A 
HETATM   29  C20 UNK     1      21.070  -7.253  37.618  1.00  0.00    -0.054 A 
HETATM   30  C21 UNK     1      21.284  -7.897  36.400  1.00  0.00    -0.056 A 
HETATM   31  C24 UNK     1      21.741  -7.726  38.865  1.00  0.00     0.049 C 
HETATM   32  C22 UNK     1      20.646  -7.438  35.247  1.00  0.00     0.009 A 
HETATM   33  C25 UNK     1      22.191  -9.079  36.304  1.00  0.00     0.049 C 
HETATM   34  C19 UNK     1      19.794  -6.336  35.312  1.00  0.00     0.030 A 
ENDBRANCH  25  27
ENDBRANCH  22  23
ENDBRANCH   2  22
TORSDOF 7
ENDMDL
MODEL 4
REMARK VINA RESULT:      -8.7      2.536     11.248
REMARK  7 active torsions:
REMARK  status: ('A' for Active; 'I' for Inactive)
REMARK    1  A    between atoms: C15_22  and  O3_3 
REMARK    2  A    between atoms: C23_30  and  O3_3 
REMARK    3  A    between atoms: C5_12  and  N1_5 
REMARK    4  A    between atoms: C6_13  and  N2_6 
REMARK    5  A    between atoms: C16_23  and  N3_7 
REMARK       I    between atoms: C9_16  and  N3_7 
REMARK    6  A    between atoms: C5_12  and  C7_14 
REMARK    7  A    between atoms: C6_13  and  C9_16 
ROOT
HETATM    1  N1  UNK     1      19.043  -0.973  34.477  1.00  0.00     0.096 N 
HETATM    2  N2  UNK     1      19.680  -2.877  36.556  1.00  0.00     0.100 N 
HETATM    3  C1  UNK     1      18.041  -1.384  35.467  1.00  0.00     0.303 C 
HETATM    4  C2  UNK     1      20.014  -2.051  34.251  1.00  0.00     0.303 C 
HETATM    5  C3  UNK     1      18.710  -1.799  36.782  1.00  0.00     0.303 C 
HETATM    6  C4  UNK     1      20.683  -2.467  35.566  1.00  0.00     0.303 C 
ENDROOT
BRANCH   1   7
HETATM    7  C5  UNK     1      18.403  -0.581  33.223  1.00  0.00     0.312 C 
BRANCH   7   8
HETATM    8  C7  UNK     1      18.384   0.897  33.039  1.00  0.00    -0.011 A 
HETATM    9  C10 UNK     1      18.254   1.723  34.087  1.00  0.00     0.092 A 
HETATM   10  C13 UNK     1      18.231   3.190  33.955  1.00  0.00     0.288 A 
HETATM   11  O1  UNK     1      18.352   3.702  32.673  1.00  0.00    -0.275 OA
HETATM   12  O4  UNK     1      18.109   3.915  34.937  1.00  0.00    -0.260 OA
HETATM   13  C11 UNK     1      18.490   2.859  31.552  1.00  0.00     0.090 A 
HETATM   14  C8  UNK     1      18.510   1.471  31.692  1.00  0.00     0.009 A 
HETATM   15  C14 UNK     1      18.603   3.485  30.310  1.00  0.00     0.041 A 
HETATM   16  C12 UNK     1      18.650   0.702  30.529  1.00  0.00     0.051 A 
HETATM   17  C15 UNK     1      18.764   1.315  29.276  1.00  0.00     0.069 A 
HETATM   18  C17 UNK     1      18.740   2.705  29.166  1.00  0.00     0.039 A 
BRANCH  17  19
HETATM   19  O3  UNK     1      18.898   0.550  28.157  1.00  0.00    -0.351 OA
BRANCH  19  20
HETATM   20  C23 UNK     1      19.477  -0.743  28.323  1.00  0.00     0.171 C 
HETATM   21  C26 UNK     1      20.888  -0.587  28.850  1.00  0.00     0.034 C 
ENDBRANCH  19  20
ENDBRANCH  17  19
ENDBRANCH   7   8
ENDBRANCH   1   7
BRANCH   2  22
HETATM   22  C6  UNK     1      20.319  -3.272  37.810  1.00  0.00     0.375 C 
BRANCH  22  23
HETATM   23  C9  UNK     1      20.822  -4.701  37.692  1.00  0.00     0.250 C 
HETATM   24  O2  UNK     1      22.016  -4.984  37.696  1.00  0.00    -0.271 OA
HETATM   25  N3  UNK     1      19.749  -5.583  37.590  1.00  0.00    -0.326 N 
HETATM   26  H15 UNK     1      18.810  -5.189  37.599  1.00  0.00     0.169 HD
BRANCH  25  27
HETATM   27  C16 UNK     1      19.797  -6.992  37.465  1.00  0.00     0.035 A 
HETATM   28  C18 UNK     1      20.568  -7.578  36.462  1.00  0.00     0.037 A 
HETATM   29  C20 UNK     1      20.616  -8.967  36.339  1.00  0.00    -0.054 A 
HETATM   30  C21 UNK     1      19.893  -9.769  37.221  1.00  0.00    -0.056 A 
HETATM   31  C24 UNK     1      21.449  -9.571  35.257  1.00  0.00     0.049 C 
HETATM   32  C22 UNK     1      19.121  -9.183  38.225  1.00  0.00     0.009 A 
HETATM   33  C25 UNK     1      19.929 -11.258  37.111  1.00  0.00     0.049 C 
HETATM   34  C19 UNK     1      19.073  -7.795  38.348  1.00  0.00     0.030 A 
ENDBRANCH  25  27
ENDBRANCH  22  23
ENDBRANCH   2  22
TORSDOF 7
ENDMDL
MODEL 5
REMARK VINA RESULT:      -8.7      8.005     10.700
REMARK  7 active torsions:
REMARK  status: ('A' for Active; 'I' for Inactive)
REMARK    1  A    between atoms: C15_22  and  O3_3 
REMARK    2  A    between atoms: C23_30  and  O3_3 
REMARK    3  A    between atoms: C5_12  and  N1_5 
REMARK    4  A    between atoms: C6_13  and  N2_6 
REMARK    5  A    between atoms: C16_23  and  N3_7 
REMARK       I    between atoms: C9_16  and  N3_7 
REMARK    6  A    between atoms: C5_12  and  C7_14 
REMARK    7  A    between atoms: C6_13  and  C9_16 
ROOT
HETATM    1  N1  UNK     1      25.620  -8.184  38.413  1.00  0.00     0.096 N 
HETATM    2  N2  UNK     1      28.502  -7.992  38.304  1.00  0.00     0.100 N 
HETATM    3  C1  UNK     1      26.313  -6.935  38.749  1.00  0.00     0.303 C 
HETATM    4  C2  UNK     1      26.472  -9.341  38.710  1.00  0.00     0.303 C 
HETATM    5  C3  UNK     1      27.649  -6.835  38.005  1.00  0.00     0.303 C 
HETATM    6  C4  UNK     1      27.808  -9.240  37.966  1.00  0.00     0.303 C 
ENDROOT
BRANCH   1   7
HETATM    7  C5  UNK     1      24.347  -8.279  39.125  1.00  0.00     0.312 C 
BRANCH   7   8
HETATM    8  C7  UNK     1      23.202  -7.810  38.297  1.00  0.00    -0.011 A 
HETATM    9  C10 UNK     1      22.580  -6.654  38.568  1.00  0.00     0.092 A 
HETATM   10  C13 UNK     1      21.444  -6.148  37.778  1.00  0.00     0.288 A 
HETATM   11  O1  UNK     1      21.028  -6.933  36.714  1.00  0.00    -0.275 OA
HETATM   12  O4  UNK     1      20.900  -5.085  38.055  1.00  0.00    -0.260 OA
HETATM   13  C11 UNK     1      21.660  -8.154  36.406  1.00  0.00     0.090 A 
HETATM   14  C8  UNK     1      22.736  -8.620  37.163  1.00  0.00     0.009 A 
HETATM   15  C14 UNK     1      21.155  -8.861  35.314  1.00  0.00     0.041 A 
HETATM   16  C12 UNK     1      23.309  -9.843  36.792  1.00  0.00     0.051 A 
HETATM   17  C15 UNK     1      22.814 -10.564  35.700  1.00  0.00     0.069 A 
HETATM   18  C17 UNK     1      21.738 -10.074  34.962  1.00  0.00     0.039 A 
BRANCH  17  19
HETATM   19  O3  UNK     1      23.386 -11.752  35.356  1.00  0.00    -0.351 OA
BRANCH  19  20
HETATM   20  C23 UNK     1      24.643 -12.063  35.956  1.00  0.00     0.171 C 
HETATM   21  C26 UNK     1      24.709 -13.553  36.213  1.00  0.00     0.034 C 
ENDBRANCH  19  20
ENDBRANCH  17  19
ENDBRANCH   7   8
ENDBRANCH   1   7
BRANCH   2  22
HETATM   22  C6  UNK     1      29.775  -7.896  37.593  1.00  0.00     0.375 C 
BRANCH  22  23
HETATM   23  C9  UNK     1      29.574  -7.132  36.296  1.00  0.00     0.250 C 
HETATM   24  O2  UNK     1      29.964  -5.979  36.139  1.00  0.00    -0.271 OA
HETATM   25  N3  UNK     1      28.909  -7.929  35.365  1.00  0.00    -0.326 N 
HETATM   26  H15 UNK     1      28.647  -8.870  35.651  1.00  0.00     0.169 HD
BRANCH  25  27
HETATM   27  C16 UNK     1      28.536  -7.586  34.044  1.00  0.00     0.035 A 
HETATM   28  C18 UNK     1      28.752  -8.487  33.001  1.00  0.00     0.037 A 
HETATM   29  C20 UNK     1      28.384  -8.149  31.699  1.00  0.00    -0.054 A 
HETATM   30  C21 UNK     1      27.798  -6.910  31.440  1.00  0.00    -0.056 A 
HETATM   31  C24 UNK     1      28.625  -9.129  30.600  1.00  0.00     0.049 C 
HETATM   32  C22 UNK     1      27.582  -6.008  32.483  1.00  0.00     0.009 A 
HETATM   33  C25 UNK     1      27.395  -6.525  30.055  1.00  0.00     0.049 C 
HETATM   34  C19 UNK     1      27.951  -6.346  33.785  1.00  0.00     0.030 A 
ENDBRANCH  25  27
ENDBRANCH  22  23
ENDBRANCH   2  22
TORSDOF 7
ENDMDL
MODEL 6
REMARK VINA RESULT:      -8.6      8.213     11.981
REMARK  7 active torsions:
REMARK  status: ('A' for Active; 'I' for Inactive)
REMARK    1  A    between atoms: C15_22  and  O3_3 
REMARK    2  A    between atoms: C23_30  and  O3_3 
REMARK    3  A    between atoms: C5_12  and  N1_5 
REMARK    4  A    between atoms: C6_13  and  N2_6 
REMARK    5  A    between atoms: C16_23  and  N3_7 
REMARK       I    between atoms: C9_16  and  N3_7 
REMARK    6  A    between atoms: C5_12  and  C7_14 
REMARK    7  A    between atoms: C6_13  and  C9_16 
ROOT
HETATM    1  N1  UNK     1      28.226  -9.578  38.309  1.00  0.00     0.096 N 
HETATM    2  N2  UNK     1      25.894 -10.499  36.870  1.00  0.00     0.100 N 
HETATM    3  C1  UNK     1      27.101 -10.214  39.007  1.00  0.00     0.303 C 
HETATM    4  C2  UNK     1      27.757  -8.892  37.099  1.00  0.00     0.303 C 
HETATM    5  C3  UNK     1      26.363 -11.185  38.079  1.00  0.00     0.303 C 
HETATM    6  C4  UNK     1      27.018  -9.864  36.172  1.00  0.00     0.303 C 
ENDROOT
BRANCH   1   7
HETATM    7  C5  UNK     1      28.927  -8.650  39.194  1.00  0.00     0.312 C 
BRANCH   7   8
HETATM    8  C7  UNK     1      28.595  -7.228  38.895  1.00  0.00    -0.011 A 
HETATM    9  C10 UNK     1      27.339  -6.773  39.007  1.00  0.00     0.092 A 
HETATM   10  C13 UNK     1      26.963  -5.377  38.723  1.00  0.00     0.288 A 
HETATM   11  O1  UNK     1      27.982  -4.526  38.326  1.00  0.00    -0.275 OA
HETATM   12  O4  UNK     1      25.803  -4.996  38.835  1.00  0.00    -0.260 OA
HETATM   13  C11 UNK     1      29.312  -4.976  38.199  1.00  0.00     0.090 A 
HETATM   14  C8  UNK     1      29.653  -6.302  38.471  1.00  0.00     0.009 A 
HETATM   15  C14 UNK     1      30.255  -4.032  37.790  1.00  0.00     0.041 A 
HETATM   16  C12 UNK     1      30.997  -6.670  38.320  1.00  0.00     0.051 A 
HETATM   17  C15 UNK     1      31.953  -5.735  37.911  1.00  0.00     0.069 A 
HETATM   18  C17 UNK     1      31.584  -4.418  37.646  1.00  0.00     0.039 A 
BRANCH  17  19
HETATM   19  O3  UNK     1      33.254  -6.114  37.770  1.00  0.00    -0.351 OA
BRANCH  19  20
HETATM   20  C23 UNK     1      33.532  -7.131  36.809  1.00  0.00     0.171 C 
HETATM   21  C26 UNK     1      33.833  -6.479  35.476  1.00  0.00     0.034 C 
ENDBRANCH  19  20
ENDBRANCH  17  19
ENDBRANCH   7   8
ENDBRANCH   1   7
BRANCH   2  22
HETATM   22  C6  UNK     1      25.191 -11.425  35.986  1.00  0.00     0.375 C 
BRANCH  22  23
HETATM   23  C9  UNK     1      23.735 -11.009  35.871  1.00  0.00     0.250 C 
HETATM   24  O2  UNK     1      22.916 -11.638  35.208  1.00  0.00    -0.271 OA
HETATM   25  N3  UNK     1      23.504  -9.853  36.615  1.00  0.00    -0.326 N 
HETATM   26  H15 UNK     1      24.294  -9.445  37.111  1.00  0.00     0.169 HD
BRANCH  25  27
HETATM   27  C16 UNK     1      22.285  -9.151  36.766  1.00  0.00     0.035 A 
HETATM   28  C18 UNK     1      21.789  -8.877  38.040  1.00  0.00     0.037 A 
HETATM   29  C20 UNK     1      20.587  -8.185  38.188  1.00  0.00    -0.054 A 
HETATM   30  C21 UNK     1      19.881  -7.766  37.061  1.00  0.00    -0.056 A 
HETATM   31  C24 UNK     1      20.077  -7.903  39.563  1.00  0.00     0.049 C 
HETATM   32  C22 UNK     1      20.377  -8.040  35.786  1.00  0.00     0.009 A 
HETATM   33  C25 UNK     1      18.593  -7.023  37.194  1.00  0.00     0.049 C 
HETATM   34  C19 UNK     1      21.578  -8.732  35.638  1.00  0.00     0.030 A 
ENDBRANCH  25  27
ENDBRANCH  22  23
ENDBRANCH   2  22
TORSDOF 7
ENDMDL
MODEL 7
REMARK VINA RESULT:      -8.5      2.434     11.613
REMARK  7 active torsions:
REMARK  status: ('A' for Active; 'I' for Inactive)
REMARK    1  A    between atoms: C15_22  and  O3_3 
REMARK    2  A    between atoms: C23_30  and  O3_3 
REMARK    3  A    between atoms: C5_12  and  N1_5 
REMARK    4  A    between atoms: C6_13  and  N2_6 
REMARK    5  A    between atoms: C16_23  and  N3_7 
REMARK       I    between atoms: C9_16  and  N3_7 
REMARK    6  A    between atoms: C5_12  and  C7_14 
REMARK    7  A    between atoms: C6_13  and  C9_16 
ROOT
HETATM    1  N1  UNK     1      18.567   1.781  34.461  1.00  0.00     0.096 N 
HETATM    2  N2  UNK     1      19.023  -1.018  35.017  1.00  0.00     0.100 N 
HETATM    3  C1  UNK     1      19.044   1.333  35.775  1.00  0.00     0.303 C 
HETATM    4  C2  UNK     1      17.755   0.736  33.826  1.00  0.00     0.303 C 
HETATM    5  C3  UNK     1      19.836   0.027  35.652  1.00  0.00     0.303 C 
HETATM    6  C4  UNK     1      18.547  -0.571  33.703  1.00  0.00     0.303 C 
ENDROOT
BRANCH   1   7
HETATM    7  C5  UNK     1      17.810   3.025  34.581  1.00  0.00     0.312 C 
BRANCH   7   8
HETATM    8  C7  UNK     1      18.393   4.121  33.757  1.00  0.00    -0.011 A 
HETATM    9  C10 UNK     1      18.865   5.238  34.328  1.00  0.00     0.092 A 
HETATM   10  C13 UNK     1      19.451   6.348  33.556  1.00  0.00     0.288 A 
HETATM   11  O1  UNK     1      19.499   6.192  32.180  1.00  0.00    -0.275 OA
HETATM   12  O4  UNK     1      19.873   7.356  34.112  1.00  0.00    -0.260 OA
HETATM   13  C11 UNK     1      19.010   5.029  31.552  1.00  0.00     0.090 A 
HETATM   14  C8  UNK     1      18.457   3.986  32.296  1.00  0.00     0.009 A 
HETATM   15  C14 UNK     1      19.108   4.982  30.160  1.00  0.00     0.041 A 
HETATM   16  C12 UNK     1      17.992   2.864  31.597  1.00  0.00     0.051 A 
HETATM   17  C15 UNK     1      18.084   2.803  30.202  1.00  0.00     0.069 A 
HETATM   18  C17 UNK     1      18.641   3.860  29.484  1.00  0.00     0.039 A 
BRANCH  17  19
HETATM   19  O3  UNK     1      17.626   1.703  29.541  1.00  0.00    -0.351 OA
BRANCH  19  20
HETATM   20  C23 UNK     1      18.507   1.104  28.593  1.00  0.00     0.171 C 
HETATM   21  C26 UNK     1      19.624   0.401  29.335  1.00  0.00     0.034 C 
ENDBRANCH  19  20
ENDBRANCH  17  19
ENDBRANCH   7   8
ENDBRANCH   1   7
BRANCH   2  22
HETATM   22  C6  UNK     1      19.779  -2.264  34.899  1.00  0.00     0.375 C 
BRANCH  22  23
HETATM   23  C9  UNK     1      19.607  -3.082  36.168  1.00  0.00     0.250 C 
HETATM   24  O2  UNK     1      19.273  -2.582  37.237  1.00  0.00    -0.271 OA
HETATM   25  N3  UNK     1      19.878  -4.425  35.915  1.00  0.00    -0.326 N 
HETATM   26  H15 UNK     1      20.149  -4.683  34.969  1.00  0.00     0.169 HD
BRANCH  25  27
HETATM   27  C16 UNK     1      19.830  -5.503  36.831  1.00  0.00     0.035 A 
HETATM   28  C18 UNK     1      20.898  -5.730  37.699  1.00  0.00     0.037 A 
HETATM   29  C20 UNK     1      20.851  -6.792  38.602  1.00  0.00    -0.054 A 
HETATM   30  C21 UNK     1      19.734  -7.627  38.637  1.00  0.00    -0.056 A 
HETATM   31  C24 UNK     1      22.006  -7.015  39.521  1.00  0.00     0.049 C 
HETATM   32  C22 UNK     1      18.666  -7.400  37.769  1.00  0.00     0.009 A 
HETATM   33  C25 UNK     1      19.659  -8.770  39.595  1.00  0.00     0.049 C 
HETATM   34  C19 UNK     1      18.713  -6.338  36.866  1.00  0.00     0.030 A 
ENDBRANCH  25  27
ENDBRANCH  22  23
ENDBRANCH   2  22
TORSDOF 7
ENDMDL
MODEL 8
REMARK VINA RESULT:      -8.5     11.959     17.157
REMARK  7 active torsions:
REMARK  status: ('A' for Active; 'I' for Inactive)
REMARK    1  A    between atoms: C15_22  and  O3_3 
REMARK    2  A    between atoms: C23_30  and  O3_3 
REMARK    3  A    between atoms: C5_12  and  N1_5 
REMARK    4  A    between atoms: C6_13  and  N2_6 
REMARK    5  A    between atoms: C16_23  and  N3_7 
REMARK       I    between atoms: C9_16  and  N3_7 
REMARK    6  A    between atoms: C5_12  and  C7_14 
REMARK    7  A    between atoms: C6_13  and  C9_16 
ROOT
HETATM    1  N1  UNK     1      32.374  -5.794  35.860  1.00  0.00     0.096 N 
HETATM    2  N2  UNK     1      35.030  -6.365  34.871  1.00  0.00     0.100 N 
HETATM    3  C1  UNK     1      32.600  -6.812  34.826  1.00  0.00     0.303 C 
HETATM    4  C2  UNK     1      33.399  -4.747  35.782  1.00  0.00     0.303 C 
HETATM    5  C3  UNK     1      34.004  -7.412  34.950  1.00  0.00     0.303 C 
HETATM    6  C4  UNK     1      34.804  -5.348  35.906  1.00  0.00     0.303 C 
ENDROOT
BRANCH   1   7
HETATM    7  C5  UNK     1      31.035  -5.220  35.738  1.00  0.00     0.312 C 
BRANCH   7   8
HETATM    8  C7  UNK     1      30.254  -5.342  37.001  1.00  0.00    -0.011 A 
HETATM    9  C10 UNK     1      30.301  -4.384  37.938  1.00  0.00     0.092 A 
HETATM   10  C13 UNK     1      29.547  -4.458  39.201  1.00  0.00     0.288 A 
HETATM   11  O1  UNK     1      28.765  -5.585  39.393  1.00  0.00    -0.275 OA
HETATM   12  O4  UNK     1      29.615  -3.563  40.036  1.00  0.00    -0.260 OA
HETATM   13  C11 UNK     1      28.696  -6.609  38.427  1.00  0.00     0.090 A 
HETATM   14  C8  UNK     1      29.416  -6.525  37.235  1.00  0.00     0.009 A 
HETATM   15  C14 UNK     1      27.877  -7.699  38.729  1.00  0.00     0.041 A 
HETATM   16  C12 UNK     1      29.295  -7.585  36.326  1.00  0.00     0.051 A 
HETATM   17  C15 UNK     1      28.478  -8.684  36.614  1.00  0.00     0.069 A 
HETATM   18  C17 UNK     1      27.770  -8.741  37.813  1.00  0.00     0.039 A 
BRANCH  17  19
HETATM   19  O3  UNK     1      28.374  -9.704  35.718  1.00  0.00    -0.351 OA
BRANCH  19  20
HETATM   20  C23 UNK     1      29.503  -9.947  34.879  1.00  0.00     0.171 C 
HETATM   21  C26 UNK     1      29.026 -10.127  33.453  1.00  0.00     0.034 C 
ENDBRANCH  19  20
ENDBRANCH  17  19
ENDBRANCH   7   8
ENDBRANCH   1   7
BRANCH   2  22
HETATM   22  C6  UNK     1      36.369  -6.938  34.990  1.00  0.00     0.375 C 
BRANCH  22  23
HETATM   23  C9  UNK     1      36.674  -7.770  33.757  1.00  0.00     0.250 C 
HETATM   24  O2  UNK     1      36.625  -7.311  32.620  1.00  0.00    -0.271 OA
HETATM   25  N3  UNK     1      37.005  -9.073  34.124  1.00  0.00    -0.326 N 
HETATM   26  H15 UNK     1      36.997  -9.301  35.116  1.00  0.00     0.169 HD
BRANCH  25  27
HETATM   27  C16 UNK     1      37.352 -10.149  33.273  1.00  0.00     0.035 A 
HETATM   28  C18 UNK     1      38.601 -10.174  32.653  1.00  0.00     0.037 A 
HETATM   29  C20 UNK     1      38.943 -11.235  31.814  1.00  0.00    -0.054 A 
HETATM   30  C21 UNK     1      38.035 -12.271  31.596  1.00  0.00    -0.056 A 
HETATM   31  C24 UNK     1      40.286 -11.241  31.163  1.00  0.00     0.049 C 
HETATM   32  C22 UNK     1      36.785 -12.246  32.216  1.00  0.00     0.009 A 
HETATM   33  C25 UNK     1      38.378 -13.418  30.703  1.00  0.00     0.049 C 
HETATM   34  C19 UNK     1      36.443 -11.185  33.054  1.00  0.00     0.030 A 
ENDBRANCH  25  27
ENDBRANCH  22  23
ENDBRANCH   2  22
TORSDOF 7
ENDMDL
MODEL 9
REMARK VINA RESULT:      -8.4     26.870     29.816
REMARK  7 active torsions:
REMARK  status: ('A' for Active; 'I' for Inactive)
REMARK    1  A    between atoms: C15_22  and  O3_3 
REMARK    2  A    between atoms: C23_30  and  O3_3 
REMARK    3  A    between atoms: C5_12  and  N1_5 
REMARK    4  A    between atoms: C6_13  and  N2_6 
REMARK    5  A    between atoms: C16_23  and  N3_7 
REMARK       I    between atoms: C9_16  and  N3_7 
REMARK    6  A    between atoms: C5_12  and  C7_14 
REMARK    7  A    between atoms: C6_13  and  C9_16 
ROOT
HETATM    1  N1  UNK     1      11.840   7.044   7.323  1.00  0.00     0.096 N 
HETATM    2  N2  UNK     1       9.375   5.747   8.096  1.00  0.00     0.100 N 
HETATM    3  C1  UNK     1      11.107   6.182   6.388  1.00  0.00     0.303 C 
HETATM    4  C2  UNK     1      11.606   6.617   8.708  1.00  0.00     0.303 C 
HETATM    5  C3  UNK     1       9.609   6.176   6.711  1.00  0.00     0.303 C 
HETATM    6  C4  UNK     1      10.107   6.610   9.030  1.00  0.00     0.303 C 
ENDROOT
BRANCH   1   7
HETATM    7  C5  UNK     1      13.269   7.047   7.015  1.00  0.00     0.312 C 
BRANCH   7   8
HETATM    8  C7  UNK     1      14.102   6.726   8.207  1.00  0.00    -0.011 A 
HETATM    9  C10 UNK     1      14.423   5.459   8.506  1.00  0.00     0.092 A 
HETATM   10  C13 UNK     1      15.244   5.092   9.672  1.00  0.00     0.288 A 
HETATM   11  O1  UNK     1      15.686   6.132  10.474  1.00  0.00    -0.275 OA
HETATM   12  O4  UNK     1      15.517   3.921   9.915  1.00  0.00    -0.260 OA
HETATM   13  C11 UNK     1      15.365   7.473  10.187  1.00  0.00     0.090 A 
HETATM   14  C8  UNK     1      14.585   7.806   9.078  1.00  0.00     0.009 A 
HETATM   15  C14 UNK     1      15.863   8.437  11.064  1.00  0.00     0.041 A 
HETATM   16  C12 UNK     1      14.309   9.163   8.861  1.00  0.00     0.051 A 
HETATM   17  C15 UNK     1      14.802  10.141   9.732  1.00  0.00     0.069 A 
HETATM   18  C17 UNK     1      15.578   9.779  10.832  1.00  0.00     0.039 A 
BRANCH  17  19
HETATM   19  O3  UNK     1      14.521  11.454   9.504  1.00  0.00    -0.351 OA
BRANCH  19  20
HETATM   20  C23 UNK     1      15.607  12.287   9.099  1.00  0.00     0.171 C 
HETATM   21  C26 UNK     1      15.958  11.972   7.660  1.00  0.00     0.034 C 
ENDBRANCH  19  20
ENDBRANCH  17  19
ENDBRANCH   7   8
ENDBRANCH   1   7
BRANCH   2  22
HETATM   22  C6  UNK     1       7.947   5.741   8.404  1.00  0.00     0.375 C 
BRANCH  22  23
HETATM   23  C9  UNK     1       7.669   4.725   9.497  1.00  0.00     0.250 C 
HETATM   24  O2  UNK     1       8.389   3.751   9.694  1.00  0.00    -0.271 OA
HETATM   25  N3  UNK     1       6.519   5.076  10.201  1.00  0.00    -0.326 N 
HETATM   26  H15 UNK     1       6.026   5.918   9.912  1.00  0.00     0.169 HD
BRANCH  25  27
HETATM   27  C16 UNK     1       5.928   4.390  11.289  1.00  0.00     0.035 A 
HETATM   28  C18 UNK     1       6.068   4.885  12.585  1.00  0.00     0.037 A 
HETATM   29  C20 UNK     1       5.485   4.209  13.657  1.00  0.00    -0.054 A 
HETATM   30  C21 UNK     1       4.762   3.037  13.432  1.00  0.00    -0.056 A 
HETATM   31  C24 UNK     1       5.648   4.758  15.036  1.00  0.00     0.049 C 
HETATM   32  C22 UNK     1       4.623   2.542  12.136  1.00  0.00     0.009 A 
HETATM   33  C25 UNK     1       4.129   2.296  14.563  1.00  0.00     0.049 C 
HETATM   34  C19 UNK     1       5.205   3.218  11.064  1.00  0.00     0.030 A 
ENDBRANCH  25  27
ENDBRANCH  22  23
ENDBRANCH   2  22
TORSDOF 7
ENDMDL
MODEL 10
REMARK VINA RESULT:      -8.4     11.070     13.791
REMARK  7 active torsions:
REMARK  status: ('A' for Active; 'I' for Inactive)
REMARK    1  A    between atoms: C15_22  and  O3_3 
REMARK    2  A    between atoms: C23_30  and  O3_3 
REMARK    3  A    between atoms: C5_12  and  N1_5 
REMARK    4  A    between atoms: C6_13  and  N2_6 
REMARK    5  A    between atoms: C16_23  and  N3_7 
REMARK       I    between atoms: C9_16  and  N3_7 
REMARK    6  A    between atoms: C5_12  and  C7_14 
REMARK    7  A    between atoms: C6_13  and  C9_16 
ROOT
HETATM    1  N1  UNK     1      31.493  -9.519  36.424  1.00  0.00     0.096 N 
HETATM    2  N2  UNK     1      32.698 -10.458  33.971  1.00  0.00     0.100 N 
HETATM    3  C1  UNK     1      32.680  -8.866  35.860  1.00  0.00     0.303 C 
HETATM    4  C2  UNK     1      31.465 -10.939  36.057  1.00  0.00     0.303 C 
HETATM    5  C3  UNK     1      32.725  -9.037  34.338  1.00  0.00     0.303 C 
HETATM    6  C4  UNK     1      31.511 -11.110  34.534  1.00  0.00     0.303 C 
ENDROOT
BRANCH   1   7
HETATM    7  C5  UNK     1      31.453  -9.357  37.876  1.00  0.00     0.312 C 
BRANCH   7   8
HETATM    8  C7  UNK     1      30.234  -8.630  38.328  1.00  0.00    -0.011 A 
HETATM    9  C10 UNK     1      29.140  -9.296  38.727  1.00  0.00     0.092 A 
HETATM   10  C13 UNK     1      27.912  -8.622  39.182  1.00  0.00     0.288 A 
HETATM   11  O1  UNK     1      27.926  -7.236  39.186  1.00  0.00    -0.275 OA
HETATM   12  O4  UNK     1      26.930  -9.263  39.539  1.00  0.00    -0.260 OA
HETATM   13  C11 UNK     1      29.061  -6.509  38.772  1.00  0.00     0.090 A 
HETATM   14  C8  UNK     1      30.218  -7.162  38.342  1.00  0.00     0.009 A 
HETATM   15  C14 UNK     1      28.962  -5.118  38.815  1.00  0.00     0.041 A 
HETATM   16  C12 UNK     1      31.302  -6.367  37.947  1.00  0.00     0.051 A 
HETATM   17  C15 UNK     1      31.218  -4.972  37.985  1.00  0.00     0.069 A 
HETATM   18  C17 UNK     1      30.049  -4.347  38.418  1.00  0.00     0.039 A 
BRANCH  17  19
HETATM   19  O3  UNK     1      32.283  -4.217  37.595  1.00  0.00    -0.351 OA
BRANCH  19  20
HETATM   20  C23 UNK     1      32.197  -3.585  36.319  1.00  0.00     0.171 C 
HETATM   21  C26 UNK     1      32.896  -4.452  35.293  1.00  0.00     0.034 C 
ENDBRANCH  19  20
ENDBRANCH  17  19
ENDBRANCH   7   8
ENDBRANCH   1   7
BRANCH   2  22
HETATM   22  C6  UNK     1      32.740 -10.620  32.519  1.00  0.00     0.375 C 
BRANCH  22  23
HETATM   23  C9  UNK     1      31.908  -9.532  31.864  1.00  0.00     0.250 C 
HETATM   24  O2  UNK     1      32.409  -8.588  31.261  1.00  0.00    -0.271 OA
HETATM   25  N3  UNK     1      30.550  -9.783  32.054  1.00  0.00    -0.326 N 
HETATM   26  H15 UNK     1      30.293 -10.613  32.584  1.00  0.00     0.169 HD
BRANCH  25  27
HETATM   27  C16 UNK     1      29.456  -9.008  31.600  1.00  0.00     0.035 A 
HETATM   28  C18 UNK     1      29.031  -7.903  32.335  1.00  0.00     0.037 A 
HETATM   29  C20 UNK     1      27.953  -7.139  31.888  1.00  0.00    -0.054 A 
HETATM   30  C21 UNK     1      27.301  -7.482  30.703  1.00  0.00    -0.056 A 
HETATM   31  C24 UNK     1      27.516  -5.959  32.692  1.00  0.00     0.049 C 
HETATM   32  C22 UNK     1      27.726  -8.588  29.968  1.00  0.00     0.009 A 
HETATM   33  C25 UNK     1      26.145  -6.679  30.203  1.00  0.00     0.049 C 
HETATM   34  C19 UNK     1      28.804  -9.352  30.416  1.00  0.00     0.030 A 
ENDBRANCH  25  27
ENDBRANCH  22  23
ENDBRANCH   2  22
TORSDOF 7
ENDMDL
