MODEL 1
REMARK VINA RESULT:     -10.8      0.000      0.000
REMARK  5 active torsions:
REMARK  status: ('A' for Active; 'I' for Inactive)
REMARK    1  A    between atoms: C5_11  and  N1_4 
REMARK    2  A    between atoms: C6_12  and  N2_5 
REMARK    3  A    between atoms: C15_21  and  N3_6 
REMARK       I    between atoms: C9_15  and  N3_6 
REMARK    4  A    between atoms: C5_11  and  C7_13 
REMARK    5  A    between atoms: C6_12  and  C9_15 
ROOT
HETATM    1  N1  UNK     1      19.259  -3.121  36.130  1.00  0.00     0.096 N 
HETATM    2  N2  UNK     1      18.310  -0.518  35.303  1.00  0.00     0.100 N 
HETATM    3  C1  UNK     1      20.040  -2.279  35.214  1.00  0.00     0.303 C 
HETATM    4  C2  UNK     1      18.444  -2.288  37.023  1.00  0.00     0.303 C 
HETATM    5  C3  UNK     1      19.123  -1.352  34.410  1.00  0.00     0.303 C 
HETATM    6  C4  UNK     1      17.528  -1.359  36.219  1.00  0.00     0.303 C 
ENDROOT
BRANCH   1   7
HETATM    7  C5  UNK     1      20.135  -4.003  36.899  1.00  0.00     0.312 C 
BRANCH   7   8
HETATM    8  C7  UNK     1      20.156  -5.389  36.353  1.00  0.00    -0.011 A 
HETATM    9  C10 UNK     1      20.249  -5.613  35.034  1.00  0.00     0.092 A 
HETATM   10  C13 UNK     1      20.274  -6.964  34.448  1.00  0.00     0.288 A 
HETATM   11  O1  UNK     1      20.196  -8.027  35.333  1.00  0.00    -0.275 OA
HETATM   12  O3  UNK     1      20.360  -7.130  33.237  1.00  0.00    -0.260 OA
HETATM   13  C11 UNK     1      20.099  -7.824  36.724  1.00  0.00     0.090 A 
HETATM   14  C8  UNK     1      20.075  -6.537  37.264  1.00  0.00     0.006 A 
HETATM   15  C14 UNK     1      20.026  -8.968  37.519  1.00  0.00     0.045 A 
HETATM   16  C12 UNK     1      19.976  -6.419  38.657  1.00  0.00     0.015 A 
HETATM   17  C17 UNK     1      19.902  -7.558  39.468  1.00  0.00     0.007 A 
HETATM   18  C16 UNK     1      19.928  -8.830  38.900  1.00  0.00    -0.059 A 
HETATM   19  C20 UNK     1      19.849 -10.038  39.770  1.00  0.00     0.048 C 
ENDBRANCH   7   8
ENDBRANCH   1   7
BRANCH   2  20
HETATM   20  C6  UNK     1      17.435   0.366  34.535  1.00  0.00     0.375 C 
BRANCH  20  21
HETATM   21  C9  UNK     1      18.178   1.647  34.201  1.00  0.00     0.250 C 
HETATM   22  O2  UNK     1      19.031   2.129  34.940  1.00  0.00    -0.271 OA
HETATM   23  N3  UNK     1      17.751   2.146  32.973  1.00  0.00    -0.325 N 
HETATM   24  H15 UNK     1      17.028   1.619  32.489  1.00  0.00     0.169 HD
BRANCH  23  25
HETATM   25  C15 UNK     1      18.198   3.315  32.313  1.00  0.00     0.041 A 
HETATM   26  C18 UNK     1      18.601   3.272  30.977  1.00  0.00    -0.035 A 
HETATM   27  C22 UNK     1      19.038   4.435  30.343  1.00  0.00     0.009 A 
HETATM   28  C23 UNK     1      18.574   1.995  30.202  1.00  0.00     0.050 C 
HETATM   29  C24 UNK     1      19.072   5.641  31.044  1.00  0.00     0.007 A 
HETATM   30  C21 UNK     1      18.670   5.683  32.379  1.00  0.00    -0.060 A 
HETATM   31  C19 UNK     1      18.233   4.520  33.013  1.00  0.00     0.037 A 
HETATM   32  C25 UNK     1      18.708   6.973  33.128  1.00  0.00     0.048 C 
ENDBRANCH  23  25
ENDBRANCH  20  21
ENDBRANCH   2  20
TORSDOF 5
ENDMDL
MODEL 2
REMARK VINA RESULT:     -10.4      2.245      2.821
REMARK  5 active torsions:
REMARK  status: ('A' for Active; 'I' for Inactive)
REMARK    1  A    between atoms: C5_11  and  N1_4 
REMARK    2  A    between atoms: C6_12  and  N2_5 
REMARK    3  A    between atoms: C15_21  and  N3_6 
REMARK       I    between atoms: C9_15  and  N3_6 
REMARK    4  A    between atoms: C5_11  and  C7_13 
REMARK    5  A    between atoms: C6_12  and  C9_15 
ROOT
HETATM    1  N1  UNK     1      19.539  -3.614  36.421  1.00  0.00     0.096 N 
HETATM    2  N2  UNK     1      18.967  -0.818  35.957  1.00  0.00     0.100 N 
HETATM    3  C1  UNK     1      20.595  -2.675  36.021  1.00  0.00     0.303 C 
HETATM    4  C2  UNK     1      18.491  -2.915  37.175  1.00  0.00     0.303 C 
HETATM    5  C3  UNK     1      20.014  -1.517  35.202  1.00  0.00     0.303 C 
HETATM    6  C4  UNK     1      17.910  -1.757  36.357  1.00  0.00     0.303 C 
ENDROOT
BRANCH   1   7
HETATM    7  C5  UNK     1      20.094  -4.716  37.205  1.00  0.00     0.312 C 
BRANCH   7   8
HETATM    8  C7  UNK     1      20.150  -5.986  36.427  1.00  0.00    -0.011 A 
HETATM    9  C10 UNK     1      20.379  -5.980  35.106  1.00  0.00     0.092 A 
HETATM   10  C13 UNK     1      20.444  -7.208  34.296  1.00  0.00     0.288 A 
HETATM   11  O1  UNK     1      20.254  -8.406  34.967  1.00  0.00    -0.275 OA
HETATM   12  O3  UNK     1      20.656  -7.164  33.090  1.00  0.00    -0.260 OA
HETATM   13  C11 UNK     1      20.012  -8.444  36.354  1.00  0.00     0.090 A 
HETATM   14  C8  UNK     1      19.953  -7.272  37.108  1.00  0.00     0.006 A 
HETATM   15  C14 UNK     1      19.835  -9.707  36.923  1.00  0.00     0.045 A 
HETATM   16  C12 UNK     1      19.707  -7.395  38.482  1.00  0.00     0.015 A 
HETATM   17  C17 UNK     1      19.528  -8.654  39.067  1.00  0.00     0.007 A 
HETATM   18  C16 UNK     1      19.592  -9.807  38.289  1.00  0.00    -0.059 A 
HETATM   19  C20 UNK     1      19.400 -11.145  38.918  1.00  0.00     0.048 C 
ENDBRANCH   7   8
ENDBRANCH   1   7
BRANCH   2  20
HETATM   20  C6  UNK     1      18.413   0.285  35.176  1.00  0.00     0.375 C 
BRANCH  20  21
HETATM   21  C9  UNK     1      18.211  -0.164  33.739  1.00  0.00     0.250 C 
HETATM   22  O2  UNK     1      17.361  -0.988  33.417  1.00  0.00    -0.271 OA
HETATM   23  N3  UNK     1      19.106   0.493  32.898  1.00  0.00    -0.325 N 
HETATM   24  H15 UNK     1      19.750   1.148  33.335  1.00  0.00     0.169 HD
BRANCH  23  25
HETATM   25  C15 UNK     1      19.237   0.352  31.496  1.00  0.00     0.041 A 
HETATM   26  C18 UNK     1      20.020  -0.666  30.950  1.00  0.00    -0.035 A 
HETATM   27  C22 UNK     1      20.136  -0.789  29.565  1.00  0.00     0.009 A 
HETATM   28  C23 UNK     1      20.747  -1.636  31.824  1.00  0.00     0.050 C 
HETATM   29  C24 UNK     1      19.468   0.103  28.727  1.00  0.00     0.007 A 
HETATM   30  C21 UNK     1      18.685   1.120  29.273  1.00  0.00    -0.060 A 
HETATM   31  C19 UNK     1      18.569   1.244  30.658  1.00  0.00     0.037 A 
HETATM   32  C25 UNK     1      17.971   2.075  28.376  1.00  0.00     0.048 C 
ENDBRANCH  23  25
ENDBRANCH  20  21
ENDBRANCH   2  20
TORSDOF 5
ENDMDL
MODEL 3
REMARK VINA RESULT:     -10.0      5.449     12.719
REMARK  5 active torsions:
REMARK  status: ('A' for Active; 'I' for Inactive)
REMARK    1  A    between atoms: C5_11  and  N1_4 
REMARK    2  A    between atoms: C6_12  and  N2_5 
REMARK    3  A    between atoms: C15_21  and  N3_6 
REMARK       I    between atoms: C9_15  and  N3_6 
REMARK    4  A    between atoms: C5_11  and  C7_13 
REMARK    5  A    between atoms: C6_12  and  C9_15 
ROOT
HETATM    1  N1  UNK     1      18.299   6.267  32.038  1.00  0.00     0.096 N 
HETATM    2  N2  UNK     1      19.004   4.130  30.222  1.00  0.00     0.100 N 
HETATM    3  C1  UNK     1      18.198   4.858  32.442  1.00  0.00     0.303 C 
HETATM    4  C2  UNK     1      19.355   6.438  31.033  1.00  0.00     0.303 C 
HETATM    5  C3  UNK     1      17.947   3.959  31.226  1.00  0.00     0.303 C 
HETATM    6  C4  UNK     1      19.105   5.538  29.818  1.00  0.00     0.303 C 
ENDROOT
BRANCH   1   7
HETATM    7  C5  UNK     1      18.542   7.122  33.198  1.00  0.00     0.312 C 
BRANCH   7   8
HETATM    8  C7  UNK     1      17.332   7.901  33.585  1.00  0.00    -0.011 A 
HETATM    9  C10 UNK     1      16.128   7.317  33.664  1.00  0.00     0.092 A 
HETATM   10  C13 UNK     1      14.905   8.046  34.042  1.00  0.00     0.288 A 
HETATM   11  O1  UNK     1      15.046   9.396  34.321  1.00  0.00    -0.275 OA
HETATM   12  O3  UNK     1      13.821   7.478  34.106  1.00  0.00    -0.260 OA
HETATM   13  C11 UNK     1      16.299  10.038  34.247  1.00  0.00     0.090 A 
HETATM   14  C8  UNK     1      17.449   9.334  33.886  1.00  0.00     0.006 A 
HETATM   15  C14 UNK     1      16.322  11.400  34.548  1.00  0.00     0.045 A 
HETATM   16  C12 UNK     1      18.655  10.044  33.834  1.00  0.00     0.015 A 
HETATM   17  C17 UNK     1      18.694  11.411  34.134  1.00  0.00     0.007 A 
HETATM   18  C16 UNK     1      17.530  12.087  34.491  1.00  0.00    -0.059 A 
HETATM   19  C20 UNK     1      17.578  13.543  34.809  1.00  0.00     0.048 C 
ENDBRANCH   7   8
ENDBRANCH   1   7
BRANCH   2  20
HETATM   20  C6  UNK     1      18.763   3.273  29.063  1.00  0.00     0.375 C 
BRANCH  20  21
HETATM   21  C9  UNK     1      18.503   1.852  29.531  1.00  0.00     0.250 C 
HETATM   22  O2  UNK     1      17.493   1.228  29.222  1.00  0.00    -0.271 OA
HETATM   23  N3  UNK     1      19.559   1.404  30.322  1.00  0.00    -0.325 N 
HETATM   24  H15 UNK     1      20.322   2.056  30.481  1.00  0.00     0.169 HD
BRANCH  23  25
HETATM   25  C15 UNK     1      19.695   0.141  30.945  1.00  0.00     0.041 A 
HETATM   26  C18 UNK     1      20.297  -0.925  30.275  1.00  0.00    -0.035 A 
HETATM   27  C22 UNK     1      20.423  -2.163  30.906  1.00  0.00     0.009 A 
HETATM   28  C23 UNK     1      20.815  -0.769  28.882  1.00  0.00     0.050 C 
HETATM   29  C24 UNK     1      19.948  -2.335  32.206  1.00  0.00     0.007 A 
HETATM   30  C21 UNK     1      19.346  -1.269  32.875  1.00  0.00    -0.060 A 
HETATM   31  C19 UNK     1      19.220  -0.031  32.245  1.00  0.00     0.037 A 
HETATM   32  C25 UNK     1      18.838  -1.454  34.266  1.00  0.00     0.048 C 
ENDBRANCH  23  25
ENDBRANCH  20  21
ENDBRANCH   2  20
TORSDOF 5
ENDMDL
MODEL 4
REMARK VINA RESULT:      -9.7      3.782     10.900
REMARK  5 active torsions:
REMARK  status: ('A' for Active; 'I' for Inactive)
REMARK    1  A    between atoms: C5_11  and  N1_4 
REMARK    2  A    between atoms: C6_12  and  N2_5 
REMARK    3  A    between atoms: C15_21  and  N3_6 
REMARK       I    between atoms: C9_15  and  N3_6 
REMARK    4  A    between atoms: C5_11  and  C7_13 
REMARK    5  A    between atoms: C6_12  and  C9_15 
ROOT
HETATM    1  N1  UNK     1      20.065  -3.930  36.662  1.00  0.00     0.096 N 
HETATM    2  N2  UNK     1      20.198  -6.765  37.212  1.00  0.00     0.100 N 
HETATM    3  C1  UNK     1      20.929  -4.461  37.724  1.00  0.00     0.303 C 
HETATM    4  C2  UNK     1      19.896  -4.922  35.593  1.00  0.00     0.303 C 
HETATM    5  C3  UNK     1      20.365  -5.773  38.281  1.00  0.00     0.303 C 
HETATM    6  C4  UNK     1      19.333  -6.234  36.150  1.00  0.00     0.303 C 
ENDROOT
BRANCH   1   7
HETATM    7  C5  UNK     1      20.605  -2.681  36.129  1.00  0.00     0.312 C 
BRANCH   7   8
HETATM    8  C7  UNK     1      19.618  -1.957  35.281  1.00  0.00    -0.011 A 
HETATM    9  C10 UNK     1      18.547  -1.358  35.822  1.00  0.00     0.092 A 
HETATM   10  C13 UNK     1      17.544  -0.632  35.024  1.00  0.00     0.288 A 
HETATM   11  O1  UNK     1      17.752  -0.587  33.655  1.00  0.00    -0.275 OA
HETATM   12  O3  UNK     1      16.578  -0.095  35.554  1.00  0.00    -0.260 OA
HETATM   13  C11 UNK     1      18.868  -1.207  33.057  1.00  0.00     0.090 A 
HETATM   14  C8  UNK     1      19.809  -1.893  33.826  1.00  0.00     0.006 A 
HETATM   15  C14 UNK     1      18.975  -1.099  31.670  1.00  0.00     0.045 A 
HETATM   16  C12 UNK     1      20.890  -2.483  33.157  1.00  0.00     0.015 A 
HETATM   17  C17 UNK     1      21.011  -2.382  31.766  1.00  0.00     0.007 A 
HETATM   18  C16 UNK     1      20.055  -1.691  31.024  1.00  0.00    -0.059 A 
HETATM   19  C20 UNK     1      20.190  -1.588  29.543  1.00  0.00     0.048 C 
ENDBRANCH   7   8
ENDBRANCH   1   7
BRANCH   2  20
HETATM   20  C6  UNK     1      19.659  -8.015  37.744  1.00  0.00     0.375 C 
BRANCH  20  21
HETATM   21  C9  UNK     1      20.774  -9.040  37.854  1.00  0.00     0.250 C 
HETATM   22  O2  UNK     1      20.756  -9.952  38.674  1.00  0.00    -0.271 OA
HETATM   23  N3  UNK     1      21.762  -8.780  36.906  1.00  0.00    -0.325 N 
HETATM   24  H15 UNK     1      21.619  -7.975  36.302  1.00  0.00     0.169 HD
BRANCH  23  25
HETATM   25  C15 UNK     1      22.958  -9.503  36.686  1.00  0.00     0.041 A 
HETATM   26  C18 UNK     1      22.950 -10.695  35.959  1.00  0.00    -0.035 A 
HETATM   27  C22 UNK     1      24.139 -11.393  35.751  1.00  0.00     0.009 A 
HETATM   28  C23 UNK     1      21.682 -11.245  35.391  1.00  0.00     0.050 C 
HETATM   29  C24 UNK     1      25.337 -10.901  36.270  1.00  0.00     0.007 A 
HETATM   30  C21 UNK     1      25.345  -9.710  36.997  1.00  0.00    -0.060 A 
HETATM   31  C19 UNK     1      24.155  -9.012  37.205  1.00  0.00     0.037 A 
HETATM   32  C25 UNK     1      26.626  -9.185  37.552  1.00  0.00     0.048 C 
ENDBRANCH  23  25
ENDBRANCH  20  21
ENDBRANCH   2  20
TORSDOF 5
ENDMDL
MODEL 5
REMARK VINA RESULT:      -9.4     11.646     13.805
REMARK  5 active torsions:
REMARK  status: ('A' for Active; 'I' for Inactive)
REMARK    1  A    between atoms: C5_11  and  N1_4 
REMARK    2  A    between atoms: C6_12  and  N2_5 
REMARK    3  A    between atoms: C15_21  and  N3_6 
REMARK       I    between atoms: C9_15  and  N3_6 
REMARK    4  A    between atoms: C5_11  and  C7_13 
REMARK    5  A    between atoms: C6_12  and  C9_15 
ROOT
HETATM    1  N1  UNK     1      32.330  -6.677  36.326  1.00  0.00     0.096 N 
HETATM    2  N2  UNK     1      33.297  -6.853  33.607  1.00  0.00     0.100 N 
HETATM    3  C1  UNK     1      33.464  -7.542  35.974  1.00  0.00     0.303 C 
HETATM    4  C2  UNK     1      32.261  -5.526  35.417  1.00  0.00     0.303 C 
HETATM    5  C3  UNK     1      33.364  -8.004  34.516  1.00  0.00     0.303 C 
HETATM    6  C4  UNK     1      32.164  -5.988  33.959  1.00  0.00     0.303 C 
ENDROOT
BRANCH   1   7
HETATM    7  C5  UNK     1      32.428  -6.235  37.716  1.00  0.00     0.312 C 
BRANCH   7   8
HETATM    8  C7  UNK     1      31.090  -5.975  38.318  1.00  0.00    -0.011 A 
HETATM    9  C10 UNK     1      30.733  -4.743  38.710  1.00  0.00     0.092 A 
HETATM   10  C13 UNK     1      29.423  -4.438  39.309  1.00  0.00     0.288 A 
HETATM   11  O1  UNK     1      28.546  -5.500  39.459  1.00  0.00    -0.275 OA
HETATM   12  O3  UNK     1      29.132  -3.299  39.655  1.00  0.00    -0.260 OA
HETATM   13  C11 UNK     1      28.892  -6.806  39.057  1.00  0.00     0.090 A 
HETATM   14  C8  UNK     1      30.137  -7.079  38.491  1.00  0.00     0.006 A 
HETATM   15  C14 UNK     1      27.929  -7.797  39.256  1.00  0.00     0.045 A 
HETATM   16  C12 UNK     1      30.405  -8.403  38.118  1.00  0.00     0.015 A 
HETATM   17  C17 UNK     1      29.450  -9.408  38.311  1.00  0.00     0.007 A 
HETATM   18  C16 UNK     1      28.214  -9.105  38.879  1.00  0.00    -0.059 A 
HETATM   19  C20 UNK     1      27.202 -10.180  39.082  1.00  0.00     0.048 C 
ENDBRANCH   7   8
ENDBRANCH   1   7
BRANCH   2  20
HETATM   20  C6  UNK     1      33.201  -7.295  32.217  1.00  0.00     0.375 C 
BRANCH  20  21
HETATM   21  C9  UNK     1      31.875  -8.002  32.001  1.00  0.00     0.250 C 
HETATM   22  O2  UNK     1      31.657  -9.139  32.409  1.00  0.00    -0.271 OA
HETATM   23  N3  UNK     1      30.996  -7.176  31.305  1.00  0.00    -0.325 N 
HETATM   24  H15 UNK     1      31.342  -6.258  31.039  1.00  0.00     0.169 HD
BRANCH  23  25
HETATM   25  C15 UNK     1      29.668  -7.465  30.911  1.00  0.00     0.041 A 
HETATM   26  C18 UNK     1      28.593  -6.750  31.441  1.00  0.00    -0.035 A 
HETATM   27  C22 UNK     1      27.291  -7.049  31.039  1.00  0.00     0.009 A 
HETATM   28  C23 UNK     1      28.807  -5.658  32.438  1.00  0.00     0.050 C 
HETATM   29  C24 UNK     1      27.063  -8.063  30.109  1.00  0.00     0.007 A 
HETATM   30  C21 UNK     1      28.138  -8.779  29.580  1.00  0.00    -0.060 A 
HETATM   31  C19 UNK     1      29.440  -8.479  29.981  1.00  0.00     0.037 A 
HETATM   32  C25 UNK     1      27.894  -9.863  28.586  1.00  0.00     0.048 C 
ENDBRANCH  23  25
ENDBRANCH  20  21
ENDBRANCH   2  20
TORSDOF 5
ENDMDL
MODEL 6
REMARK VINA RESULT:      -9.3     13.950     17.278
REMARK  5 active torsions:
REMARK  status: ('A' for Active; 'I' for Inactive)
REMARK    1  A    between atoms: C5_11  and  N1_4 
REMARK    2  A    between atoms: C6_12  and  N2_5 
REMARK    3  A    between atoms: C15_21  and  N3_6 
REMARK       I    between atoms: C9_15  and  N3_6 
REMARK    4  A    between atoms: C5_11  and  C7_13 
REMARK    5  A    between atoms: C6_12  and  C9_15 
ROOT
HETATM    1  N1  UNK     1      32.191  -5.928  35.988  1.00  0.00     0.096 N 
HETATM    2  N2  UNK     1      34.827  -6.428  34.910  1.00  0.00     0.100 N 
HETATM    3  C1  UNK     1      33.108  -4.826  35.674  1.00  0.00     0.303 C 
HETATM    4  C2  UNK     1      32.450  -7.077  35.111  1.00  0.00     0.303 C 
HETATM    5  C3  UNK     1      34.567  -5.281  35.788  1.00  0.00     0.303 C 
HETATM    6  C4  UNK     1      33.910  -7.531  35.224  1.00  0.00     0.303 C 
ENDROOT
BRANCH   1   7
HETATM    7  C5  UNK     1      30.800  -5.494  35.875  1.00  0.00     0.312 C 
BRANCH   7   8
HETATM    8  C7  UNK     1      30.099  -5.505  37.190  1.00  0.00    -0.011 A 
HETATM    9  C10 UNK     1      30.119  -4.433  37.995  1.00  0.00     0.092 A 
HETATM   10  C13 UNK     1      29.443  -4.397  39.303  1.00  0.00     0.288 A 
HETATM   11  O1  UNK     1      28.763  -5.544  39.683  1.00  0.00    -0.275 OA
HETATM   12  O3  UNK     1      29.482  -3.398  40.012  1.00  0.00    -0.260 OA
HETATM   13  C11 UNK     1      28.724  -6.686  38.858  1.00  0.00     0.090 A 
HETATM   14  C8  UNK     1      29.371  -6.705  37.623  1.00  0.00     0.006 A 
HETATM   15  C14 UNK     1      28.011  -7.783  39.344  1.00  0.00     0.045 A 
HETATM   16  C12 UNK     1      29.286  -7.879  36.862  1.00  0.00     0.015 A 
HETATM   17  C17 UNK     1      28.574  -8.988  37.336  1.00  0.00     0.007 A 
HETATM   18  C16 UNK     1      27.937  -8.939  38.574  1.00  0.00    -0.059 A 
HETATM   19  C20 UNK     1      27.181 -10.123  39.073  1.00  0.00     0.048 C 
ENDBRANCH   7   8
ENDBRANCH   1   7
BRANCH   2  20
HETATM   20  C6  UNK     1      36.218  -6.862  35.021  1.00  0.00     0.375 C 
BRANCH  20  21
HETATM   21  C9  UNK     1      36.616  -7.610  33.760  1.00  0.00     0.250 C 
HETATM   22  O2  UNK     1      36.687  -7.066  32.663  1.00  0.00    -0.271 OA
HETATM   23  N3  UNK     1      36.877  -8.946  34.055  1.00  0.00    -0.325 N 
HETATM   24  H15 UNK     1      36.765  -9.233  35.024  1.00  0.00     0.169 HD
BRANCH  23  25
HETATM   25  C15 UNK     1      37.275  -9.966  33.158  1.00  0.00     0.041 A 
HETATM   26  C18 UNK     1      36.346 -10.877  32.654  1.00  0.00    -0.035 A 
HETATM   27  C22 UNK     1      36.757 -11.876  31.771  1.00  0.00     0.009 A 
HETATM   28  C23 UNK     1      34.905 -10.807  33.044  1.00  0.00     0.050 C 
HETATM   29  C24 UNK     1      38.096 -11.962  31.390  1.00  0.00     0.007 A 
HETATM   30  C21 UNK     1      39.025 -11.052  31.895  1.00  0.00    -0.060 A 
HETATM   31  C19 UNK     1      38.614 -10.054  32.779  1.00  0.00     0.037 A 
HETATM   32  C25 UNK     1      40.457 -11.146  31.488  1.00  0.00     0.048 C 
ENDBRANCH  23  25
ENDBRANCH  20  21
ENDBRANCH   2  20
TORSDOF 5
ENDMDL
MODEL 7
REMARK VINA RESULT:      -9.3      1.887      2.614
REMARK  5 active torsions:
REMARK  status: ('A' for Active; 'I' for Inactive)
REMARK    1  A    between atoms: C5_11  and  N1_4 
REMARK    2  A    between atoms: C6_12  and  N2_5 
REMARK    3  A    between atoms: C15_21  and  N3_6 
REMARK       I    between atoms: C9_15  and  N3_6 
REMARK    4  A    between atoms: C5_11  and  C7_13 
REMARK    5  A    between atoms: C6_12  and  C9_15 
ROOT
HETATM    1  N1  UNK     1      19.616  -3.907  36.399  1.00  0.00     0.096 N 
HETATM    2  N2  UNK     1      18.324  -1.388  35.814  1.00  0.00     0.100 N 
HETATM    3  C1  UNK     1      18.172  -3.727  36.593  1.00  0.00     0.303 C 
HETATM    4  C2  UNK     1      20.102  -3.033  35.324  1.00  0.00     0.303 C 
HETATM    5  C3  UNK     1      17.840  -2.261  36.890  1.00  0.00     0.303 C 
HETATM    6  C4  UNK     1      19.768  -1.567  35.620  1.00  0.00     0.303 C 
ENDROOT
BRANCH   1   7
HETATM    7  C5  UNK     1      19.932  -5.305  36.113  1.00  0.00     0.312 C 
BRANCH   7   8
HETATM    8  C7  UNK     1      20.704  -5.944  37.215  1.00  0.00    -0.011 A 
HETATM    9  C10 UNK     1      21.767  -5.335  37.761  1.00  0.00     0.092 A 
HETATM   10  C13 UNK     1      22.560  -5.926  38.852  1.00  0.00     0.288 A 
HETATM   11  O1  UNK     1      22.158  -7.171  39.308  1.00  0.00    -0.275 OA
HETATM   12  O3  UNK     1      23.525  -5.339  39.327  1.00  0.00    -0.260 OA
HETATM   13  C11 UNK     1      21.045  -7.836  38.756  1.00  0.00     0.090 A 
HETATM   14  C8  UNK     1      20.304  -7.264  37.721  1.00  0.00     0.006 A 
HETATM   15  C14 UNK     1      20.733  -9.086  39.294  1.00  0.00     0.045 A 
HETATM   16  C12 UNK     1      19.212  -7.989  37.225  1.00  0.00     0.015 A 
HETATM   17  C17 UNK     1      18.886  -9.243  37.755  1.00  0.00     0.007 A 
HETATM   18  C16 UNK     1      19.645  -9.790  38.787  1.00  0.00    -0.059 A 
HETATM   19  C20 UNK     1      19.293 -11.126  39.347  1.00  0.00     0.048 C 
ENDBRANCH   7   8
ENDBRANCH   1   7
BRANCH   2  20
HETATM   20  C6  UNK     1      18.007   0.010  36.098  1.00  0.00     0.375 C 
BRANCH  20  21
HETATM   21  C9  UNK     1      17.522   0.687  34.828  1.00  0.00     0.250 C 
HETATM   22  O2  UNK     1      16.349   0.658  34.469  1.00  0.00    -0.271 OA
HETATM   23  N3  UNK     1      18.584   1.317  34.183  1.00  0.00    -0.325 N 
HETATM   24  H15 UNK     1      19.499   1.239  34.619  1.00  0.00     0.169 HD
BRANCH  23  25
HETATM   25  C15 UNK     1      18.545   2.054  32.975  1.00  0.00     0.041 A 
HETATM   26  C18 UNK     1      18.829   1.440  31.754  1.00  0.00    -0.035 A 
HETATM   27  C22 UNK     1      18.785   2.182  30.573  1.00  0.00     0.009 A 
HETATM   28  C23 UNK     1      19.183  -0.010  31.681  1.00  0.00     0.050 C 
HETATM   29  C24 UNK     1      18.456   3.537  30.613  1.00  0.00     0.007 A 
HETATM   30  C21 UNK     1      18.173   4.150  31.834  1.00  0.00    -0.060 A 
HETATM   31  C19 UNK     1      18.217   3.408  33.014  1.00  0.00     0.037 A 
HETATM   32  C25 UNK     1      17.822   5.600  31.876  1.00  0.00     0.048 C 
ENDBRANCH  23  25
ENDBRANCH  20  21
ENDBRANCH   2  20
TORSDOF 5
ENDMDL
MODEL 8
REMARK VINA RESULT:      -9.3      4.504      7.870
REMARK  5 active torsions:
REMARK  status: ('A' for Active; 'I' for Inactive)
REMARK    1  A    between atoms: C5_11  and  N1_4 
REMARK    2  A    between atoms: C6_12  and  N2_5 
REMARK    3  A    between atoms: C15_21  and  N3_6 
REMARK       I    between atoms: C9_15  and  N3_6 
REMARK    4  A    between atoms: C5_11  and  C7_13 
REMARK    5  A    between atoms: C6_12  and  C9_15 
ROOT
HETATM    1  N1  UNK     1      18.784   3.383  31.311  1.00  0.00     0.096 N 
HETATM    2  N2  UNK     1      18.950   6.107  32.267  1.00  0.00     0.100 N 
HETATM    3  C1  UNK     1      17.982   3.841  32.453  1.00  0.00     0.303 C 
HETATM    4  C2  UNK     1      19.053   4.498  30.394  1.00  0.00     0.303 C 
HETATM    5  C3  UNK     1      18.682   4.992  33.184  1.00  0.00     0.303 C 
HETATM    6  C4  UNK     1      19.752   5.649  31.125  1.00  0.00     0.303 C 
ENDROOT
BRANCH   1   7
HETATM    7  C5  UNK     1      18.114   2.288  30.613  1.00  0.00     0.312 C 
BRANCH   7   8
HETATM    8  C7  UNK     1      18.965   1.068  30.534  1.00  0.00    -0.011 A 
HETATM    9  C10 UNK     1      19.622   0.752  29.408  1.00  0.00     0.092 A 
HETATM   10  C13 UNK     1      20.474  -0.442  29.282  1.00  0.00     0.288 A 
HETATM   11  O1  UNK     1      20.578  -1.252  30.402  1.00  0.00    -0.275 OA
HETATM   12  O3  UNK     1      21.060  -0.698  28.237  1.00  0.00    -0.260 OA
HETATM   13  C11 UNK     1      19.901  -0.946  31.600  1.00  0.00     0.090 A 
HETATM   14  C8  UNK     1      19.096   0.188  31.703  1.00  0.00     0.006 A 
HETATM   15  C14 UNK     1      20.079  -1.834  32.662  1.00  0.00     0.045 A 
HETATM   16  C12 UNK     1      18.456   0.422  32.927  1.00  0.00     0.015 A 
HETATM   17  C17 UNK     1      18.624  -0.459  34.002  1.00  0.00     0.007 A 
HETATM   18  C16 UNK     1      19.435  -1.585  33.869  1.00  0.00    -0.059 A 
HETATM   19  C20 UNK     1      19.610  -2.519  35.018  1.00  0.00     0.048 C 
ENDBRANCH   7   8
ENDBRANCH   1   7
BRANCH   2  20
HETATM   20  C6  UNK     1      19.618   7.204  32.965  1.00  0.00     0.375 C 
BRANCH  20  21
HETATM   21  C9  UNK     1      18.620   7.914  33.862  1.00  0.00     0.250 C 
HETATM   22  O2  UNK     1      18.738   7.952  35.083  1.00  0.00    -0.271 OA
HETATM   23  N3  UNK     1      17.607   8.488  33.097  1.00  0.00    -0.325 N 
HETATM   24  H15 UNK     1      17.662   8.357  32.091  1.00  0.00     0.169 HD
BRANCH  23  25
HETATM   25  C15 UNK     1      16.495   9.233  33.557  1.00  0.00     0.041 A 
HETATM   26  C18 UNK     1      15.193   8.787  33.328  1.00  0.00    -0.035 A 
HETATM   27  C22 UNK     1      14.109   9.535  33.789  1.00  0.00     0.009 A 
HETATM   28  C23 UNK     1      14.929   7.514  32.593  1.00  0.00     0.050 C 
HETATM   29  C24 UNK     1      14.327  10.727  34.479  1.00  0.00     0.007 A 
HETATM   30  C21 UNK     1      15.629  11.173  34.707  1.00  0.00    -0.060 A 
HETATM   31  C19 UNK     1      16.713  10.426  34.246  1.00  0.00     0.037 A 
HETATM   32  C25 UNK     1      15.862  12.449  35.444  1.00  0.00     0.048 C 
ENDBRANCH  23  25
ENDBRANCH  20  21
ENDBRANCH   2  20
TORSDOF 5
ENDMDL
MODEL 9
REMARK VINA RESULT:      -9.2      2.706      3.828
REMARK  5 active torsions:
REMARK  status: ('A' for Active; 'I' for Inactive)
REMARK    1  A    between atoms: C5_11  and  N1_4 
REMARK    2  A    between atoms: C6_12  and  N2_5 
REMARK    3  A    between atoms: C15_21  and  N3_6 
REMARK       I    between atoms: C9_15  and  N3_6 
REMARK    4  A    between atoms: C5_11  and  C7_13 
REMARK    5  A    between atoms: C6_12  and  C9_15 
ROOT
HETATM    1  N1  UNK     1      19.457  -4.192  36.604  1.00  0.00     0.096 N 
HETATM    2  N2  UNK     1      18.723  -1.559  35.662  1.00  0.00     0.100 N 
HETATM    3  C1  UNK     1      18.053  -3.764  36.551  1.00  0.00     0.303 C 
HETATM    4  C2  UNK     1      20.241  -3.507  35.568  1.00  0.00     0.303 C 
HETATM    5  C3  UNK     1      17.941  -2.243  36.699  1.00  0.00     0.303 C 
HETATM    6  C4  UNK     1      20.127  -1.986  35.715  1.00  0.00     0.303 C 
ENDROOT
BRANCH   1   7
HETATM    7  C5  UNK     1      19.563  -5.643  36.460  1.00  0.00     0.312 C 
BRANCH   7   8
HETATM    8  C7  UNK     1      20.815  -6.178  37.065  1.00  0.00    -0.011 A 
HETATM    9  C10 UNK     1      21.503  -5.470  37.972  1.00  0.00     0.092 A 
HETATM   10  C13 UNK     1      22.745  -5.956  38.598  1.00  0.00     0.288 A 
HETATM   11  O1  UNK     1      23.189  -7.209  38.205  1.00  0.00    -0.275 OA
HETATM   12  O3  UNK     1      23.347  -5.281  39.425  1.00  0.00    -0.260 OA
HETATM   13  C11 UNK     1      22.488  -7.976  37.254  1.00  0.00     0.090 A 
HETATM   14  C8  UNK     1      21.313  -7.501  36.669  1.00  0.00     0.006 A 
HETATM   15  C14 UNK     1      23.029  -9.222  36.934  1.00  0.00     0.045 A 
HETATM   16  C12 UNK     1      20.675  -8.324  35.732  1.00  0.00     0.015 A 
HETATM   17  C17 UNK     1      21.206  -9.577  35.400  1.00  0.00     0.007 A 
HETATM   18  C16 UNK     1      22.380 -10.025  36.001  1.00  0.00    -0.059 A 
HETATM   19  C20 UNK     1      22.940 -11.359  35.643  1.00  0.00     0.048 C 
ENDBRANCH   7   8
ENDBRANCH   1   7
BRANCH   2  20
HETATM   20  C6  UNK     1      18.616  -0.108  35.804  1.00  0.00     0.375 C 
BRANCH  20  21
HETATM   21  C9  UNK     1      18.842   0.550  34.454  1.00  0.00     0.250 C 
HETATM   22  O2  UNK     1      18.810   1.766  34.297  1.00  0.00    -0.271 OA
HETATM   23  N3  UNK     1      19.087  -0.418  33.482  1.00  0.00    -0.325 N 
HETATM   24  H15 UNK     1      19.074  -1.388  33.785  1.00  0.00     0.169 HD
BRANCH  23  25
HETATM   25  C15 UNK     1      19.344  -0.212  32.105  1.00  0.00     0.041 A 
HETATM   26  C18 UNK     1      20.143  -1.102  31.387  1.00  0.00    -0.035 A 
HETATM   27  C22 UNK     1      20.385  -0.884  30.030  1.00  0.00     0.009 A 
HETATM   28  C23 UNK     1      20.753  -2.297  32.045  1.00  0.00     0.050 C 
HETATM   29  C24 UNK     1      19.827   0.224  29.392  1.00  0.00     0.007 A 
HETATM   30  C21 UNK     1      19.028   1.114  30.111  1.00  0.00    -0.060 A 
HETATM   31  C19 UNK     1      18.786   0.895  31.467  1.00  0.00     0.037 A 
HETATM   32  C25 UNK     1      18.432   2.298  29.428  1.00  0.00     0.048 C 
ENDBRANCH  23  25
ENDBRANCH  20  21
ENDBRANCH   2  20
TORSDOF 5
ENDMDL
MODEL 10
REMARK VINA RESULT:      -9.2      6.147      9.336
REMARK  5 active torsions:
REMARK  status: ('A' for Active; 'I' for Inactive)
REMARK    1  A    between atoms: C5_11  and  N1_4 
REMARK    2  A    between atoms: C6_12  and  N2_5 
REMARK    3  A    between atoms: C15_21  and  N3_6 
REMARK       I    between atoms: C9_15  and  N3_6 
REMARK    4  A    between atoms: C5_11  and  C7_13 
REMARK    5  A    between atoms: C6_12  and  C9_15 
ROOT
HETATM    1  N1  UNK     1      18.464   4.951  32.604  1.00  0.00     0.096 N 
HETATM    2  N2  UNK     1      18.650   7.746  33.321  1.00  0.00     0.100 N 
HETATM    3  C1  UNK     1      17.262   5.755  32.863  1.00  0.00     0.303 C 
HETATM    4  C2  UNK     1      19.547   5.799  32.091  1.00  0.00     0.303 C 
HETATM    5  C3  UNK     1      17.569   6.898  33.836  1.00  0.00     0.303 C 
HETATM    6  C4  UNK     1      19.853   6.943  33.063  1.00  0.00     0.303 C 
ENDROOT
BRANCH   1   7
HETATM    7  C5  UNK     1      18.171   3.863  31.674  1.00  0.00     0.312 C 
BRANCH   7   8
HETATM    8  C7  UNK     1      18.376   2.524  32.293  1.00  0.00    -0.011 A 
HETATM    9  C10 UNK     1      18.062   2.298  33.577  1.00  0.00     0.092 A 
HETATM   10  C13 UNK     1      18.247   0.992  34.232  1.00  0.00     0.288 A 
HETATM   11  O1  UNK     1      18.771  -0.026  33.452  1.00  0.00    -0.275 OA
HETATM   12  O3  UNK     1      17.949   0.823  35.409  1.00  0.00    -0.260 OA
HETATM   13  C11 UNK     1      19.109   0.180  32.099  1.00  0.00     0.090 A 
HETATM   14  C8  UNK     1      18.930   1.424  31.493  1.00  0.00     0.006 A 
HETATM   15  C14 UNK     1      19.630  -0.917  31.411  1.00  0.00     0.045 A 
HETATM   16  C12 UNK     1      19.291   1.548  30.145  1.00  0.00     0.015 A 
HETATM   17  C17 UNK     1      19.814   0.456  29.441  1.00  0.00     0.007 A 
HETATM   18  C16 UNK     1      19.983  -0.774  30.073  1.00  0.00    -0.059 A 
HETATM   19  C20 UNK     1      20.540  -1.932  29.318  1.00  0.00     0.048 C 
ENDBRANCH   7   8
ENDBRANCH   1   7
BRANCH   2  20
HETATM   20  C6  UNK     1      18.943   8.836  34.250  1.00  0.00     0.375 C 
BRANCH  20  21
HETATM   21  C9  UNK     1      18.098  10.046  33.891  1.00  0.00     0.250 C 
HETATM   22  O2  UNK     1      18.581  11.078  33.436  1.00  0.00    -0.271 OA
HETATM   23  N3  UNK     1      16.754   9.789  34.149  1.00  0.00    -0.325 N 
HETATM   24  H15 UNK     1      16.526   8.875  34.532  1.00  0.00     0.169 HD
BRANCH  23  25
HETATM   25  C15 UNK     1      15.655  10.658  33.950  1.00  0.00     0.041 A 
HETATM   26  C18 UNK     1      14.453  10.182  33.425  1.00  0.00    -0.035 A 
HETATM   27  C22 UNK     1      13.380  11.054  33.236  1.00  0.00     0.009 A 
HETATM   28  C23 UNK     1      14.286   8.743  33.057  1.00  0.00     0.050 C 
HETATM   29  C24 UNK     1      13.509  12.401  33.572  1.00  0.00     0.007 A 
HETATM   30  C21 UNK     1      14.712  12.877  34.096  1.00  0.00    -0.060 A 
HETATM   31  C19 UNK     1      15.784  12.005  34.285  1.00  0.00     0.037 A 
HETATM   32  C25 UNK     1      14.849  14.319  34.455  1.00  0.00     0.048 C 
ENDBRANCH  23  25
ENDBRANCH  20  21
ENDBRANCH   2  20
TORSDOF 5
ENDMDL
