MODEL 1
REMARK VINA RESULT:      -7.5      0.000      0.000
REMARK  4 active torsions:
REMARK  status: ('A' for Active; 'I' for Inactive)
REMARK    1  A    between atoms: C6_9  and  N1_3 
REMARK    2  A    between atoms: C1_4  and  C2_5 
REMARK    3  A    between atoms: C1_4  and  C3_6 
REMARK    4  A    between atoms: C4_7  and  C5_8 
ROOT
HETATM    1  C1  UNK     1      21.159  -4.264  15.867  1.00  0.00    -0.015 C 
HETATM    2  C4  UNK     1      20.725  -5.562  15.866  1.00  0.00     0.027 C 
ENDROOT
BRANCH   1   3
HETATM    3  C2  UNK     1      20.346  -3.321  15.026  1.00  0.00    -0.025 A 
HETATM    4  C7  UNK     1      19.258  -2.713  15.600  1.00  0.00     0.012 A 
HETATM    5  C13 UNK     1      18.503  -1.837  14.820  1.00  0.00     0.001 A 
HETATM    6  C19 UNK     1      18.862  -1.599  13.494  1.00  0.00     0.000 A 
HETATM    7  C15 UNK     1      19.976  -2.236  12.947  1.00  0.00     0.001 A 
HETATM    8  C9  UNK     1      20.731  -3.112  13.727  1.00  0.00     0.012 A 
ENDBRANCH   1   3
BRANCH   1   9
HETATM    9  C3  UNK     1      22.334  -3.842  16.614  1.00  0.00    -0.025 A 
HETATM   10  C10 UNK     1      23.609  -4.090  16.107  1.00  0.00     0.012 A 
HETATM   11  C16 UNK     1      24.736  -3.685  16.824  1.00  0.00     0.001 A 
HETATM   12  C20 UNK     1      24.587  -3.034  18.048  1.00  0.00     0.000 A 
HETATM   13  C14 UNK     1      23.311  -2.787  18.556  1.00  0.00     0.001 A 
HETATM   14  C8  UNK     1      22.185  -3.191  17.839  1.00  0.00     0.012 A 
ENDBRANCH   1   9
BRANCH   2  15
HETATM   15  C5  UNK     1      19.552  -6.072  15.142  1.00  0.00    -0.002 A 
HETATM   16  C11 UNK     1      18.311  -5.958  15.757  1.00  0.00     0.014 A 
HETATM   17  C17 UNK     1      17.173  -6.427  15.103  1.00  0.00     0.001 A 
HETATM   18  C18 UNK     1      17.285  -7.009  13.839  1.00  0.00     0.002 A 
HETATM   19  C12 UNK     1      18.535  -7.119  13.230  1.00  0.00     0.037 A 
HETATM   20  C6  UNK     1      19.673  -6.649  13.885  1.00  0.00     0.113 A 
BRANCH  20  21
HETATM   21  N1  UNK     1      20.934  -6.777  13.236  1.00  0.00    -0.115 N 
HETATM   22  O1  UNK     1      21.144  -6.107  12.199  1.00  0.00    -0.532 OA
HETATM   23  O2  UNK     1      21.784  -7.555  13.724  1.00  0.00    -0.532 OA
ENDBRANCH  20  21
ENDBRANCH   2  15
TORSDOF 4
ENDMDL
MODEL 2
REMARK VINA RESULT:      -7.3     14.457     16.909
REMARK  4 active torsions:
REMARK  status: ('A' for Active; 'I' for Inactive)
REMARK    1  A    between atoms: C6_9  and  N1_3 
REMARK    2  A    between atoms: C1_4  and  C2_5 
REMARK    3  A    between atoms: C1_4  and  C3_6 
REMARK    4  A    between atoms: C4_7  and  C5_8 
ROOT
HETATM    1  C1  UNK     1      12.341   8.093   8.636  1.00  0.00    -0.015 C 
HETATM    2  C4  UNK     1      13.637   7.909   8.239  1.00  0.00     0.027 C 
ENDROOT
BRANCH   1   3
HETATM    3  C2  UNK     1      12.159   9.017   9.807  1.00  0.00    -0.025 A 
HETATM    4  C7  UNK     1      11.479  10.192   9.608  1.00  0.00     0.012 A 
HETATM    5  C13 UNK     1      11.310  11.050  10.694  1.00  0.00     0.001 A 
HETATM    6  C19 UNK     1      11.826  10.703  11.943  1.00  0.00     0.000 A 
HETATM    7  C15 UNK     1      12.511   9.499  12.105  1.00  0.00     0.001 A 
HETATM    8  C9  UNK     1      12.680   8.641  11.018  1.00  0.00     0.012 A 
ENDBRANCH   1   3
BRANCH   1   9
HETATM    9  C3  UNK     1      11.229   7.423   7.979  1.00  0.00    -0.025 A 
HETATM   10  C10 UNK     1      11.339   7.034   6.644  1.00  0.00     0.012 A 
HETATM   11  C16 UNK     1      10.272   6.392   6.014  1.00  0.00     0.001 A 
HETATM   12  C20 UNK     1       9.096   6.141   6.719  1.00  0.00     0.000 A 
HETATM   13  C14 UNK     1       8.985   6.530   8.054  1.00  0.00     0.001 A 
HETATM   14  C8  UNK     1      10.052   7.171   8.684  1.00  0.00     0.012 A 
ENDBRANCH   1   9
BRANCH   2  15
HETATM   15  C5  UNK     1      14.817   8.545   8.845  1.00  0.00    -0.002 A 
HETATM   16  C11 UNK     1      15.010   9.901   8.614  1.00  0.00     0.014 A 
HETATM   17  C17 UNK     1      16.116  10.542   9.172  1.00  0.00     0.001 A 
HETATM   18  C18 UNK     1      17.019   9.822   9.954  1.00  0.00     0.002 A 
HETATM   19  C12 UNK     1      16.815   8.460  10.180  1.00  0.00     0.037 A 
HETATM   20  C6  UNK     1      15.710   7.819   9.622  1.00  0.00     0.113 A 
BRANCH  20  21
HETATM   21  N1  UNK     1      15.531   6.429   9.870  1.00  0.00    -0.115 N 
HETATM   22  O1  UNK     1      14.856   6.081  10.866  1.00  0.00    -0.532 OA
HETATM   23  O2  UNK     1      16.055   5.607   9.086  1.00  0.00    -0.532 OA
ENDBRANCH  20  21
ENDBRANCH   2  15
TORSDOF 4
ENDMDL
MODEL 3
REMARK VINA RESULT:      -7.3     20.476     23.852
REMARK  4 active torsions:
REMARK  status: ('A' for Active; 'I' for Inactive)
REMARK    1  A    between atoms: C6_9  and  N1_3 
REMARK    2  A    between atoms: C1_4  and  C2_5 
REMARK    3  A    between atoms: C1_4  and  C3_6 
REMARK    4  A    between atoms: C4_7  and  C5_8 
ROOT
HETATM    1  C1  UNK     1      29.205  -6.968  35.655  1.00  0.00    -0.015 C 
HETATM    2  C4  UNK     1      28.019  -7.277  36.264  1.00  0.00     0.027 C 
ENDROOT
BRANCH   1   3
HETATM    3  C2  UNK     1      30.434  -7.276  36.463  1.00  0.00    -0.025 A 
HETATM    4  C7  UNK     1      31.103  -8.447  36.206  1.00  0.00     0.012 A 
HETATM    5  C13 UNK     1      32.244  -8.733  36.954  1.00  0.00     0.001 A 
HETATM    6  C19 UNK     1      32.678  -7.839  37.934  1.00  0.00     0.000 A 
HETATM    7  C15 UNK     1      31.970  -6.660  38.165  1.00  0.00     0.001 A 
HETATM    8  C9  UNK     1      30.829  -6.373  37.416  1.00  0.00     0.012 A 
ENDBRANCH   1   3
BRANCH   1   9
HETATM    9  C3  UNK     1      29.260  -6.367  34.331  1.00  0.00    -0.025 A 
HETATM   10  C10 UNK     1      30.458  -5.829  33.860  1.00  0.00     0.012 A 
HETATM   11  C16 UNK     1      30.511  -5.253  32.590  1.00  0.00     0.001 A 
HETATM   12  C20 UNK     1      29.367  -5.213  31.794  1.00  0.00     0.000 A 
HETATM   13  C14 UNK     1      28.170  -5.751  32.266  1.00  0.00     0.001 A 
HETATM   14  C8  UNK     1      28.116  -6.327  33.535  1.00  0.00     0.012 A 
ENDBRANCH   1   9
BRANCH   2  15
HETATM   15  C5  UNK     1      27.873  -7.885  37.595  1.00  0.00    -0.002 A 
HETATM   16  C11 UNK     1      28.112  -9.248  37.714  1.00  0.00     0.014 A 
HETATM   17  C17 UNK     1      27.987  -9.863  38.959  1.00  0.00     0.001 A 
HETATM   18  C18 UNK     1      27.621  -9.109  40.075  1.00  0.00     0.002 A 
HETATM   19  C12 UNK     1      27.383  -7.741  39.945  1.00  0.00     0.037 A 
HETATM   20  C6  UNK     1      27.509  -7.127  38.700  1.00  0.00     0.113 A 
BRANCH  20  21
HETATM   21  N1  UNK     1      27.258  -5.728  38.601  1.00  0.00    -0.115 N 
HETATM   22  O1  UNK     1      26.095  -5.346  38.339  1.00  0.00    -0.532 OA
HETATM   23  O2  UNK     1      28.209  -4.935  38.779  1.00  0.00    -0.532 OA
ENDBRANCH  20  21
ENDBRANCH   2  15
TORSDOF 4
ENDMDL
MODEL 4
REMARK VINA RESULT:      -7.1     21.240     22.931
REMARK  4 active torsions:
REMARK  status: ('A' for Active; 'I' for Inactive)
REMARK    1  A    between atoms: C6_9  and  N1_3 
REMARK    2  A    between atoms: C1_4  and  C2_5 
REMARK    3  A    between atoms: C1_4  and  C3_6 
REMARK    4  A    between atoms: C4_7  and  C5_8 
ROOT
HETATM    1  C1  UNK     1      22.175  -9.181  36.821  1.00  0.00    -0.015 C 
HETATM    2  C4  UNK     1      21.793  -8.048  36.156  1.00  0.00     0.027 C 
ENDROOT
BRANCH   1   3
HETATM    3  C2  UNK     1      21.128  -9.770  37.726  1.00  0.00    -0.025 A 
HETATM    4  C7  UNK     1      20.375 -10.815  37.253  1.00  0.00     0.012 A 
HETATM    5  C13 UNK     1      19.405 -11.363  38.093  1.00  0.00     0.001 A 
HETATM    6  C19 UNK     1      19.222 -10.846  39.376  1.00  0.00     0.000 A 
HETATM    7  C15 UNK     1      20.008  -9.784  39.820  1.00  0.00     0.001 A 
HETATM    8  C9  UNK     1      20.978  -9.236  38.980  1.00  0.00     0.012 A 
ENDBRANCH   1   3
BRANCH   1   9
HETATM    9  C3  UNK     1      23.503  -9.755  36.673  1.00  0.00    -0.025 A 
HETATM   10  C10 UNK     1      23.661 -10.995  36.054  1.00  0.00     0.012 A 
HETATM   11  C16 UNK     1      24.935 -11.545  35.912  1.00  0.00     0.001 A 
HETATM   12  C20 UNK     1      26.050 -10.856  36.389  1.00  0.00     0.000 A 
HETATM   13  C14 UNK     1      25.891  -9.616  37.008  1.00  0.00     0.001 A 
HETATM   14  C8  UNK     1      24.617  -9.065  37.150  1.00  0.00     0.012 A 
ENDBRANCH   1   9
BRANCH   2  15
HETATM   15  C5  UNK     1      20.474  -7.404  36.248  1.00  0.00    -0.002 A 
HETATM   16  C11 UNK     1      19.432  -7.955  35.513  1.00  0.00     0.014 A 
HETATM   17  C17 UNK     1      18.165  -7.375  35.574  1.00  0.00     0.001 A 
HETATM   18  C18 UNK     1      17.951  -6.248  36.368  1.00  0.00     0.002 A 
HETATM   19  C12 UNK     1      19.004  -5.703  37.102  1.00  0.00     0.037 A 
HETATM   20  C6  UNK     1      20.271  -6.283  37.041  1.00  0.00     0.113 A 
BRANCH  20  21
HETATM   21  N1  UNK     1      21.324  -5.701  37.803  1.00  0.00    -0.115 N 
HETATM   22  O1  UNK     1      21.962  -4.744  37.309  1.00  0.00    -0.532 OA
HETATM   23  O2  UNK     1      21.573  -6.169  38.937  1.00  0.00    -0.532 OA
ENDBRANCH  20  21
ENDBRANCH   2  15
TORSDOF 4
ENDMDL
MODEL 5
REMARK VINA RESULT:      -7.0     19.028     21.556
REMARK  4 active torsions:
REMARK  status: ('A' for Active; 'I' for Inactive)
REMARK    1  A    between atoms: C6_9  and  N1_3 
REMARK    2  A    between atoms: C1_4  and  C2_5 
REMARK    3  A    between atoms: C1_4  and  C3_6 
REMARK    4  A    between atoms: C4_7  and  C5_8 
ROOT
HETATM    1  C1  UNK     1      18.504   4.731  33.625  1.00  0.00    -0.015 C 
HETATM    2  C4  UNK     1      18.042   5.713  34.458  1.00  0.00     0.027 C 
ENDROOT
BRANCH   1   3
HETATM    3  C2  UNK     1      19.099   5.221  32.334  1.00  0.00    -0.025 A 
HETATM    4  C7  UNK     1      20.437   5.525  32.310  1.00  0.00     0.012 A 
HETATM    5  C13 UNK     1      20.989   5.979  31.112  1.00  0.00     0.001 A 
HETATM    6  C19 UNK     1      20.185   6.113  29.980  1.00  0.00     0.000 A 
HETATM    7  C15 UNK     1      18.829   5.793  30.045  1.00  0.00     0.001 A 
HETATM    8  C9  UNK     1      18.277   5.339  31.243  1.00  0.00     0.012 A 
ENDBRANCH   1   3
BRANCH   1   9
HETATM    9  C3  UNK     1      18.406   3.320  33.962  1.00  0.00    -0.025 A 
HETATM   10  C10 UNK     1      18.469   2.916  35.296  1.00  0.00     0.012 A 
HETATM   11  C16 UNK     1      18.375   1.563  35.620  1.00  0.00     0.001 A 
HETATM   12  C20 UNK     1      18.219   0.613  34.611  1.00  0.00     0.000 A 
HETATM   13  C14 UNK     1      18.156   1.017  33.277  1.00  0.00     0.001 A 
HETATM   14  C8  UNK     1      18.250   2.370  32.953  1.00  0.00     0.012 A 
ENDBRANCH   1   9
BRANCH   2  15
HETATM   15  C5  UNK     1      18.102   7.159  34.196  1.00  0.00    -0.002 A 
HETATM   16  C11 UNK     1      19.293   7.818  34.476  1.00  0.00     0.014 A 
HETATM   17  C17 UNK     1      19.392   9.189  34.239  1.00  0.00     0.001 A 
HETATM   18  C18 UNK     1      18.299   9.889  33.726  1.00  0.00     0.002 A 
HETATM   19  C12 UNK     1      17.109   9.217  33.448  1.00  0.00     0.037 A 
HETATM   20  C6  UNK     1      17.010   7.846  33.685  1.00  0.00     0.113 A 
BRANCH  20  21
HETATM   21  N1  UNK     1      15.780   7.191  33.391  1.00  0.00    -0.115 N 
HETATM   22  O1  UNK     1      14.901   7.142  34.281  1.00  0.00    -0.532 OA
HETATM   23  O2  UNK     1      15.625   6.689  32.255  1.00  0.00    -0.532 OA
ENDBRANCH  20  21
ENDBRANCH   2  15
TORSDOF 4
ENDMDL
MODEL 6
REMARK VINA RESULT:      -7.0     21.551     24.261
REMARK  4 active torsions:
REMARK  status: ('A' for Active; 'I' for Inactive)
REMARK    1  A    between atoms: C6_9  and  N1_3 
REMARK    2  A    between atoms: C1_4  and  C2_5 
REMARK    3  A    between atoms: C1_4  and  C3_6 
REMARK    4  A    between atoms: C4_7  and  C5_8 
ROOT
HETATM    1  C1  UNK     1      31.595  -6.702  36.386  1.00  0.00    -0.015 C 
HETATM    2  C4  UNK     1      31.281  -6.634  37.716  1.00  0.00     0.027 C 
ENDROOT
BRANCH   1   3
HETATM    3  C2  UNK     1      30.487  -7.191  35.495  1.00  0.00    -0.025 A 
HETATM    4  C7  UNK     1      29.501  -6.305  35.140  1.00  0.00     0.012 A 
HETATM    5  C13 UNK     1      28.474  -6.758  34.312  1.00  0.00     0.001 A 
HETATM    6  C19 UNK     1      28.468  -8.081  33.869  1.00  0.00     0.000 A 
HETATM    7  C15 UNK     1      29.489  -8.950  34.252  1.00  0.00     0.001 A 
HETATM    8  C9  UNK     1      30.517  -8.497  35.079  1.00  0.00     0.012 A 
ENDBRANCH   1   3
BRANCH   1   9
HETATM    9  C3  UNK     1      32.912  -6.344  35.883  1.00  0.00    -0.025 A 
HETATM   10  C10 UNK     1      33.975  -7.237  36.014  1.00  0.00     0.012 A 
HETATM   11  C16 UNK     1      35.239  -6.893  35.533  1.00  0.00     0.001 A 
HETATM   12  C20 UNK     1      35.439  -5.657  34.920  1.00  0.00     0.000 A 
HETATM   13  C14 UNK     1      34.375  -4.763  34.789  1.00  0.00     0.001 A 
HETATM   14  C8  UNK     1      33.112  -5.107  35.271  1.00  0.00     0.012 A 
ENDBRANCH   1   9
BRANCH   2  15
HETATM   15  C5  UNK     1      29.979  -6.976  38.307  1.00  0.00    -0.002 A 
HETATM   16  C11 UNK     1      29.614  -8.317  38.337  1.00  0.00     0.014 A 
HETATM   17  C17 UNK     1      28.387  -8.683  38.890  1.00  0.00     0.001 A 
HETATM   18  C18 UNK     1      27.536  -7.707  39.408  1.00  0.00     0.002 A 
HETATM   19  C12 UNK     1      27.912  -6.364  39.374  1.00  0.00     0.037 A 
HETATM   20  C6  UNK     1      29.139  -5.997  38.820  1.00  0.00     0.113 A 
BRANCH  20  21
HETATM   21  N1  UNK     1      29.492  -4.618  38.800  1.00  0.00    -0.115 N 
HETATM   22  O1  UNK     1      29.613  -4.016  39.891  1.00  0.00    -0.532 OA
HETATM   23  O2  UNK     1      29.668  -4.060  37.694  1.00  0.00    -0.532 OA
ENDBRANCH  20  21
ENDBRANCH   2  15
TORSDOF 4
ENDMDL
MODEL 7
REMARK VINA RESULT:      -7.0     21.531     24.258
REMARK  4 active torsions:
REMARK  status: ('A' for Active; 'I' for Inactive)
REMARK    1  A    between atoms: C6_9  and  N1_3 
REMARK    2  A    between atoms: C1_4  and  C2_5 
REMARK    3  A    between atoms: C1_4  and  C3_6 
REMARK    4  A    between atoms: C4_7  and  C5_8 
ROOT
HETATM    1  C1  UNK     1      31.598  -6.694  36.373  1.00  0.00    -0.015 C 
HETATM    2  C4  UNK     1      31.283  -6.621  37.702  1.00  0.00     0.027 C 
ENDROOT
BRANCH   1   3
HETATM    3  C2  UNK     1      30.485  -7.169  35.480  1.00  0.00    -0.025 A 
HETATM    4  C7  UNK     1      30.506  -8.473  35.055  1.00  0.00     0.012 A 
HETATM    5  C13 UNK     1      29.474  -8.914  34.228  1.00  0.00     0.001 A 
HETATM    6  C19 UNK     1      28.456  -8.037  33.855  1.00  0.00     0.000 A 
HETATM    7  C15 UNK     1      28.470  -6.718  34.309  1.00  0.00     0.001 A 
HETATM    8  C9  UNK     1      29.503  -6.277  35.136  1.00  0.00     0.012 A 
ENDBRANCH   1   3
BRANCH   1   9
HETATM    9  C3  UNK     1      32.920  -6.352  35.872  1.00  0.00    -0.025 A 
HETATM   10  C10 UNK     1      33.970  -7.262  36.000  1.00  0.00     0.012 A 
HETATM   11  C16 UNK     1      35.238  -6.935  35.520  1.00  0.00     0.001 A 
HETATM   12  C20 UNK     1      35.457  -5.698  34.913  1.00  0.00     0.000 A 
HETATM   13  C14 UNK     1      34.407  -4.788  34.785  1.00  0.00     0.001 A 
HETATM   14  C8  UNK     1      33.138  -5.116  35.265  1.00  0.00     0.012 A 
ENDBRANCH   1   9
BRANCH   2  15
HETATM   15  C5  UNK     1      29.975  -6.946  38.292  1.00  0.00    -0.002 A 
HETATM   16  C11 UNK     1      29.591  -8.282  38.318  1.00  0.00     0.014 A 
HETATM   17  C17 UNK     1      28.359  -8.632  38.870  1.00  0.00     0.001 A 
HETATM   18  C18 UNK     1      27.521  -7.645  39.388  1.00  0.00     0.002 A 
HETATM   19  C12 UNK     1      27.916  -6.308  39.357  1.00  0.00     0.037 A 
HETATM   20  C6  UNK     1      29.148  -5.957  38.806  1.00  0.00     0.113 A 
BRANCH  20  21
HETATM   21  N1  UNK     1      29.520  -4.583  38.789  1.00  0.00    -0.115 N 
HETATM   22  O1  UNK     1      29.631  -3.980  39.880  1.00  0.00    -0.532 OA
HETATM   23  O2  UNK     1      29.722  -4.030  37.684  1.00  0.00    -0.532 OA
ENDBRANCH  20  21
ENDBRANCH   2  15
TORSDOF 4
ENDMDL
MODEL 8
REMARK VINA RESULT:      -6.9     20.195     22.620
REMARK  4 active torsions:
REMARK  status: ('A' for Active; 'I' for Inactive)
REMARK    1  A    between atoms: C6_9  and  N1_3 
REMARK    2  A    between atoms: C1_4  and  C2_5 
REMARK    3  A    between atoms: C1_4  and  C3_6 
REMARK    4  A    between atoms: C4_7  and  C5_8 
ROOT
HETATM    1  C1  UNK     1      22.334  -8.397  37.513  1.00  0.00    -0.015 C 
HETATM    2  C4  UNK     1      21.822  -7.324  36.836  1.00  0.00     0.027 C 
ENDROOT
BRANCH   1   3
HETATM    3  C2  UNK     1      21.314  -9.391  37.995  1.00  0.00    -0.025 A 
HETATM    4  C7  UNK     1      20.899 -10.369  37.127  1.00  0.00     0.012 A 
HETATM    5  C13 UNK     1      19.954 -11.291  37.574  1.00  0.00     0.001 A 
HETATM    6  C19 UNK     1      19.455 -11.203  38.874  1.00  0.00     0.000 A 
HETATM    7  C15 UNK     1      19.903 -10.195  39.727  1.00  0.00     0.001 A 
HETATM    8  C9  UNK     1      20.849  -9.272  39.279  1.00  0.00     0.012 A 
ENDBRANCH   1   3
BRANCH   1   9
HETATM    9  C3  UNK     1      23.760  -8.548  37.758  1.00  0.00    -0.025 A 
HETATM   10  C10 UNK     1      24.353  -7.897  38.840  1.00  0.00     0.012 A 
HETATM   11  C16 UNK     1      25.721  -8.041  39.076  1.00  0.00     0.001 A 
HETATM   12  C20 UNK     1      26.494  -8.835  38.230  1.00  0.00     0.000 A 
HETATM   13  C14 UNK     1      25.901  -9.486  37.148  1.00  0.00     0.001 A 
HETATM   14  C8  UNK     1      24.533  -9.342  36.912  1.00  0.00     0.012 A 
ENDBRANCH   1   9
BRANCH   2  15
HETATM   15  C5  UNK     1      20.399  -7.094  36.545  1.00  0.00    -0.002 A 
HETATM   16  C11 UNK     1      19.567  -6.759  37.606  1.00  0.00     0.014 A 
HETATM   17  C17 UNK     1      18.211  -6.532  37.372  1.00  0.00     0.001 A 
HETATM   18  C18 UNK     1      17.698  -6.643  36.079  1.00  0.00     0.002 A 
HETATM   19  C12 UNK     1      18.542  -6.980  35.021  1.00  0.00     0.037 A 
HETATM   20  C6  UNK     1      19.898  -7.207  35.255  1.00  0.00     0.113 A 
BRANCH  20  21
HETATM   21  N1  UNK     1      20.732  -7.550  34.153  1.00  0.00    -0.115 N 
HETATM   22  O1  UNK     1      20.882  -6.713  33.234  1.00  0.00    -0.532 OA
HETATM   23  O2  UNK     1      21.283  -8.673  34.144  1.00  0.00    -0.532 OA
ENDBRANCH  20  21
ENDBRANCH   2  15
TORSDOF 4
ENDMDL
MODEL 9
REMARK VINA RESULT:      -6.9     20.201     23.532
REMARK  4 active torsions:
REMARK  status: ('A' for Active; 'I' for Inactive)
REMARK    1  A    between atoms: C6_9  and  N1_3 
REMARK    2  A    between atoms: C1_4  and  C2_5 
REMARK    3  A    between atoms: C1_4  and  C3_6 
REMARK    4  A    between atoms: C4_7  and  C5_8 
ROOT
HETATM    1  C1  UNK     1      28.927  -7.125  35.723  1.00  0.00    -0.015 C 
HETATM    2  C4  UNK     1      28.644  -8.441  35.968  1.00  0.00     0.027 C 
ENDROOT
BRANCH   1   3
HETATM    3  C2  UNK     1      29.180  -6.290  36.948  1.00  0.00    -0.025 A 
HETATM    4  C7  UNK     1      30.477  -5.972  37.260  1.00  0.00     0.012 A 
HETATM    5  C13 UNK     1      30.712  -5.196  38.395  1.00  0.00     0.001 A 
HETATM    6  C19 UNK     1      29.641  -4.766  39.179  1.00  0.00     0.000 A 
HETATM    7  C15 UNK     1      28.336  -5.110  38.827  1.00  0.00     0.001 A 
HETATM    8  C9  UNK     1      28.102  -5.886  37.692  1.00  0.00     0.012 A 
ENDBRANCH   1   3
BRANCH   1   9
HETATM    9  C3  UNK     1      28.960  -6.579  34.375  1.00  0.00    -0.025 A 
HETATM   10  C10 UNK     1      27.787  -6.505  33.624  1.00  0.00     0.012 A 
HETATM   11  C16 UNK     1      27.818  -5.982  32.332  1.00  0.00     0.001 A 
HETATM   12  C20 UNK     1      29.022  -5.533  31.790  1.00  0.00     0.000 A 
HETATM   13  C14 UNK     1      30.195  -5.607  32.541  1.00  0.00     0.001 A 
HETATM   14  C8  UNK     1      30.164  -6.130  33.834  1.00  0.00     0.012 A 
ENDBRANCH   1   9
BRANCH   2  15
HETATM   15  C5  UNK     1      28.591  -9.073  37.295  1.00  0.00    -0.002 A 
HETATM   16  C11 UNK     1      29.796  -9.324  37.940  1.00  0.00     0.014 A 
HETATM   17  C17 UNK     1      29.789  -9.921  39.201  1.00  0.00     0.001 A 
HETATM   18  C18 UNK     1      28.579 -10.263  39.804  1.00  0.00     0.002 A 
HETATM   19  C12 UNK     1      27.375 -10.005  39.148  1.00  0.00     0.037 A 
HETATM   20  C6  UNK     1      27.382  -9.409  37.888  1.00  0.00     0.113 A 
BRANCH  20  21
HETATM   21  N1  UNK     1      26.136  -9.161  37.245  1.00  0.00    -0.115 N 
HETATM   22  O1  UNK     1      25.560  -8.069  37.457  1.00  0.00    -0.532 OA
HETATM   23  O2  UNK     1      25.663 -10.042  36.493  1.00  0.00    -0.532 OA
ENDBRANCH  20  21
ENDBRANCH   2  15
TORSDOF 4
ENDMDL
MODEL 10
REMARK VINA RESULT:      -6.8     18.900     22.331
REMARK  4 active torsions:
REMARK  status: ('A' for Active; 'I' for Inactive)
REMARK    1  A    between atoms: C6_9  and  N1_3 
REMARK    2  A    between atoms: C1_4  and  C2_5 
REMARK    3  A    between atoms: C1_4  and  C3_6 
REMARK    4  A    between atoms: C4_7  and  C5_8 
ROOT
HETATM    1  C1  UNK     1      29.046  -8.063  33.735  1.00  0.00    -0.015 C 
HETATM    2  C4  UNK     1      28.701  -9.052  34.616  1.00  0.00     0.027 C 
ENDROOT
BRANCH   1   3
HETATM    3  C2  UNK     1      30.158  -7.163  34.195  1.00  0.00    -0.025 A 
HETATM    4  C7  UNK     1      31.387  -7.293  33.598  1.00  0.00     0.012 A 
HETATM    5  C13 UNK     1      32.419  -6.456  34.023  1.00  0.00     0.001 A 
HETATM    6  C19 UNK     1      32.187  -5.520  35.031  1.00  0.00     0.000 A 
HETATM    7  C15 UNK     1      30.924  -5.418  35.612  1.00  0.00     0.001 A 
HETATM    8  C9  UNK     1      29.891  -6.254  35.187  1.00  0.00     0.012 A 
ENDBRANCH   1   3
BRANCH   1   9
HETATM    9  C3  UNK     1      28.368  -7.892  32.460  1.00  0.00    -0.025 A 
HETATM   10  C10 UNK     1      27.661  -6.718  32.198  1.00  0.00     0.012 A 
HETATM   11  C16 UNK     1      27.010  -6.554  30.975  1.00  0.00     0.001 A 
HETATM   12  C20 UNK     1      27.066  -7.563  30.015  1.00  0.00     0.000 A 
HETATM   13  C14 UNK     1      27.772  -8.737  30.277  1.00  0.00     0.001 A 
HETATM   14  C8  UNK     1      28.423  -8.902  31.500  1.00  0.00     0.012 A 
ENDBRANCH   1   9
BRANCH   2  15
HETATM   15  C5  UNK     1      29.332  -9.296  35.922  1.00  0.00    -0.002 A 
HETATM   16  C11 UNK     1      30.626  -9.801  35.930  1.00  0.00     0.014 A 
HETATM   17  C17 UNK     1      31.262 -10.044  37.147  1.00  0.00     0.001 A 
HETATM   18  C18 UNK     1      30.597  -9.782  38.346  1.00  0.00     0.002 A 
HETATM   19  C12 UNK     1      29.299  -9.274  38.326  1.00  0.00     0.037 A 
HETATM   20  C6  UNK     1      28.663  -9.031  37.109  1.00  0.00     0.113 A 
BRANCH  20  21
HETATM   21  N1  UNK     1      27.337  -8.513  37.124  1.00  0.00    -0.115 N 
HETATM   22  O1  UNK     1      27.179  -7.271  37.087  1.00  0.00    -0.532 OA
HETATM   23  O2  UNK     1      26.380  -9.317  37.174  1.00  0.00    -0.532 OA
ENDBRANCH  20  21
ENDBRANCH   2  15
TORSDOF 4
ENDMDL
