MODEL 1
REMARK VINA RESULT:     -10.7      0.000      0.000
REMARK  5 active torsions:
REMARK  status: ('A' for Active; 'I' for Inactive)
REMARK    1  A    between atoms: C1_9  and  S1_1 
REMARK    2  A    between atoms: N1_7  and  S1_1 
REMARK    3  A    between atoms: C2_10  and  N1_7 
REMARK       I    between atoms: C17_25  and  N2_8 
REMARK    4  A    between atoms: C3_11  and  N2_8 
REMARK    5  A    between atoms: C10_18  and  C17_25 
ROOT
HETATM    1  C2  UNK     1      18.925   4.740  31.022  1.00  0.00     0.042 A 
HETATM    2  C3  UNK     1      18.000   6.988  32.347  1.00  0.00     0.035 A 
HETATM    3  C6  UNK     1      18.831   5.956  30.348  1.00  0.00     0.032 A 
HETATM    4  C7  UNK     1      18.554   4.654  32.364  1.00  0.00     0.032 A 
HETATM    5  C11 UNK     1      18.365   7.089  31.016  1.00  0.00     0.032 A 
HETATM    6  C12 UNK     1      18.088   5.787  33.032  1.00  0.00     0.032 A 
ENDROOT
BRANCH   2   7
HETATM    7  N2  UNK     1      17.527   8.137  33.025  1.00  0.00    -0.323 N 
HETATM    8  C17 UNK     1      16.453   8.944  32.674  1.00  0.00     0.262 C 
HETATM    9  O4  UNK     1      15.700   8.829  31.709  1.00  0.00    -0.267 OA
HETATM   10  H11 UNK     1      18.042   8.358  33.874  1.00  0.00     0.169 HD
BRANCH   8  11
HETATM   11  C10 UNK     1      16.260  10.050  33.621  1.00  0.00     0.108 A 
HETATM   12  C16 UNK     1      15.019  10.209  34.097  1.00  0.00     0.037 A 
HETATM   13  C8  UNK     1      14.728  11.277  35.040  1.00  0.00    -0.001 A 
HETATM   14  C15 UNK     1      15.758  12.126  35.435  1.00  0.00     0.089 A 
HETATM   15  C18 UNK     1      13.449  11.480  35.564  1.00  0.00     0.014 A 
HETATM   16  O1  UNK     1      17.061  11.953  34.930  1.00  0.00    -0.274 OA
HETATM   17  C20 UNK     1      15.545  13.169  36.336  1.00  0.00     0.038 A 
HETATM   18  C19 UNK     1      17.370  10.940  34.026  1.00  0.00     0.304 A 
HETATM   19  O5  UNK     1      18.507  10.799  33.591  1.00  0.00    -0.259 OA
HETATM   20  C23 UNK     1      14.266  13.363  36.853  1.00  0.00     0.003 A 
HETATM   21  C22 UNK     1      13.220  12.522  36.468  1.00  0.00     0.001 A 
ENDBRANCH   8  11
ENDBRANCH   2   7
BRANCH   1  22
HETATM   22  N1  UNK     1      19.403   3.580  30.339  1.00  0.00    -0.281 N 
HETATM   23  H1  UNK     1      20.262   3.722  29.793  1.00  0.00     0.179 HD
BRANCH  22  24
HETATM   24  S1  UNK     1      18.257   2.484  29.665  1.00  0.00     0.263 S 
HETATM   25  O2  UNK     1      17.060   2.487  30.486  1.00  0.00    -0.200 OA
HETATM   26  O3  UNK     1      18.150   2.694  28.235  1.00  0.00    -0.200 OA
BRANCH  24  27
HETATM   27  C1  UNK     1      19.051   0.923  29.924  1.00  0.00     0.079 A 
HETATM   28  C4  UNK     1      19.555   0.235  28.836  1.00  0.00     0.026 A 
HETATM   29  C13 UNK     1      20.181  -0.995  29.040  1.00  0.00     0.008 A 
HETATM   30  C9  UNK     1      20.290  -1.516  30.328  1.00  0.00    -0.062 A 
HETATM   31  C14 UNK     1      19.775  -0.807  31.414  1.00  0.00     0.008 A 
HETATM   32  C21 UNK     1      20.959  -2.832  30.547  1.00  0.00     0.048 C 
HETATM   33  C5  UNK     1      19.150   0.423  31.210  1.00  0.00     0.026 A 
ENDBRANCH  24  27
ENDBRANCH  22  24
ENDBRANCH   1  22
TORSDOF 5
ENDMDL
MODEL 2
REMARK VINA RESULT:     -10.6      1.293      2.035
REMARK  5 active torsions:
REMARK  status: ('A' for Active; 'I' for Inactive)
REMARK    1  A    between atoms: C1_9  and  S1_1 
REMARK    2  A    between atoms: N1_7  and  S1_1 
REMARK    3  A    between atoms: C2_10  and  N1_7 
REMARK       I    between atoms: C17_25  and  N2_8 
REMARK    4  A    between atoms: C3_11  and  N2_8 
REMARK    5  A    between atoms: C10_18  and  C17_25 
ROOT
HETATM    1  C2  UNK     1      18.988   4.674  30.889  1.00  0.00     0.042 A 
HETATM    2  C3  UNK     1      18.115   6.982  32.146  1.00  0.00     0.035 A 
HETATM    3  C6  UNK     1      18.831   5.850  30.156  1.00  0.00     0.032 A 
HETATM    4  C7  UNK     1      18.707   4.660  32.255  1.00  0.00     0.032 A 
HETATM    5  C11 UNK     1      18.391   7.013  30.790  1.00  0.00     0.032 A 
HETATM    6  C12 UNK     1      18.267   5.822  32.889  1.00  0.00     0.032 A 
ENDROOT
BRANCH   2   7
HETATM    7  N2  UNK     1      17.668   8.161  32.789  1.00  0.00    -0.323 N 
HETATM    8  C17 UNK     1      18.367   8.951  33.691  1.00  0.00     0.262 C 
HETATM    9  O4  UNK     1      19.510   8.788  34.116  1.00  0.00    -0.267 OA
HETATM   10  H11 UNK     1      16.729   8.448  32.521  1.00  0.00     0.169 HD
BRANCH   8  11
HETATM   11  C10 UNK     1      17.577  10.101  34.148  1.00  0.00     0.108 A 
HETATM   12  C16 UNK     1      18.134  11.305  33.973  1.00  0.00     0.037 A 
HETATM   13  C8  UNK     1      17.428  12.506  34.395  1.00  0.00    -0.001 A 
HETATM   14  C15 UNK     1      16.172  12.379  34.980  1.00  0.00     0.089 A 
HETATM   15  C18 UNK     1      17.968  13.783  34.231  1.00  0.00     0.014 A 
HETATM   16  O1  UNK     1      15.593  11.107  35.161  1.00  0.00    -0.274 OA
HETATM   17  C20 UNK     1      15.445  13.489  35.405  1.00  0.00     0.038 A 
HETATM   18  C19 UNK     1      16.244   9.941  34.769  1.00  0.00     0.304 A 
HETATM   19  O5  UNK     1      15.732   8.839  34.932  1.00  0.00    -0.259 OA
HETATM   20  C23 UNK     1      15.992  14.759  35.238  1.00  0.00     0.003 A 
HETATM   21  C22 UNK     1      17.251  14.907  34.653  1.00  0.00     0.001 A 
ENDBRANCH   8  11
ENDBRANCH   2   7
BRANCH   1  22
HETATM   22  N1  UNK     1      19.439   3.484  30.241  1.00  0.00    -0.281 N 
HETATM   23  H1  UNK     1      20.286   3.597  29.669  1.00  0.00     0.179 HD
BRANCH  22  24
HETATM   24  S1  UNK     1      18.268   2.372  29.641  1.00  0.00     0.263 S 
HETATM   25  O2  UNK     1      17.098   2.408  30.499  1.00  0.00    -0.200 OA
HETATM   26  O3  UNK     1      18.116   2.536  28.208  1.00  0.00    -0.200 OA
BRANCH  24  27
HETATM   27  C1  UNK     1      19.064   0.816  29.925  1.00  0.00     0.079 A 
HETATM   28  C4  UNK     1      19.602   0.130  28.853  1.00  0.00     0.026 A 
HETATM   29  C13 UNK     1      20.230  -1.096  29.077  1.00  0.00     0.008 A 
HETATM   30  C9  UNK     1      20.307  -1.614  30.369  1.00  0.00    -0.062 A 
HETATM   31  C14 UNK     1      19.758  -0.905  31.438  1.00  0.00     0.008 A 
HETATM   32  C21 UNK     1      20.977  -2.924  30.609  1.00  0.00     0.048 C 
HETATM   33  C5  UNK     1      19.131   0.321  31.215  1.00  0.00     0.026 A 
ENDBRANCH  24  27
ENDBRANCH  22  24
ENDBRANCH   1  22
TORSDOF 5
ENDMDL
MODEL 3
REMARK VINA RESULT:     -10.0      4.976      6.745
REMARK  5 active torsions:
REMARK  status: ('A' for Active; 'I' for Inactive)
REMARK    1  A    between atoms: C1_9  and  S1_1 
REMARK    2  A    between atoms: N1_7  and  S1_1 
REMARK    3  A    between atoms: C2_10  and  N1_7 
REMARK       I    between atoms: C17_25  and  N2_8 
REMARK    4  A    between atoms: C3_11  and  N2_8 
REMARK    5  A    between atoms: C10_18  and  C17_25 
ROOT
HETATM    1  C2  UNK     1      18.651  -0.390  35.091  1.00  0.00     0.042 A 
HETATM    2  C3  UNK     1      18.415   2.322  34.586  1.00  0.00     0.035 A 
HETATM    3  C6  UNK     1      18.405   0.058  33.793  1.00  0.00     0.032 A 
HETATM    4  C7  UNK     1      18.778   0.527  36.134  1.00  0.00     0.032 A 
HETATM    5  C11 UNK     1      18.287   1.425  33.539  1.00  0.00     0.032 A 
HETATM    6  C12 UNK     1      18.659   1.893  35.880  1.00  0.00     0.032 A 
ENDROOT
BRANCH   2   7
HETATM    7  N2  UNK     1      18.294   3.709  34.328  1.00  0.00    -0.323 N 
HETATM    8  C17 UNK     1      18.069   4.326  33.105  1.00  0.00     0.262 C 
HETATM    9  O4  UNK     1      17.931   3.799  32.002  1.00  0.00    -0.267 OA
HETATM   10  H11 UNK     1      18.365   4.292  35.158  1.00  0.00     0.169 HD
BRANCH   8  11
HETATM   11  C10 UNK     1      18.001   5.788  33.227  1.00  0.00     0.108 A 
HETATM   12  C16 UNK     1      19.081   6.388  33.738  1.00  0.00     0.037 A 
HETATM   13  C8  UNK     1      19.109   7.834  33.899  1.00  0.00    -0.001 A 
HETATM   14  C15 UNK     1      17.996   8.575  33.513  1.00  0.00     0.089 A 
HETATM   15  C18 UNK     1      20.214   8.504  34.426  1.00  0.00     0.014 A 
HETATM   16  O1  UNK     1      16.861   7.936  32.976  1.00  0.00    -0.274 OA
HETATM   17  C20 UNK     1      17.958   9.963  33.641  1.00  0.00     0.038 A 
HETATM   18  C19 UNK     1      16.806   6.555  32.810  1.00  0.00     0.304 A 
HETATM   19  O5  UNK     1      15.814   6.008  32.343  1.00  0.00    -0.259 OA
HETATM   20  C23 UNK     1      19.066  10.622  34.168  1.00  0.00     0.003 A 
HETATM   21  C22 UNK     1      20.192   9.895  34.561  1.00  0.00     0.001 A 
ENDBRANCH   8  11
ENDBRANCH   2   7
BRANCH   1  22
HETATM   22  N1  UNK     1      18.772  -1.789  35.352  1.00  0.00    -0.281 N 
HETATM   23  H1  UNK     1      18.195  -2.136  36.129  1.00  0.00     0.179 HD
BRANCH  22  24
HETATM   24  S1  UNK     1      20.314  -2.536  35.168  1.00  0.00     0.263 S 
HETATM   25  O2  UNK     1      20.451  -3.006  33.802  1.00  0.00    -0.200 OA
HETATM   26  O3  UNK     1      21.345  -1.698  35.749  1.00  0.00    -0.200 OA
BRANCH  24  27
HETATM   27  C1  UNK     1      20.146  -3.972  36.189  1.00  0.00     0.079 A 
HETATM   28  C4  UNK     1      19.471  -5.073  35.697  1.00  0.00     0.026 A 
HETATM   29  C13 UNK     1      19.338  -6.205  36.501  1.00  0.00     0.008 A 
HETATM   30  C9  UNK     1      19.882  -6.216  37.785  1.00  0.00    -0.062 A 
HETATM   31  C14 UNK     1      20.560  -5.094  38.264  1.00  0.00     0.008 A 
HETATM   32  C21 UNK     1      19.741  -7.426  38.645  1.00  0.00     0.048 C 
HETATM   33  C5  UNK     1      20.693  -3.963  37.459  1.00  0.00     0.026 A 
ENDBRANCH  24  27
ENDBRANCH  22  24
ENDBRANCH   1  22
TORSDOF 5
ENDMDL
MODEL 4
REMARK VINA RESULT:     -10.0      5.154     12.343
REMARK  5 active torsions:
REMARK  status: ('A' for Active; 'I' for Inactive)
REMARK    1  A    between atoms: C1_9  and  S1_1 
REMARK    2  A    between atoms: N1_7  and  S1_1 
REMARK    3  A    between atoms: C2_10  and  N1_7 
REMARK       I    between atoms: C17_25  and  N2_8 
REMARK    4  A    between atoms: C3_11  and  N2_8 
REMARK    5  A    between atoms: C10_18  and  C17_25 
ROOT
HETATM    1  C2  UNK     1      19.686   0.474  30.868  1.00  0.00     0.042 A 
HETATM    2  C3  UNK     1      19.656  -1.463  32.847  1.00  0.00     0.035 A 
HETATM    3  C6  UNK     1      18.912   0.660  32.013  1.00  0.00     0.032 A 
HETATM    4  C7  UNK     1      20.446  -0.686  30.719  1.00  0.00     0.032 A 
HETATM    5  C11 UNK     1      18.897  -0.317  33.010  1.00  0.00     0.032 A 
HETATM    6  C12 UNK     1      20.431  -1.662  31.716  1.00  0.00     0.032 A 
ENDROOT
BRANCH   2   7
HETATM    7  N2  UNK     1      19.640  -2.453  33.858  1.00  0.00    -0.323 N 
HETATM    8  C17 UNK     1      20.554  -2.626  34.888  1.00  0.00     0.262 C 
HETATM    9  O4  UNK     1      21.560  -1.961  35.130  1.00  0.00    -0.267 OA
HETATM   10  H11 UNK     1      18.842  -3.082  33.809  1.00  0.00     0.169 HD
BRANCH   8  11
HETATM   11  C10 UNK     1      20.209  -3.764  35.749  1.00  0.00     0.108 A 
HETATM   12  C16 UNK     1      20.115  -4.954  35.145  1.00  0.00     0.037 A 
HETATM   13  C8  UNK     1      19.777  -6.142  35.915  1.00  0.00    -0.001 A 
HETATM   14  C15 UNK     1      19.555  -6.017  37.283  1.00  0.00     0.089 A 
HETATM   15  C18 UNK     1      19.670  -7.404  35.328  1.00  0.00     0.014 A 
HETATM   16  O1  UNK     1      19.655  -4.760  37.912  1.00  0.00    -0.274 OA
HETATM   17  C20 UNK     1      19.227  -7.115  38.077  1.00  0.00     0.038 A 
HETATM   18  C19 UNK     1      19.976  -3.607  37.201  1.00  0.00     0.304 A 
HETATM   19  O5  UNK     1      20.060  -2.518  37.759  1.00  0.00    -0.259 OA
HETATM   20  C23 UNK     1      19.122  -8.370  37.482  1.00  0.00     0.003 A 
HETATM   21  C22 UNK     1      19.342  -8.515  36.111  1.00  0.00     0.001 A 
ENDBRANCH   8  11
ENDBRANCH   2   7
BRANCH   1  22
HETATM   22  N1  UNK     1      19.703   1.473  29.847  1.00  0.00    -0.281 N 
HETATM   23  H1  UNK     1      20.613   1.928  29.702  1.00  0.00     0.179 HD
BRANCH  22  24
HETATM   24  S1  UNK     1      18.319   2.479  29.649  1.00  0.00     0.263 S 
HETATM   25  O2  UNK     1      18.272   2.954  28.278  1.00  0.00    -0.200 OA
HETATM   26  O3  UNK     1      17.153   1.842  30.231  1.00  0.00    -0.200 OA
BRANCH  24  27
HETATM   27  C1  UNK     1      18.734   3.872  30.659  1.00  0.00     0.079 A 
HETATM   28  C4  UNK     1      18.184   3.975  31.923  1.00  0.00     0.026 A 
HETATM   29  C13 UNK     1      18.511   5.072  32.720  1.00  0.00     0.008 A 
HETATM   30  C9  UNK     1      19.382   6.049  32.237  1.00  0.00    -0.062 A 
HETATM   31  C14 UNK     1      19.927   5.927  30.959  1.00  0.00     0.008 A 
HETATM   32  C21 UNK     1      19.732   7.223  33.088  1.00  0.00     0.048 C 
HETATM   33  C5  UNK     1      19.601   4.829  30.163  1.00  0.00     0.026 A 
ENDBRANCH  24  27
ENDBRANCH  22  24
ENDBRANCH   1  22
TORSDOF 5
ENDMDL
MODEL 5
REMARK VINA RESULT:      -9.8      4.974      6.470
REMARK  5 active torsions:
REMARK  status: ('A' for Active; 'I' for Inactive)
REMARK    1  A    between atoms: C1_9  and  S1_1 
REMARK    2  A    between atoms: N1_7  and  S1_1 
REMARK    3  A    between atoms: C2_10  and  N1_7 
REMARK       I    between atoms: C17_25  and  N2_8 
REMARK    4  A    between atoms: C3_11  and  N2_8 
REMARK    5  A    between atoms: C10_18  and  C17_25 
ROOT
HETATM    1  C2  UNK     1      18.704  -0.367  35.144  1.00  0.00     0.042 A 
HETATM    2  C3  UNK     1      18.508   2.365  34.735  1.00  0.00     0.035 A 
HETATM    3  C6  UNK     1      18.966   0.515  36.192  1.00  0.00     0.032 A 
HETATM    4  C7  UNK     1      18.343   0.126  33.890  1.00  0.00     0.032 A 
HETATM    5  C11 UNK     1      18.867   1.892  35.985  1.00  0.00     0.032 A 
HETATM    6  C12 UNK     1      18.244   1.502  33.684  1.00  0.00     0.032 A 
ENDROOT
BRANCH   2   7
HETATM    7  N2  UNK     1      18.408   3.761  34.526  1.00  0.00    -0.323 N 
HETATM    8  C17 UNK     1      18.109   4.420  33.341  1.00  0.00     0.262 C 
HETATM    9  O4  UNK     1      17.873   3.930  32.238  1.00  0.00    -0.267 OA
HETATM   10  H11 UNK     1      18.558   4.317  35.364  1.00  0.00     0.169 HD
BRANCH   8  11
HETATM   11  C10 UNK     1      18.093   5.879  33.509  1.00  0.00     0.108 A 
HETATM   12  C16 UNK     1      16.894   6.435  33.723  1.00  0.00     0.037 A 
HETATM   13  C8  UNK     1      16.776   7.874  33.900  1.00  0.00    -0.001 A 
HETATM   14  C15 UNK     1      17.926   8.657  33.843  1.00  0.00     0.089 A 
HETATM   15  C18 UNK     1      15.547   8.498  34.127  1.00  0.00     0.014 A 
HETATM   16  O1  UNK     1      19.183   8.064  33.616  1.00  0.00    -0.274 OA
HETATM   17  C20 UNK     1      17.880  10.040  34.004  1.00  0.00     0.038 A 
HETATM   18  C19 UNK     1      19.328   6.690  33.443  1.00  0.00     0.304 A 
HETATM   19  O5  UNK     1      20.427   6.185  33.245  1.00  0.00    -0.259 OA
HETATM   20  C23 UNK     1      16.650  10.654  34.230  1.00  0.00     0.003 A 
HETATM   21  C22 UNK     1      15.486   9.885  34.291  1.00  0.00     0.001 A 
ENDBRANCH   8  11
ENDBRANCH   2   7
BRANCH   1  22
HETATM   22  N1  UNK     1      18.805  -1.776  35.355  1.00  0.00    -0.281 N 
HETATM   23  H1  UNK     1      18.223  -2.142  36.120  1.00  0.00     0.179 HD
BRANCH  22  24
HETATM   24  S1  UNK     1      20.334  -2.539  35.143  1.00  0.00     0.263 S 
HETATM   25  O2  UNK     1      20.457  -2.976  33.764  1.00  0.00    -0.200 OA
HETATM   26  O3  UNK     1      21.380  -1.730  35.738  1.00  0.00    -0.200 OA
BRANCH  24  27
HETATM   27  C1  UNK     1      20.153  -3.998  36.128  1.00  0.00     0.079 A 
HETATM   28  C4  UNK     1      20.493  -3.952  37.467  1.00  0.00     0.026 A 
HETATM   29  C13 UNK     1      20.350  -5.102  38.245  1.00  0.00     0.008 A 
HETATM   30  C9  UNK     1      19.871  -6.278  37.668  1.00  0.00    -0.062 A 
HETATM   31  C14 UNK     1      19.533  -6.304  36.315  1.00  0.00     0.008 A 
HETATM   32  C21 UNK     1      19.718  -7.508  38.499  1.00  0.00     0.048 C 
HETATM   33  C5  UNK     1      19.675  -5.154  35.538  1.00  0.00     0.026 A 
ENDBRANCH  24  27
ENDBRANCH  22  24
ENDBRANCH   1  22
TORSDOF 5
ENDMDL
MODEL 6
REMARK VINA RESULT:      -9.7      6.679     10.237
REMARK  5 active torsions:
REMARK  status: ('A' for Active; 'I' for Inactive)
REMARK    1  A    between atoms: C1_9  and  S1_1 
REMARK    2  A    between atoms: N1_7  and  S1_1 
REMARK    3  A    between atoms: C2_10  and  N1_7 
REMARK       I    between atoms: C17_25  and  N2_8 
REMARK    4  A    between atoms: C3_11  and  N2_8 
REMARK    5  A    between atoms: C10_18  and  C17_25 
ROOT
HETATM    1  C2  UNK     1      19.942  -4.166  36.618  1.00  0.00     0.042 A 
HETATM    2  C3  UNK     1      19.466  -1.678  35.498  1.00  0.00     0.035 A 
HETATM    3  C6  UNK     1      19.239  -3.200  37.337  1.00  0.00     0.032 A 
HETATM    4  C7  UNK     1      20.406  -3.879  35.334  1.00  0.00     0.032 A 
HETATM    5  C11 UNK     1      18.999  -1.947  36.773  1.00  0.00     0.032 A 
HETATM    6  C12 UNK     1      20.166  -2.626  34.769  1.00  0.00     0.032 A 
ENDROOT
BRANCH   2   7
HETATM    7  N2  UNK     1      19.223  -0.406  34.926  1.00  0.00    -0.323 N 
HETATM    8  C17 UNK     1      18.164  -0.033  34.110  1.00  0.00     0.262 C 
HETATM    9  O4  UNK     1      17.227  -0.726  33.719  1.00  0.00    -0.267 OA
HETATM   10  H11 UNK     1      19.912   0.299  35.178  1.00  0.00     0.169 HD
BRANCH   8  11
HETATM   11  C10 UNK     1      18.245   1.377  33.708  1.00  0.00     0.108 A 
HETATM   12  C16 UNK     1      18.407   1.609  32.400  1.00  0.00     0.037 A 
HETATM   13  C8  UNK     1      18.499   2.973  31.904  1.00  0.00    -0.001 A 
HETATM   14  C15 UNK     1      18.416   4.026  32.811  1.00  0.00     0.089 A 
HETATM   15  C18 UNK     1      18.667   3.263  30.549  1.00  0.00     0.014 A 
HETATM   16  O1  UNK     1      18.246   3.774  34.186  1.00  0.00    -0.274 OA
HETATM   17  C20 UNK     1      18.497   5.356  32.400  1.00  0.00     0.038 A 
HETATM   18  C19 UNK     1      18.155   2.479  34.690  1.00  0.00     0.304 A 
HETATM   19  O5  UNK     1      18.008   2.271  35.889  1.00  0.00    -0.259 OA
HETATM   20  C23 UNK     1      18.665   5.635  31.046  1.00  0.00     0.003 A 
HETATM   21  C22 UNK     1      18.750   4.592  30.121  1.00  0.00     0.001 A 
ENDBRANCH   8  11
ENDBRANCH   2   7
BRANCH   1  22
HETATM   22  N1  UNK     1      20.188  -5.449  37.194  1.00  0.00    -0.281 N 
HETATM   23  H1  UNK     1      21.178  -5.725  37.230  1.00  0.00     0.179 HD
BRANCH  22  24
HETATM   24  S1  UNK     1      19.064  -6.720  36.899  1.00  0.00     0.263 S 
HETATM   25  O2  UNK     1      18.385  -7.049  38.139  1.00  0.00    -0.200 OA
HETATM   26  O3  UNK     1      18.288  -6.432  35.708  1.00  0.00    -0.200 OA
BRANCH  24  27
HETATM   27  C1  UNK     1      20.138  -8.078  36.528  1.00  0.00     0.079 A 
HETATM   28  C4  UNK     1      20.754  -8.130  35.292  1.00  0.00     0.026 A 
HETATM   29  C13 UNK     1      21.601  -9.199  34.999  1.00  0.00     0.008 A 
HETATM   30  C9  UNK     1      21.816 -10.197  35.948  1.00  0.00    -0.062 A 
HETATM   31  C14 UNK     1      21.185 -10.127  37.191  1.00  0.00     0.008 A 
HETATM   32  C21 UNK     1      22.721 -11.341  35.636  1.00  0.00     0.048 C 
HETATM   33  C5  UNK     1      20.339  -9.057  37.483  1.00  0.00     0.026 A 
ENDBRANCH  24  27
ENDBRANCH  22  24
ENDBRANCH   1  22
TORSDOF 5
ENDMDL
MODEL 7
REMARK VINA RESULT:      -9.6      8.612     12.791
REMARK  5 active torsions:
REMARK  status: ('A' for Active; 'I' for Inactive)
REMARK    1  A    between atoms: C1_9  and  S1_1 
REMARK    2  A    between atoms: N1_7  and  S1_1 
REMARK    3  A    between atoms: C2_10  and  N1_7 
REMARK       I    between atoms: C17_25  and  N2_8 
REMARK    4  A    between atoms: C3_11  and  N2_8 
REMARK    5  A    between atoms: C10_18  and  C17_25 
ROOT
HETATM    1  C2  UNK     1      20.489  -5.592  38.088  1.00  0.00     0.042 A 
HETATM    2  C3  UNK     1      20.063  -3.780  36.038  1.00  0.00     0.035 A 
HETATM    3  C6  UNK     1      20.783  -4.242  38.278  1.00  0.00     0.032 A 
HETATM    4  C7  UNK     1      19.979  -6.030  36.866  1.00  0.00     0.032 A 
HETATM    5  C11 UNK     1      20.568  -3.329  37.245  1.00  0.00     0.032 A 
HETATM    6  C12 UNK     1      19.764  -5.117  35.832  1.00  0.00     0.032 A 
ENDROOT
BRANCH   2   7
HETATM    7  N2  UNK     1      19.845  -2.854  34.989  1.00  0.00    -0.323 N 
HETATM    8  C17 UNK     1      18.954  -1.790  34.971  1.00  0.00     0.262 C 
HETATM    9  O4  UNK     1      18.175  -1.437  35.855  1.00  0.00    -0.267 OA
HETATM   10  H11 UNK     1      20.441  -3.000  34.178  1.00  0.00     0.169 HD
BRANCH   8  11
HETATM   11  C10 UNK     1      19.008  -1.044  33.707  1.00  0.00     0.108 A 
HETATM   12  C16 UNK     1      19.586  -1.671  32.676  1.00  0.00     0.037 A 
HETATM   13  C8  UNK     1      19.688  -1.014  31.382  1.00  0.00    -0.001 A 
HETATM   14  C15 UNK     1      19.177   0.273  31.239  1.00  0.00     0.089 A 
HETATM   15  C18 UNK     1      20.281  -1.630  30.278  1.00  0.00     0.014 A 
HETATM   16  O1  UNK     1      18.570   0.927  32.329  1.00  0.00    -0.274 OA
HETATM   17  C20 UNK     1      19.243   0.958  30.027  1.00  0.00     0.038 A 
HETATM   18  C19 UNK     1      18.459   0.323  33.579  1.00  0.00     0.304 A 
HETATM   19  O5  UNK     1      17.930   0.902  34.521  1.00  0.00    -0.259 OA
HETATM   20  C23 UNK     1      19.836   0.335  28.931  1.00  0.00     0.003 A 
HETATM   21  C22 UNK     1      20.355  -0.956  29.056  1.00  0.00     0.001 A 
ENDBRANCH   8  11
ENDBRANCH   2   7
BRANCH   1  22
HETATM   22  N1  UNK     1      20.708  -6.526  39.145  1.00  0.00    -0.281 N 
HETATM   23  H1  UNK     1      20.279  -6.272  40.044  1.00  0.00     0.179 HD
BRANCH  22  24
HETATM   24  S1  UNK     1      22.229  -7.330  39.239  1.00  0.00     0.263 S 
HETATM   25  O2  UNK     1      23.270  -6.427  38.784  1.00  0.00    -0.200 OA
HETATM   26  O3  UNK     1      22.361  -7.994  40.522  1.00  0.00    -0.200 OA
BRANCH  24  27
HETATM   27  C1  UNK     1      22.058  -8.581  37.998  1.00  0.00     0.079 A 
HETATM   28  C4  UNK     1      20.922  -9.369  37.990  1.00  0.00     0.026 A 
HETATM   29  C13 UNK     1      20.786 -10.355  37.012  1.00  0.00     0.008 A 
HETATM   30  C9  UNK     1      21.790 -10.535  36.060  1.00  0.00    -0.062 A 
HETATM   31  C14 UNK     1      22.928  -9.729  36.086  1.00  0.00     0.008 A 
HETATM   32  C21 UNK     1      21.645 -11.589  35.015  1.00  0.00     0.048 C 
HETATM   33  C5  UNK     1      23.063  -8.743  37.063  1.00  0.00     0.026 A 
ENDBRANCH  24  27
ENDBRANCH  22  24
ENDBRANCH   1  22
TORSDOF 5
ENDMDL
MODEL 8
REMARK VINA RESULT:      -9.5      6.589      9.954
REMARK  5 active torsions:
REMARK  status: ('A' for Active; 'I' for Inactive)
REMARK    1  A    between atoms: C1_9  and  S1_1 
REMARK    2  A    between atoms: N1_7  and  S1_1 
REMARK    3  A    between atoms: C2_10  and  N1_7 
REMARK       I    between atoms: C17_25  and  N2_8 
REMARK    4  A    between atoms: C3_11  and  N2_8 
REMARK    5  A    between atoms: C10_18  and  C17_25 
ROOT
HETATM    1  C2  UNK     1      19.263  -3.126  36.521  1.00  0.00     0.042 A 
HETATM    2  C3  UNK     1      19.102  -0.950  34.815  1.00  0.00     0.035 A 
HETATM    3  C6  UNK     1      18.386  -2.080  36.806  1.00  0.00     0.032 A 
HETATM    4  C7  UNK     1      20.060  -3.077  35.377  1.00  0.00     0.032 A 
HETATM    5  C11 UNK     1      18.305  -0.984  35.946  1.00  0.00     0.032 A 
HETATM    6  C12 UNK     1      19.978  -1.981  34.517  1.00  0.00     0.032 A 
ENDROOT
BRANCH   2   7
HETATM    7  N2  UNK     1      19.020   0.162  33.944  1.00  0.00    -0.323 N 
HETATM    8  C17 UNK     1      17.915   0.965  33.698  1.00  0.00     0.262 C 
HETATM    9  O4  UNK     1      16.788   0.874  34.181  1.00  0.00    -0.267 OA
HETATM   10  H11 UNK     1      19.894   0.385  33.474  1.00  0.00     0.169 HD
BRANCH   8  11
HETATM   11  C10 UNK     1      18.208   2.029  32.730  1.00  0.00     0.108 A 
HETATM   12  C16 UNK     1      18.044   3.284  33.165  1.00  0.00     0.037 A 
HETATM   13  C8  UNK     1      18.310   4.407  32.279  1.00  0.00    -0.001 A 
HETATM   14  C15 UNK     1      18.734   4.153  30.978  1.00  0.00     0.089 A 
HETATM   15  C18 UNK     1      18.154   5.733  32.689  1.00  0.00     0.014 A 
HETATM   16  O1  UNK     1      18.904   2.829  30.527  1.00  0.00    -0.274 OA
HETATM   17  C20 UNK     1      19.005   5.184  30.080  1.00  0.00     0.038 A 
HETATM   18  C19 UNK     1      18.658   1.735  31.352  1.00  0.00     0.304 A 
HETATM   19  O5  UNK     1      18.808   0.587  30.949  1.00  0.00    -0.259 OA
HETATM   20  C23 UNK     1      18.846   6.503  30.498  1.00  0.00     0.003 A 
HETATM   21  C22 UNK     1      18.421   6.778  31.800  1.00  0.00     0.001 A 
ENDBRANCH   8  11
ENDBRANCH   2   7
BRANCH   1  22
HETATM   22  N1  UNK     1      19.347  -4.248  37.400  1.00  0.00    -0.281 N 
HETATM   23  H1  UNK     1      19.938  -4.105  38.230  1.00  0.00     0.179 HD
BRANCH  22  24
HETATM   24  S1  UNK     1      19.373  -5.832  36.723  1.00  0.00     0.263 S 
HETATM   25  O2  UNK     1      18.039  -6.399  36.795  1.00  0.00    -0.200 OA
HETATM   26  O3  UNK     1      20.085  -5.821  35.460  1.00  0.00    -0.200 OA
BRANCH  24  27
HETATM   27  C1  UNK     1      20.367  -6.712  37.895  1.00  0.00     0.079 A 
HETATM   28  C4  UNK     1      19.892  -7.898  38.423  1.00  0.00     0.026 A 
HETATM   29  C13 UNK     1      20.675  -8.592  39.346  1.00  0.00     0.008 A 
HETATM   30  C9  UNK     1      21.917  -8.087  39.726  1.00  0.00    -0.062 A 
HETATM   31  C14 UNK     1      22.379  -6.887  39.181  1.00  0.00     0.008 A 
HETATM   32  C21 UNK     1      22.754  -8.828  40.713  1.00  0.00     0.048 C 
HETATM   33  C5  UNK     1      21.597  -6.194  38.258  1.00  0.00     0.026 A 
ENDBRANCH  24  27
ENDBRANCH  22  24
ENDBRANCH   1  22
TORSDOF 5
ENDMDL
MODEL 9
REMARK VINA RESULT:      -9.4      2.481     11.473
REMARK  5 active torsions:
REMARK  status: ('A' for Active; 'I' for Inactive)
REMARK    1  A    between atoms: C1_9  and  S1_1 
REMARK    2  A    between atoms: N1_7  and  S1_1 
REMARK    3  A    between atoms: C2_10  and  N1_7 
REMARK       I    between atoms: C17_25  and  N2_8 
REMARK    4  A    between atoms: C3_11  and  N2_8 
REMARK    5  A    between atoms: C10_18  and  C17_25 
ROOT
HETATM    1  C2  UNK     1      16.921   8.499  33.429  1.00  0.00     0.042 A 
HETATM    2  C3  UNK     1      17.624   5.876  32.888  1.00  0.00     0.035 A 
HETATM    3  C6  UNK     1      18.044   7.939  34.037  1.00  0.00     0.032 A 
HETATM    4  C7  UNK     1      16.152   7.739  32.548  1.00  0.00     0.032 A 
HETATM    5  C11 UNK     1      18.398   6.617  33.764  1.00  0.00     0.032 A 
HETATM    6  C12 UNK     1      16.506   6.417  32.275  1.00  0.00     0.032 A 
ENDROOT
BRANCH   2   7
HETATM    7  N2  UNK     1      17.983   4.535  32.611  1.00  0.00    -0.323 N 
HETATM    8  C17 UNK     1      18.409   4.004  31.402  1.00  0.00     0.262 C 
HETATM    9  O4  UNK     1      18.560   4.586  30.329  1.00  0.00    -0.267 OA
HETATM   10  H11 UNK     1      17.931   3.918  33.419  1.00  0.00     0.169 HD
BRANCH   8  11
HETATM   11  C10 UNK     1      18.694   2.567  31.497  1.00  0.00     0.108 A 
HETATM   12  C16 UNK     1      19.263   2.006  30.424  1.00  0.00     0.037 A 
HETATM   13  C8  UNK     1      19.583   0.587  30.422  1.00  0.00    -0.001 A 
HETATM   14  C15 UNK     1      19.288  -0.171  31.552  1.00  0.00     0.089 A 
HETATM   15  C18 UNK     1      20.178  -0.042  29.326  1.00  0.00     0.014 A 
HETATM   16  O1  UNK     1      18.689   0.427  32.678  1.00  0.00    -0.274 OA
HETATM   17  C20 UNK     1      19.569  -1.535  31.614  1.00  0.00     0.038 A 
HETATM   18  C19 UNK     1      18.371   1.782  32.708  1.00  0.00     0.304 A 
HETATM   19  O5  UNK     1      17.848   2.292  33.693  1.00  0.00    -0.259 OA
HETATM   20  C23 UNK     1      20.162  -2.153  30.516  1.00  0.00     0.003 A 
HETATM   21  C22 UNK     1      20.466  -1.409  29.374  1.00  0.00     0.001 A 
ENDBRANCH   8  11
ENDBRANCH   2   7
BRANCH   1  22
HETATM   22  N1  UNK     1      16.559   9.852  33.707  1.00  0.00    -0.281 N 
HETATM   23  H1  UNK     1      17.245  10.378  34.265  1.00  0.00     0.179 HD
BRANCH  22  24
HETATM   24  S1  UNK     1      14.903  10.222  34.009  1.00  0.00     0.263 S 
HETATM   25  O2  UNK     1      14.353  10.903  32.851  1.00  0.00    -0.200 OA
HETATM   26  O3  UNK     1      14.225   9.061  34.551  1.00  0.00    -0.200 OA
BRANCH  24  27
HETATM   27  C1  UNK     1      15.029  11.427  35.299  1.00  0.00     0.079 A 
HETATM   28  C4  UNK     1      16.086  12.318  35.288  1.00  0.00     0.026 A 
HETATM   29  C13 UNK     1      16.185  13.268  36.305  1.00  0.00     0.008 A 
HETATM   30  C9  UNK     1      15.225  13.309  37.316  1.00  0.00    -0.062 A 
HETATM   31  C14 UNK     1      14.166  12.401  37.310  1.00  0.00     0.008 A 
HETATM   32  C21 UNK     1      15.331  14.324  38.404  1.00  0.00     0.048 C 
HETATM   33  C5  UNK     1      14.066  11.452  36.292  1.00  0.00     0.026 A 
ENDBRANCH  24  27
ENDBRANCH  22  24
ENDBRANCH   1  22
TORSDOF 5
ENDMDL
MODEL 10
REMARK VINA RESULT:      -9.4      6.135      9.473
REMARK  5 active torsions:
REMARK  status: ('A' for Active; 'I' for Inactive)
REMARK    1  A    between atoms: C1_9  and  S1_1 
REMARK    2  A    between atoms: N1_7  and  S1_1 
REMARK    3  A    between atoms: C2_10  and  N1_7 
REMARK       I    between atoms: C17_25  and  N2_8 
REMARK    4  A    between atoms: C3_11  and  N2_8 
REMARK    5  A    between atoms: C10_18  and  C17_25 
ROOT
HETATM    1  C2  UNK     1      19.194  -3.478  36.290  1.00  0.00     0.042 A 
HETATM    2  C3  UNK     1      19.028  -1.031  35.004  1.00  0.00     0.035 A 
HETATM    3  C6  UNK     1      18.514  -2.419  36.891  1.00  0.00     0.032 A 
HETATM    4  C7  UNK     1      19.790  -3.305  35.041  1.00  0.00     0.032 A 
HETATM    5  C11 UNK     1      18.430  -1.186  36.242  1.00  0.00     0.032 A 
HETATM    6  C12 UNK     1      19.707  -2.072  34.392  1.00  0.00     0.032 A 
ENDROOT
BRANCH   2   7
HETATM    7  N2  UNK     1      18.944   0.220  34.346  1.00  0.00    -0.323 N 
HETATM    8  C17 UNK     1      17.796   0.906  33.975  1.00  0.00     0.262 C 
HETATM    9  O4  UNK     1      16.624   0.569  34.138  1.00  0.00    -0.267 OA
HETATM   10  H11 UNK     1      19.846   0.649  34.157  1.00  0.00     0.169 HD
BRANCH   8  11
HETATM   11  C10 UNK     1      18.101   2.179  33.312  1.00  0.00     0.108 A 
HETATM   12  C16 UNK     1      18.108   3.265  34.094  1.00  0.00     0.037 A 
HETATM   13  C8  UNK     1      18.400   4.573  33.528  1.00  0.00    -0.001 A 
HETATM   14  C15 UNK     1      18.670   4.673  32.166  1.00  0.00     0.089 A 
HETATM   15  C18 UNK     1      18.420   5.733  34.305  1.00  0.00     0.014 A 
HETATM   16  O1  UNK     1      18.660   3.526  31.349  1.00  0.00    -0.274 OA
HETATM   17  C20 UNK     1      18.956   5.896  31.563  1.00  0.00     0.038 A 
HETATM   18  C19 UNK     1      18.384   2.261  31.862  1.00  0.00     0.304 A 
HETATM   19  O5  UNK     1      18.378   1.269  31.142  1.00  0.00    -0.259 OA
HETATM   20  C23 UNK     1      18.974   7.048  32.346  1.00  0.00     0.003 A 
HETATM   21  C22 UNK     1      18.706   6.968  33.714  1.00  0.00     0.001 A 
ENDBRANCH   8  11
ENDBRANCH   2   7
BRANCH   1  22
HETATM   22  N1  UNK     1      19.279  -4.740  36.953  1.00  0.00    -0.281 N 
HETATM   23  H1  UNK     1      18.440  -5.007  37.484  1.00  0.00     0.179 HD
BRANCH  22  24
HETATM   24  S1  UNK     1      20.786  -5.217  37.637  1.00  0.00     0.263 S 
HETATM   25  O2  UNK     1      21.821  -4.304  37.186  1.00  0.00    -0.200 OA
HETATM   26  O3  UNK     1      20.627  -5.481  39.054  1.00  0.00    -0.200 OA
BRANCH  24  27
HETATM   27  C1  UNK     1      21.080  -6.764  36.828  1.00  0.00     0.079 A 
HETATM   28  C4  UNK     1      21.840  -7.725  37.469  1.00  0.00     0.026 A 
HETATM   29  C13 UNK     1      22.072  -8.944  36.833  1.00  0.00     0.008 A 
HETATM   30  C9  UNK     1      21.540  -9.180  35.565  1.00  0.00    -0.062 A 
HETATM   31  C14 UNK     1      20.776  -8.198  34.935  1.00  0.00     0.008 A 
HETATM   32  C21 UNK     1      21.788 -10.484  34.884  1.00  0.00     0.048 C 
HETATM   33  C5  UNK     1      20.544  -6.979  35.572  1.00  0.00     0.026 A 
ENDBRANCH  24  27
ENDBRANCH  22  24
ENDBRANCH   1  22
TORSDOF 5
ENDMDL
