MODEL 1
REMARK VINA RESULT:      -6.7      0.000      0.000
REMARK  2 active torsions:
REMARK  status: ('A' for Active; 'I' for Inactive)
REMARK    1  A    between atoms: C3_7  and  O2_2 
REMARK    2  A    between atoms: C4_8  and  O3_3 
ROOT
HETATM    1  O1  UNK     1      18.660   0.722  30.910  1.00  0.00    -0.272 OA
HETATM    2  O4  UNK     1      18.543   1.869  28.930  1.00  0.00    -0.260 OA
HETATM    3  C1  UNK     1      20.206  -1.148  31.105  1.00  0.00     0.001 A 
HETATM    4  C2  UNK     1      19.234  -0.322  31.663  1.00  0.00     0.125 A 
HETATM    5  C3  UNK     1      18.794  -0.491  32.975  1.00  0.00     0.136 A 
HETATM    6  C4  UNK     1      19.343  -1.514  33.745  1.00  0.00     0.104 A 
HETATM    7  C5  UNK     1      20.752  -2.171  31.883  1.00  0.00     0.017 A 
HETATM    8  C6  UNK     1      20.320  -2.352  33.200  1.00  0.00     0.040 A 
HETATM    9  C7  UNK     1      20.618  -0.914  29.731  1.00  0.00     0.020 A 
HETATM   10  C8  UNK     1      20.069   0.076  29.023  1.00  0.00     0.083 A 
HETATM   11  C9  UNK     1      19.038   0.964  29.593  1.00  0.00     0.288 A 
ENDROOT
BRANCH   5  12
HETATM   12  O2  UNK     1      17.843   0.330  33.498  1.00  0.00    -0.351 OA
HETATM   13  C10 UNK     1      18.297   1.490  34.194  1.00  0.00     0.210 C 
ENDBRANCH   5  12
BRANCH   6  14
HETATM   14  O3  UNK     1      18.936  -1.709  35.030  1.00  0.00    -0.353 OA
HETATM   15  C11 UNK     1      19.947  -2.014  35.989  1.00  0.00     0.210 C 
ENDBRANCH   6  14
TORSDOF 2
ENDMDL
MODEL 2
REMARK VINA RESULT:      -6.7      2.133      4.089
REMARK  2 active torsions:
REMARK  status: ('A' for Active; 'I' for Inactive)
REMARK    1  A    between atoms: C3_7  and  O2_2 
REMARK    2  A    between atoms: C4_8  and  O3_3 
ROOT
HETATM    1  O1  UNK     1      19.883  -0.734  31.804  1.00  0.00    -0.272 OA
HETATM    2  O4  UNK     1      20.904  -2.752  31.439  1.00  0.00    -0.260 OA
HETATM    3  C1  UNK     1      19.365   0.692  29.900  1.00  0.00     0.001 A 
HETATM    4  C2  UNK     1      19.351   0.458  31.273  1.00  0.00     0.125 A 
HETATM    5  C3  UNK     1      18.816   1.383  32.168  1.00  0.00     0.136 A 
HETATM    6  C4  UNK     1      18.282   2.571  31.674  1.00  0.00     0.104 A 
HETATM    7  C5  UNK     1      18.828   1.885  29.413  1.00  0.00     0.017 A 
HETATM    8  C6  UNK     1      18.288   2.821  30.299  1.00  0.00     0.040 A 
HETATM    9  C7  UNK     1      19.939  -0.316  29.025  1.00  0.00     0.020 A 
HETATM   10  C8  UNK     1      20.442  -1.443  29.536  1.00  0.00     0.083 A 
HETATM   11  C9  UNK     1      20.438  -1.713  30.985  1.00  0.00     0.288 A 
ENDROOT
BRANCH   5  12
HETATM   12  O2  UNK     1      18.814   1.132  33.506  1.00  0.00    -0.351 OA
HETATM   13  C10 UNK     1      17.659   0.489  34.044  1.00  0.00     0.210 C 
ENDBRANCH   5  12
BRANCH   6  14
HETATM   14  O3  UNK     1      17.752   3.498  32.519  1.00  0.00    -0.353 OA
HETATM   15  C11 UNK     1      18.275   4.822  32.439  1.00  0.00     0.210 C 
ENDBRANCH   6  14
TORSDOF 2
ENDMDL
MODEL 3
REMARK VINA RESULT:      -6.5      6.421      9.488
REMARK  2 active torsions:
REMARK  status: ('A' for Active; 'I' for Inactive)
REMARK    1  A    between atoms: C3_7  and  O2_2 
REMARK    2  A    between atoms: C4_8  and  O3_3 
ROOT
HETATM    1  O1  UNK     1      22.021  -6.137  37.780  1.00  0.00    -0.272 OA
HETATM    2  O4  UNK     1      23.794  -5.602  39.128  1.00  0.00    -0.260 OA
HETATM    3  C1  UNK     1      20.710  -8.126  38.282  1.00  0.00     0.001 A 
HETATM    4  C2  UNK     1      20.953  -7.010  37.486  1.00  0.00     0.125 A 
HETATM    5  C3  UNK     1      20.162  -6.713  36.378  1.00  0.00     0.136 A 
HETATM    6  C4  UNK     1      19.100  -7.557  36.061  1.00  0.00     0.104 A 
HETATM    7  C5  UNK     1      19.643  -8.967  37.959  1.00  0.00     0.017 A 
HETATM    8  C6  UNK     1      18.841  -8.682  36.850  1.00  0.00     0.040 A 
HETATM    9  C7  UNK     1      21.576  -8.375  39.423  1.00  0.00     0.020 A 
HETATM   10  C8  UNK     1      22.585  -7.543  39.695  1.00  0.00     0.083 A 
HETATM   11  C9  UNK     1      22.863  -6.355  38.866  1.00  0.00     0.288 A 
ENDROOT
BRANCH   5  12
HETATM   12  O2  UNK     1      20.421  -5.617  35.614  1.00  0.00    -0.351 OA
HETATM   13  C10 UNK     1      19.863  -4.377  36.048  1.00  0.00     0.210 C 
ENDBRANCH   5  12
BRANCH   6  14
HETATM   14  O3  UNK     1      18.306  -7.299  34.985  1.00  0.00    -0.353 OA
HETATM   15  C11 UNK     1      16.902  -7.479  35.159  1.00  0.00     0.210 C 
ENDBRANCH   6  14
TORSDOF 2
ENDMDL
MODEL 4
REMARK VINA RESULT:      -6.4      3.922      5.955
REMARK  2 active torsions:
REMARK  status: ('A' for Active; 'I' for Inactive)
REMARK    1  A    between atoms: C3_7  and  O2_2 
REMARK    2  A    between atoms: C4_8  and  O3_3 
ROOT
HETATM    1  O1  UNK     1      17.653   4.995  33.453  1.00  0.00    -0.272 OA
HETATM    2  O4  UNK     1      17.297   6.857  34.739  1.00  0.00    -0.260 OA
HETATM    3  C1  UNK     1      18.643   5.256  31.244  1.00  0.00     0.001 A 
HETATM    4  C2  UNK     1      18.119   4.440  32.243  1.00  0.00     0.125 A 
HETATM    5  C3  UNK     1      18.032   3.058  32.091  1.00  0.00     0.136 A 
HETATM    6  C4  UNK     1      18.484   2.479  30.907  1.00  0.00     0.104 A 
HETATM    7  C5  UNK     1      19.094   4.668  30.060  1.00  0.00     0.017 A 
HETATM    8  C6  UNK     1      19.014   3.283  29.893  1.00  0.00     0.040 A 
HETATM    9  C7  UNK     1      18.703   6.690  31.470  1.00  0.00     0.020 A 
HETATM   10  C8  UNK     1      18.260   7.208  32.618  1.00  0.00     0.083 A 
HETATM   11  C9  UNK     1      17.700   6.365  33.691  1.00  0.00     0.288 A 
ENDROOT
BRANCH   5  12
HETATM   12  O2  UNK     1      17.515   2.282  33.082  1.00  0.00    -0.351 OA
HETATM   13  C10 UNK     1      18.401   1.890  34.130  1.00  0.00     0.210 C 
ENDBRANCH   5  12
BRANCH   6  14
HETATM   14  O3  UNK     1      18.414   1.131  30.723  1.00  0.00    -0.353 OA
HETATM   15  C11 UNK     1      19.623   0.392  30.890  1.00  0.00     0.210 C 
ENDBRANCH   6  14
TORSDOF 2
ENDMDL
MODEL 5
REMARK VINA RESULT:      -6.3      6.042      9.649
REMARK  2 active torsions:
REMARK  status: ('A' for Active; 'I' for Inactive)
REMARK    1  A    between atoms: C3_7  and  O2_2 
REMARK    2  A    between atoms: C4_8  and  O3_3 
ROOT
HETATM    1  O1  UNK     1      19.491  -9.002  36.678  1.00  0.00    -0.272 OA
HETATM    2  O4  UNK     1      19.182 -11.215  37.183  1.00  0.00    -0.260 OA
HETATM    3  C1  UNK     1      20.158  -7.467  38.446  1.00  0.00     0.001 A 
HETATM    4  C2  UNK     1      19.829  -7.704  37.114  1.00  0.00     0.125 A 
HETATM    5  C3  UNK     1      19.819  -6.681  36.168  1.00  0.00     0.136 A 
HETATM    6  C4  UNK     1      20.148  -5.388  36.568  1.00  0.00     0.104 A 
HETATM    7  C5  UNK     1      20.487  -6.168  38.839  1.00  0.00     0.017 A 
HETATM    8  C6  UNK     1      20.482  -5.132  37.901  1.00  0.00     0.040 A 
HETATM    9  C7  UNK     1      20.149  -8.580  39.379  1.00  0.00     0.020 A 
HETATM   10  C8  UNK     1      19.827  -9.807  38.959  1.00  0.00     0.083 A 
HETATM   11  C9  UNK     1      19.475 -10.083  37.554  1.00  0.00     0.288 A 
ENDROOT
BRANCH   5  12
HETATM   12  O2  UNK     1      19.493  -6.939  34.872  1.00  0.00    -0.351 OA
HETATM   13  C10 UNK     1      20.568  -7.207  33.972  1.00  0.00     0.210 C 
ENDBRANCH   5  12
BRANCH   6  14
HETATM   14  O3  UNK     1      20.148  -4.363  35.670  1.00  0.00    -0.353 OA
HETATM   15  C11 UNK     1      20.127  -3.039  36.200  1.00  0.00     0.210 C 
ENDBRANCH   6  14
TORSDOF 2
ENDMDL
MODEL 6
REMARK VINA RESULT:      -6.2      1.699      2.775
REMARK  2 active torsions:
REMARK  status: ('A' for Active; 'I' for Inactive)
REMARK    1  A    between atoms: C3_7  and  O2_2 
REMARK    2  A    between atoms: C4_8  and  O3_3 
ROOT
HETATM    1  O1  UNK     1      18.581   1.458  31.702  1.00  0.00    -0.272 OA
HETATM    2  O4  UNK     1      17.567   3.497  31.451  1.00  0.00    -0.260 OA
HETATM    3  C1  UNK     1      19.480   0.334  29.738  1.00  0.00     0.001 A 
HETATM    4  C2  UNK     1      19.243   0.362  31.110  1.00  0.00     0.125 A 
HETATM    5  C3  UNK     1      19.645  -0.678  31.945  1.00  0.00     0.136 A 
HETATM    6  C4  UNK     1      20.301  -1.774  31.390  1.00  0.00     0.104 A 
HETATM    7  C5  UNK     1      20.138  -0.769  29.189  1.00  0.00     0.017 A 
HETATM    8  C6  UNK     1      20.547  -1.820  30.015  1.00  0.00     0.040 A 
HETATM    9  C7  UNK     1      19.033   1.453  28.927  1.00  0.00     0.020 A 
HETATM   10  C8  UNK     1      18.406   2.487  29.494  1.00  0.00     0.083 A 
HETATM   11  C9  UNK     1      18.144   2.541  30.945  1.00  0.00     0.288 A 
ENDROOT
BRANCH   5  12
HETATM   12  O2  UNK     1      19.402  -0.627  33.283  1.00  0.00    -0.351 OA
HETATM   13  C10 UNK     1      18.100  -1.014  33.722  1.00  0.00     0.210 C 
ENDBRANCH   5  12
BRANCH   6  14
HETATM   14  O3  UNK     1      20.708  -2.810  32.176  1.00  0.00    -0.353 OA
HETATM   15  C11 UNK     1      21.346  -3.906  31.523  1.00  0.00     0.210 C 
ENDBRANCH   6  14
TORSDOF 2
ENDMDL
MODEL 7
REMARK VINA RESULT:      -6.2      2.503      5.799
REMARK  2 active torsions:
REMARK  status: ('A' for Active; 'I' for Inactive)
REMARK    1  A    between atoms: C3_7  and  O2_2 
REMARK    2  A    between atoms: C4_8  and  O3_3 
ROOT
HETATM    1  O1  UNK     1      18.702   0.595  31.673  1.00  0.00    -0.272 OA
HETATM    2  O4  UNK     1      18.659  -1.527  32.535  1.00  0.00    -0.260 OA
HETATM    3  C1  UNK     1      18.277   2.482  33.152  1.00  0.00     0.001 A 
HETATM    4  C2  UNK     1      18.570   1.983  31.885  1.00  0.00     0.125 A 
HETATM    5  C3  UNK     1      18.742   2.824  30.788  1.00  0.00     0.136 A 
HETATM    6  C4  UNK     1      18.617   4.200  30.965  1.00  0.00     0.104 A 
HETATM    7  C5  UNK     1      18.154   3.862  33.322  1.00  0.00     0.017 A 
HETATM    8  C6  UNK     1      18.324   4.718  32.230  1.00  0.00     0.040 A 
HETATM    9  C7  UNK     1      18.111   1.547  34.252  1.00  0.00     0.020 A 
HETATM   10  C8  UNK     1      18.237   0.234  34.043  1.00  0.00     0.083 A 
HETATM   11  C9  UNK     1      18.546  -0.319  32.711  1.00  0.00     0.288 A 
ENDROOT
BRANCH   5  12
HETATM   12  O2  UNK     1      19.027   2.311  29.559  1.00  0.00    -0.351 OA
HETATM   13  C10 UNK     1      17.921   1.991  28.716  1.00  0.00     0.210 C 
ENDBRANCH   5  12
BRANCH   6  14
HETATM   14  O3  UNK     1      18.778   5.052  29.915  1.00  0.00    -0.353 OA
HETATM   15  C11 UNK     1      19.901   5.930  29.960  1.00  0.00     0.210 C 
ENDBRANCH   6  14
TORSDOF 2
ENDMDL
MODEL 8
REMARK VINA RESULT:      -6.2      6.918      8.904
REMARK  2 active torsions:
REMARK  status: ('A' for Active; 'I' for Inactive)
REMARK    1  A    between atoms: C3_7  and  O2_2 
REMARK    2  A    between atoms: C4_8  and  O3_3 
ROOT
HETATM    1  O1  UNK     1      17.670   9.392  33.163  1.00  0.00    -0.272 OA
HETATM    2  O4  UNK     1      17.855  11.602  33.736  1.00  0.00    -0.260 OA
HETATM    3  C1  UNK     1      19.411   7.839  33.858  1.00  0.00     0.001 A 
HETATM    4  C2  UNK     1      18.207   8.089  33.204  1.00  0.00     0.125 A 
HETATM    5  C3  UNK     1      17.492   7.074  32.571  1.00  0.00     0.136 A 
HETATM    6  C4  UNK     1      17.998   5.776  32.594  1.00  0.00     0.104 A 
HETATM    7  C5  UNK     1      19.911   6.535  33.878  1.00  0.00     0.017 A 
HETATM    8  C6  UNK     1      19.204   5.507  33.246  1.00  0.00     0.040 A 
HETATM    9  C7  UNK     1      20.103   8.944  34.498  1.00  0.00     0.020 A 
HETATM   10  C8  UNK     1      19.588  10.176  34.454  1.00  0.00     0.083 A 
HETATM   11  C9  UNK     1      18.315  10.466  33.768  1.00  0.00     0.288 A 
ENDROOT
BRANCH   5  12
HETATM   12  O2  UNK     1      16.318   7.344  31.938  1.00  0.00    -0.351 OA
HETATM   13  C10 UNK     1      15.123   7.222  32.707  1.00  0.00     0.210 C 
ENDBRANCH   5  12
BRANCH   6  14
HETATM   14  O3  UNK     1      17.326   4.759  31.985  1.00  0.00    -0.353 OA
HETATM   15  C11 UNK     1      18.095   3.627  31.581  1.00  0.00     0.210 C 
ENDBRANCH   6  14
TORSDOF 2
ENDMDL
MODEL 9
REMARK VINA RESULT:      -6.1      6.913      9.148
REMARK  2 active torsions:
REMARK  status: ('A' for Active; 'I' for Inactive)
REMARK    1  A    between atoms: C3_7  and  O2_2 
REMARK    2  A    between atoms: C4_8  and  O3_3 
ROOT
HETATM    1  O1  UNK     1      17.897   6.487  31.282  1.00  0.00    -0.272 OA
HETATM    2  O4  UNK     1      19.193   4.875  30.298  1.00  0.00    -0.260 OA
HETATM    3  C1  UNK     1      18.794   7.737  33.169  1.00  0.00     0.001 A 
HETATM    4  C2  UNK     1      17.758   7.478  32.275  1.00  0.00     0.125 A 
HETATM    5  C3  UNK     1      16.554   8.179  32.325  1.00  0.00     0.136 A 
HETATM    6  C4  UNK     1      16.386   9.164  33.295  1.00  0.00     0.104 A 
HETATM    7  C5  UNK     1      18.617   8.726  34.139  1.00  0.00     0.017 A 
HETATM    8  C6  UNK     1      17.416   9.437  34.200  1.00  0.00     0.040 A 
HETATM    9  C7  UNK     1      20.022   6.968  33.059  1.00  0.00     0.020 A 
HETATM   10  C8  UNK     1      20.146   6.031  32.116  1.00  0.00     0.083 A 
HETATM   11  C9  UNK     1      19.064   5.738  31.158  1.00  0.00     0.288 A 
ENDROOT
BRANCH   5  12
HETATM   12  O2  UNK     1      15.556   7.907  31.440  1.00  0.00    -0.351 OA
HETATM   13  C10 UNK     1      14.508   7.049  31.887  1.00  0.00     0.210 C 
ENDBRANCH   5  12
BRANCH   6  14
HETATM   14  O3  UNK     1      15.223   9.868  33.374  1.00  0.00    -0.353 OA
HETATM   15  C11 UNK     1      14.435   9.687  34.549  1.00  0.00     0.210 C 
ENDBRANCH   6  14
TORSDOF 2
ENDMDL
MODEL 10
REMARK VINA RESULT:      -6.1     23.888     26.195
REMARK  2 active torsions:
REMARK  status: ('A' for Active; 'I' for Inactive)
REMARK    1  A    between atoms: C3_7  and  O2_2 
REMARK    2  A    between atoms: C4_8  and  O3_3 
ROOT
HETATM    1  O1  UNK     1      12.272   5.544   9.642  1.00  0.00    -0.272 OA
HETATM    2  O4  UNK     1      14.373   5.232  10.499  1.00  0.00    -0.260 OA
HETATM    3  C1  UNK     1      12.028   6.125   7.290  1.00  0.00     0.001 A 
HETATM    4  C2  UNK     1      11.459   5.853   8.532  1.00  0.00     0.125 A 
HETATM    5  C3  UNK     1      10.079   5.875   8.727  1.00  0.00     0.136 A 
HETATM    6  C4  UNK     1       9.250   6.178   7.650  1.00  0.00     0.104 A 
HETATM    7  C5  UNK     1      11.189   6.427   6.215  1.00  0.00     0.017 A 
HETATM    8  C6  UNK     1       9.804   6.453   6.396  1.00  0.00     0.040 A 
HETATM    9  C7  UNK     1      13.474   6.084   7.158  1.00  0.00     0.020 A 
HETATM   10  C8  UNK     1      14.237   5.791   8.214  1.00  0.00     0.083 A 
HETATM   11  C9  UNK     1      13.659   5.499   9.539  1.00  0.00     0.288 A 
ENDROOT
BRANCH   5  12
HETATM   12  O2  UNK     1       9.548   5.606   9.951  1.00  0.00    -0.351 OA
HETATM   13  C10 UNK     1       9.122   4.266  10.193  1.00  0.00     0.210 C 
ENDBRANCH   5  12
BRANCH   6  14
HETATM   14  O3  UNK     1       7.897   6.209   7.804  1.00  0.00    -0.353 OA
HETATM   15  C11 UNK     1       7.346   7.353   8.455  1.00  0.00     0.210 C 
ENDBRANCH   6  14
TORSDOF 2
ENDMDL
