MODEL 1
REMARK VINA RESULT:     -10.2      0.000      0.000
REMARK  4 active torsions:
REMARK  status: ('A' for Active; 'I' for Inactive)
REMARK    1  A    between atoms: C1_9  and  N1_6 
REMARK       I    between atoms: C12_20  and  N2_7 
REMARK    2  A    between atoms: C3_11  and  N2_7 
REMARK    3  A    between atoms: C1_9  and  C2_10 
REMARK    4  A    between atoms: C12_20  and  C6_14 
ROOT
HETATM    1  O2  UNK     1      20.061   5.504  29.882  1.00  0.00    -0.267 OA
HETATM    2  N2  UNK     1      18.475   4.085  30.895  1.00  0.00    -0.320 N 
HETATM    3  C12 UNK     1      19.165   5.272  30.693  1.00  0.00     0.262 C 
HETATM    4  H4  UNK     1      17.738   4.051  31.596  1.00  0.00     0.169 HD
ENDROOT
BRANCH   2   5
HETATM    5  C3  UNK     1      18.653   2.876  30.210  1.00  0.00     0.071 A 
HETATM    6  C4  UNK     1      19.386   1.822  30.647  1.00  0.00     0.143 A 
HETATM    7  N1  UNK     1      19.270   0.884  29.663  1.00  0.00    -0.275 N 
HETATM    8  N3  UNK     1      18.509   1.274  28.626  1.00  0.00    -0.183 NA
HETATM    9  C7  UNK     1      18.132   2.508  28.975  1.00  0.00     0.169 A 
BRANCH   7  10
HETATM   10  C1  UNK     1      19.874  -0.428  29.655  1.00  0.00     0.189 C 
BRANCH  10  11
HETATM   11  C2  UNK     1      19.905  -1.026  31.034  1.00  0.00    -0.037 A 
HETATM   12  C10 UNK     1      18.932  -0.670  31.958  1.00  0.00     0.034 A 
HETATM   13  C15 UNK     1      18.962  -1.225  33.237  1.00  0.00     0.056 A 
HETATM   14 Cl1  UNK     1      17.728  -0.753  34.352  1.00  0.00    -0.083 Cl
HETATM   15  C18 UNK     1      19.965  -2.131  33.581  1.00  0.00     0.055 A 
HETATM   16  C16 UNK     1      20.938  -2.483  32.645  1.00  0.00     0.026 A 
HETATM   17 Cl2  UNK     1      20.056  -2.853  35.150  1.00  0.00    -0.083 Cl
HETATM   18  C11 UNK     1      20.909  -1.927  31.366  1.00  0.00     0.011 A 
ENDBRANCH  10  11
ENDBRANCH   7  10
ENDBRANCH   2   5
BRANCH   3  19
HETATM   19  C6  UNK     1      18.710   6.336  31.597  1.00  0.00     0.108 A 
HETATM   20  C13 UNK     1      19.549   6.831  32.711  1.00  0.00     0.304 A 
HETATM   21  O1  UNK     1      19.007   7.843  33.499  1.00  0.00    -0.274 OA
HETATM   22  O3  UNK     1      20.666   6.376  32.934  1.00  0.00    -0.259 OA
HETATM   23  C9  UNK     1      17.726   8.373  33.251  1.00  0.00     0.089 A 
HETATM   24  C17 UNK     1      17.270   9.385  34.094  1.00  0.00     0.038 A 
HETATM   25  C5  UNK     1      16.955   7.893  32.199  1.00  0.00    -0.001 A 
HETATM   26  C20 UNK     1      16.007   9.929  33.874  1.00  0.00     0.003 A 
HETATM   27  C19 UNK     1      15.217   9.460  32.822  1.00  0.00     0.001 A 
HETATM   28  C14 UNK     1      15.688   8.444  31.984  1.00  0.00     0.014 A 
HETATM   29  C8  UNK     1      17.492   6.835  31.356  1.00  0.00     0.037 A 
ENDBRANCH   3  19
TORSDOF 4
ENDMDL
MODEL 2
REMARK VINA RESULT:     -10.2      4.484      9.801
REMARK  4 active torsions:
REMARK  status: ('A' for Active; 'I' for Inactive)
REMARK    1  A    between atoms: C1_9  and  N1_6 
REMARK       I    between atoms: C12_20  and  N2_7 
REMARK    2  A    between atoms: C3_11  and  N2_7 
REMARK    3  A    between atoms: C1_9  and  C2_10 
REMARK    4  A    between atoms: C12_20  and  C6_14 
ROOT
HETATM    1  O2  UNK     1      17.601   3.409  32.687  1.00  0.00    -0.267 OA
HETATM    2  N2  UNK     1      18.565   4.846  31.087  1.00  0.00    -0.320 N 
HETATM    3  C12 UNK     1      18.216   3.624  31.643  1.00  0.00     0.262 C 
HETATM    4  H4  UNK     1      19.061   4.865  30.199  1.00  0.00     0.169 HD
ENDROOT
BRANCH   2   5
HETATM    5  C3  UNK     1      18.290   6.120  31.602  1.00  0.00     0.071 A 
HETATM    6  C4  UNK     1      18.845   6.657  32.717  1.00  0.00     0.143 A 
HETATM    7  N1  UNK     1      18.284   7.896  32.825  1.00  0.00    -0.275 N 
HETATM    8  N3  UNK     1      17.406   8.182  31.848  1.00  0.00    -0.183 NA
HETATM    9  C7  UNK     1      17.417   7.076  31.098  1.00  0.00     0.169 A 
BRANCH   7  10
HETATM   10  C1  UNK     1      18.551   8.870  33.856  1.00  0.00     0.189 C 
BRANCH  10  11
HETATM   11  C2  UNK     1      17.311   9.637  34.222  1.00  0.00    -0.037 A 
HETATM   12  C10 UNK     1      17.282  11.015  34.049  1.00  0.00     0.034 A 
HETATM   13  C15 UNK     1      16.132  11.726  34.389  1.00  0.00     0.056 A 
HETATM   14 Cl1  UNK     1      16.142  13.439  34.154  1.00  0.00    -0.083 Cl
HETATM   15  C18 UNK     1      15.020  11.054  34.899  1.00  0.00     0.055 A 
HETATM   16  C16 UNK     1      15.060   9.671  35.069  1.00  0.00     0.026 A 
HETATM   17 Cl2  UNK     1      13.566  11.880  35.339  1.00  0.00    -0.083 Cl
HETATM   18  C11 UNK     1      16.211   8.959  34.730  1.00  0.00     0.011 A 
ENDBRANCH  10  11
ENDBRANCH   7  10
ENDBRANCH   2   5
BRANCH   3  19
HETATM   19  C6  UNK     1      18.671   2.494  30.823  1.00  0.00     0.108 A 
HETATM   20  C13 UNK     1      18.643   2.537  29.343  1.00  0.00     0.304 A 
HETATM   21  O1  UNK     1      19.102   1.404  28.677  1.00  0.00    -0.274 OA
HETATM   22  O3  UNK     1      18.238   3.518  28.731  1.00  0.00    -0.259 OA
HETATM   23  C9  UNK     1      19.571   0.271  29.372  1.00  0.00     0.089 A 
HETATM   24  C17 UNK     1      20.010  -0.815  28.617  1.00  0.00     0.038 A 
HETATM   25  C5  UNK     1      19.589   0.253  30.762  1.00  0.00    -0.001 A 
HETATM   26  C20 UNK     1      20.480  -1.949  29.276  1.00  0.00     0.003 A 
HETATM   27  C19 UNK     1      20.505  -1.986  30.672  1.00  0.00     0.001 A 
HETATM   28  C14 UNK     1      20.061  -0.889  31.416  1.00  0.00     0.014 A 
HETATM   29  C8  UNK     1      19.116   1.422  31.488  1.00  0.00     0.037 A 
ENDBRANCH   3  19
TORSDOF 4
ENDMDL
MODEL 3
REMARK VINA RESULT:     -10.1      1.586      2.251
REMARK  4 active torsions:
REMARK  status: ('A' for Active; 'I' for Inactive)
REMARK    1  A    between atoms: C1_9  and  N1_6 
REMARK       I    between atoms: C12_20  and  N2_7 
REMARK    2  A    between atoms: C3_11  and  N2_7 
REMARK    3  A    between atoms: C1_9  and  C2_10 
REMARK    4  A    between atoms: C12_20  and  C6_14 
ROOT
HETATM    1  O2  UNK     1      17.904   3.405  33.074  1.00  0.00    -0.267 OA
HETATM    2  N2  UNK     1      18.470   4.103  30.896  1.00  0.00    -0.320 N 
HETATM    3  C12 UNK     1      18.132   4.271  32.231  1.00  0.00     0.262 C 
HETATM    4  H4  UNK     1      18.650   4.923  30.320  1.00  0.00     0.169 HD
ENDROOT
BRANCH   2   5
HETATM    5  C3  UNK     1      18.625   2.891  30.208  1.00  0.00     0.071 A 
HETATM    6  C4  UNK     1      19.383   1.844  30.617  1.00  0.00     0.143 A 
HETATM    7  N1  UNK     1      19.230   0.901  29.643  1.00  0.00    -0.275 N 
HETATM    8  N3  UNK     1      18.422   1.282  28.640  1.00  0.00    -0.183 NA
HETATM    9  C7  UNK     1      18.053   2.515  29.000  1.00  0.00     0.169 A 
BRANCH   7  10
HETATM   10  C1  UNK     1      19.840  -0.407  29.614  1.00  0.00     0.189 C 
BRANCH  10  11
HETATM   11  C2  UNK     1      19.894  -1.019  30.987  1.00  0.00    -0.037 A 
HETATM   12  C10 UNK     1      18.932  -0.675  31.929  1.00  0.00     0.034 A 
HETATM   13  C15 UNK     1      18.983  -1.242  33.201  1.00  0.00     0.056 A 
HETATM   14 Cl1  UNK     1      17.764  -0.785  34.339  1.00  0.00    -0.083 Cl
HETATM   15  C18 UNK     1      19.994  -2.148  33.522  1.00  0.00     0.055 A 
HETATM   16  C16 UNK     1      20.955  -2.487  32.569  1.00  0.00     0.026 A 
HETATM   17 Cl2  UNK     1      20.111  -2.884  35.082  1.00  0.00    -0.083 Cl
HETATM   18  C11 UNK     1      20.905  -1.919  31.296  1.00  0.00     0.011 A 
ENDBRANCH  10  11
ENDBRANCH   7  10
ENDBRANCH   2   5
BRANCH   3  19
HETATM   19  C6  UNK     1      18.060   5.689  32.607  1.00  0.00     0.108 A 
HETATM   20  C13 UNK     1      16.828   6.488  32.420  1.00  0.00     0.304 A 
HETATM   21  O1  UNK     1      16.882   7.822  32.816  1.00  0.00    -0.274 OA
HETATM   22  O3  UNK     1      15.808   6.005  31.941  1.00  0.00    -0.259 OA
HETATM   23  C9  UNK     1      18.049   8.386  33.368  1.00  0.00     0.089 A 
HETATM   24  C17 UNK     1      18.006   9.730  33.734  1.00  0.00     0.038 A 
HETATM   25  C5  UNK     1      19.195   7.617  33.535  1.00  0.00    -0.001 A 
HETATM   26  C20 UNK     1      19.144  10.317  34.283  1.00  0.00     0.003 A 
HETATM   27  C19 UNK     1      20.306   9.560  34.458  1.00  0.00     0.001 A 
HETATM   28  C14 UNK     1      20.333   8.213  34.086  1.00  0.00     0.014 A 
HETATM   29  C8  UNK     1      19.171   6.219  33.131  1.00  0.00     0.037 A 
ENDBRANCH   3  19
TORSDOF 4
ENDMDL
MODEL 4
REMARK VINA RESULT:     -10.1      7.716     10.701
REMARK  4 active torsions:
REMARK  status: ('A' for Active; 'I' for Inactive)
REMARK    1  A    between atoms: C1_9  and  N1_6 
REMARK       I    between atoms: C12_20  and  N2_7 
REMARK    2  A    between atoms: C3_11  and  N2_7 
REMARK    3  A    between atoms: C1_9  and  C2_10 
REMARK    4  A    between atoms: C12_20  and  C6_14 
ROOT
HETATM    1  O2  UNK     1      21.299  -4.325  37.131  1.00  0.00    -0.267 OA
HETATM    2  N2  UNK     1      19.167  -5.143  36.546  1.00  0.00    -0.320 N 
HETATM    3  C12 UNK     1      20.151  -4.179  36.711  1.00  0.00     0.262 C 
HETATM    4  H4  UNK     1      18.263  -4.872  36.166  1.00  0.00     0.169 HD
ENDROOT
BRANCH   2   5
HETATM    5  C3  UNK     1      19.269  -6.512  36.827  1.00  0.00     0.071 A 
HETATM    6  C4  UNK     1      19.827  -7.445  36.015  1.00  0.00     0.143 A 
HETATM    7  N1  UNK     1      19.701  -8.621  36.695  1.00  0.00    -0.275 N 
HETATM    8  N3  UNK     1      19.098  -8.495  37.890  1.00  0.00    -0.183 NA
HETATM    9  C7  UNK     1      18.835  -7.187  37.961  1.00  0.00     0.169 A 
BRANCH   7  10
HETATM   10  C1  UNK     1      20.145  -9.920  36.250  1.00  0.00     0.189 C 
BRANCH  10  11
HETATM   11  C2  UNK     1      21.641 -10.050  36.339  1.00  0.00    -0.037 A 
HETATM   12  C10 UNK     1      22.253 -11.221  35.911  1.00  0.00     0.034 A 
HETATM   13  C15 UNK     1      23.640 -11.341  35.995  1.00  0.00     0.056 A 
HETATM   14 Cl1  UNK     1      24.357 -12.816  35.447  1.00  0.00    -0.083 Cl
HETATM   15  C18 UNK     1      24.402 -10.291  36.507  1.00  0.00     0.055 A 
HETATM   16  C16 UNK     1      23.777  -9.119  36.935  1.00  0.00     0.026 A 
HETATM   17 Cl2  UNK     1      26.124 -10.380  36.637  1.00  0.00    -0.083 Cl
HETATM   18  C11 UNK     1      22.390  -8.999  36.852  1.00  0.00     0.011 A 
ENDBRANCH  10  11
ENDBRANCH   7  10
ENDBRANCH   2   5
BRANCH   3  19
HETATM   19  C6  UNK     1      19.688  -2.844  36.313  1.00  0.00     0.108 A 
HETATM   20  C13 UNK     1      19.990  -2.274  34.980  1.00  0.00     0.304 A 
HETATM   21  O1  UNK     1      19.495  -0.999  34.720  1.00  0.00    -0.274 OA
HETATM   22  O3  UNK     1      20.643  -2.889  34.144  1.00  0.00    -0.259 OA
HETATM   23  C9  UNK     1      18.744  -0.284  35.672  1.00  0.00     0.089 A 
HETATM   24  C17 UNK     1      18.291   0.986  35.319  1.00  0.00     0.038 A 
HETATM   25  C5  UNK     1      18.472  -0.838  36.918  1.00  0.00    -0.001 A 
HETATM   26  C20 UNK     1      17.545   1.718  36.240  1.00  0.00     0.003 A 
HETATM   27  C19 UNK     1      17.262   1.178  37.497  1.00  0.00     0.001 A 
HETATM   28  C14 UNK     1      17.723  -0.098  37.837  1.00  0.00     0.014 A 
HETATM   29  C8  UNK     1      18.975  -2.169  37.222  1.00  0.00     0.037 A 
ENDBRANCH   3  19
TORSDOF 4
ENDMDL
MODEL 5
REMARK VINA RESULT:     -10.1      4.600      6.588
REMARK  4 active torsions:
REMARK  status: ('A' for Active; 'I' for Inactive)
REMARK    1  A    between atoms: C1_9  and  N1_6 
REMARK       I    between atoms: C12_20  and  N2_7 
REMARK    2  A    between atoms: C3_11  and  N2_7 
REMARK    3  A    between atoms: C1_9  and  C2_10 
REMARK    4  A    between atoms: C12_20  and  C6_14 
ROOT
HETATM    1  O2  UNK     1      16.916   0.928  34.821  1.00  0.00    -0.267 OA
HETATM    2  N2  UNK     1      19.031  -0.027  34.410  1.00  0.00    -0.320 N 
HETATM    3  C12 UNK     1      17.982   0.857  34.209  1.00  0.00     0.262 C 
HETATM    4  H4  UNK     1      19.865   0.050  33.832  1.00  0.00     0.169 HD
ENDROOT
BRANCH   2   5
HETATM    5  C3  UNK     1      19.106  -1.048  35.367  1.00  0.00     0.071 A 
HETATM    6  C4  UNK     1      20.237  -1.694  35.746  1.00  0.00     0.143 A 
HETATM    7  N1  UNK     1      19.827  -2.592  36.688  1.00  0.00    -0.275 N 
HETATM    8  N3  UNK     1      18.506  -2.558  36.934  1.00  0.00    -0.183 NA
HETATM    9  C7  UNK     1      18.070  -1.600  36.111  1.00  0.00     0.169 A 
BRANCH   7  10
HETATM   10  C1  UNK     1      20.666  -3.525  37.403  1.00  0.00     0.189 C 
BRANCH  10  11
HETATM   11  C2  UNK     1      20.187  -4.940  37.229  1.00  0.00    -0.037 A 
HETATM   12  C10 UNK     1      20.201  -5.806  38.314  1.00  0.00     0.034 A 
HETATM   13  C15 UNK     1      19.758  -7.118  38.152  1.00  0.00     0.056 A 
HETATM   14 Cl1  UNK     1      19.792  -8.160  39.531  1.00  0.00    -0.083 Cl
HETATM   15  C18 UNK     1      19.303  -7.552  36.906  1.00  0.00     0.055 A 
HETATM   16  C16 UNK     1      19.293  -6.674  35.823  1.00  0.00     0.026 A 
HETATM   17 Cl2  UNK     1      18.741  -9.166  36.642  1.00  0.00    -0.083 Cl
HETATM   18  C11 UNK     1      19.737  -5.362  35.985  1.00  0.00     0.011 A 
ENDBRANCH  10  11
ENDBRANCH   7  10
ENDBRANCH   2   5
BRANCH   3  19
HETATM   19  C6  UNK     1      18.253   1.796  33.112  1.00  0.00     0.108 A 
HETATM   20  C13 UNK     1      18.658   1.332  31.766  1.00  0.00     0.304 A 
HETATM   21  O1  UNK     1      18.887   2.318  30.809  1.00  0.00    -0.274 OA
HETATM   22  O3  UNK     1      18.786   0.142  31.501  1.00  0.00    -0.259 OA
HETATM   23  C9  UNK     1      18.741   3.688  31.103  1.00  0.00     0.089 A 
HETATM   24  C17 UNK     1      18.992   4.599  30.080  1.00  0.00     0.038 A 
HETATM   25  C5  UNK     1      18.360   4.101  32.375  1.00  0.00    -0.001 A 
HETATM   26  C20 UNK     1      18.856   5.962  30.340  1.00  0.00     0.003 A 
HETATM   27  C19 UNK     1      18.475   6.395  31.612  1.00  0.00     0.001 A 
HETATM   28  C14 UNK     1      18.227   5.468  32.629  1.00  0.00     0.014 A 
HETATM   29  C8  UNK     1      18.113   3.095  33.398  1.00  0.00     0.037 A 
ENDBRANCH   3  19
TORSDOF 4
ENDMDL
MODEL 6
REMARK VINA RESULT:     -10.1      6.406      9.598
REMARK  4 active torsions:
REMARK  status: ('A' for Active; 'I' for Inactive)
REMARK    1  A    between atoms: C1_9  and  N1_6 
REMARK       I    between atoms: C12_20  and  N2_7 
REMARK    2  A    between atoms: C3_11  and  N2_7 
REMARK    3  A    between atoms: C1_9  and  C2_10 
REMARK    4  A    between atoms: C12_20  and  C6_14 
ROOT
HETATM    1  O2  UNK     1      18.528  -1.523  36.198  1.00  0.00    -0.267 OA
HETATM    2  N2  UNK     1      19.811  -3.214  35.174  1.00  0.00    -0.320 N 
HETATM    3  C12 UNK     1      19.126  -2.009  35.238  1.00  0.00     0.262 C 
HETATM    4  H4  UNK     1      20.277  -3.475  34.308  1.00  0.00     0.169 HD
ENDROOT
BRANCH   2   5
HETATM    5  C3  UNK     1      19.972  -4.152  36.203  1.00  0.00     0.071 A 
HETATM    6  C4  UNK     1      19.457  -5.407  36.215  1.00  0.00     0.143 A 
HETATM    7  N1  UNK     1      19.870  -5.942  37.400  1.00  0.00    -0.275 N 
HETATM    8  N3  UNK     1      20.615  -5.107  38.144  1.00  0.00    -0.183 NA
HETATM    9  C7  UNK     1      20.672  -4.003  37.394  1.00  0.00     0.169 A 
BRANCH   7  10
HETATM   10  C1  UNK     1      19.580  -7.270  37.886  1.00  0.00     0.189 C 
BRANCH  10  11
HETATM   11  C2  UNK     1      20.556  -8.279  37.346  1.00  0.00    -0.037 A 
HETATM   12  C10 UNK     1      21.916  -8.102  37.568  1.00  0.00     0.034 A 
HETATM   13  C15 UNK     1      22.821  -9.037  37.067  1.00  0.00     0.056 A 
HETATM   14 Cl1  UNK     1      24.503  -8.777  37.370  1.00  0.00    -0.083 Cl
HETATM   15  C18 UNK     1      22.359 -10.140  36.348  1.00  0.00     0.055 A 
HETATM   16  C16 UNK     1      20.991 -10.308  36.131  1.00  0.00     0.026 A 
HETATM   17 Cl2  UNK     1      23.431 -11.333  35.702  1.00  0.00    -0.083 Cl
HETATM   18  C11 UNK     1      20.086  -9.372  36.631  1.00  0.00     0.011 A 
ENDBRANCH  10  11
ENDBRANCH   7  10
ENDBRANCH   2   5
BRANCH   3  19
HETATM   19  C6  UNK     1      19.166  -1.282  33.963  1.00  0.00     0.108 A 
HETATM   20  C13 UNK     1      18.609   0.082  33.820  1.00  0.00     0.304 A 
HETATM   21  O1  UNK     1      18.708   0.667  32.560  1.00  0.00    -0.274 OA
HETATM   22  O3  UNK     1      18.086   0.671  34.759  1.00  0.00    -0.259 OA
HETATM   23  C9  UNK     1      19.307  -0.001  31.475  1.00  0.00     0.089 A 
HETATM   24  C17 UNK     1      19.360   0.667  30.253  1.00  0.00     0.038 A 
HETATM   25  C5  UNK     1      19.824  -1.282  31.632  1.00  0.00    -0.001 A 
HETATM   26  C20 UNK     1      19.947   0.032  29.160  1.00  0.00     0.003 A 
HETATM   27  C19 UNK     1      20.471  -1.255  29.299  1.00  0.00     0.001 A 
HETATM   28  C14 UNK     1      20.411  -1.913  30.532  1.00  0.00     0.014 A 
HETATM   29  C8  UNK     1      19.737  -1.922  32.936  1.00  0.00     0.037 A 
ENDBRANCH   3  19
TORSDOF 4
ENDMDL
MODEL 7
REMARK VINA RESULT:      -9.8      4.809      9.925
REMARK  4 active torsions:
REMARK  status: ('A' for Active; 'I' for Inactive)
REMARK    1  A    between atoms: C1_9  and  N1_6 
REMARK       I    between atoms: C12_20  and  N2_7 
REMARK    2  A    between atoms: C3_11  and  N2_7 
REMARK    3  A    between atoms: C1_9  and  C2_10 
REMARK    4  A    between atoms: C12_20  and  C6_14 
ROOT
HETATM    1  O2  UNK     1      18.667   4.900  30.221  1.00  0.00    -0.267 OA
HETATM    2  N2  UNK     1      17.587   4.774  32.312  1.00  0.00    -0.320 N 
HETATM    3  C12 UNK     1      18.298   4.290  31.224  1.00  0.00     0.262 C 
HETATM    4  H4  UNK     1      17.369   4.147  33.083  1.00  0.00     0.169 HD
ENDROOT
BRANCH   2   5
HETATM    5  C3  UNK     1      17.127   6.084  32.507  1.00  0.00     0.071 A 
HETATM    6  C4  UNK     1      16.736   6.614  33.692  1.00  0.00     0.143 A 
HETATM    7  N1  UNK     1      16.376   7.897  33.399  1.00  0.00    -0.275 N 
HETATM    8  N3  UNK     1      16.512   8.217  32.100  1.00  0.00    -0.183 NA
HETATM    9  C7  UNK     1      16.977   7.087  31.558  1.00  0.00     0.169 A 
BRANCH   7  10
HETATM   10  C1  UNK     1      15.886   8.884  34.332  1.00  0.00     0.189 C 
BRANCH  10  11
HETATM   11  C2  UNK     1      16.611  10.192  34.179  1.00  0.00    -0.037 A 
HETATM   12  C10 UNK     1      15.885  11.376  34.132  1.00  0.00     0.034 A 
HETATM   13  C15 UNK     1      16.557  12.589  33.990  1.00  0.00     0.056 A 
HETATM   14 Cl1  UNK     1      15.612  14.036  33.938  1.00  0.00    -0.083 Cl
HETATM   15  C18 UNK     1      17.950  12.609  33.897  1.00  0.00     0.055 A 
HETATM   16  C16 UNK     1      18.668  11.415  33.946  1.00  0.00     0.026 A 
HETATM   17 Cl2  UNK     1      18.840  14.080  33.720  1.00  0.00    -0.083 Cl
HETATM   18  C11 UNK     1      17.996  10.201  34.086  1.00  0.00     0.011 A 
ENDBRANCH  10  11
ENDBRANCH   7  10
ENDBRANCH   2   5
BRANCH   3  19
HETATM   19  C6  UNK     1      18.613   2.862  31.362  1.00  0.00     0.108 A 
HETATM   20  C13 UNK     1      18.377   2.125  32.624  1.00  0.00     0.304 A 
HETATM   21  O1  UNK     1      18.716   0.774  32.631  1.00  0.00    -0.274 OA
HETATM   22  O3  UNK     1      17.908   2.672  33.616  1.00  0.00    -0.259 OA
HETATM   23  C9  UNK     1      19.255   0.137  31.496  1.00  0.00     0.089 A 
HETATM   24  C17 UNK     1      19.562  -1.218  31.600  1.00  0.00     0.038 A 
HETATM   25  C5  UNK     1      19.468   0.849  30.321  1.00  0.00    -0.001 A 
HETATM   26  C20 UNK     1      20.096  -1.877  30.494  1.00  0.00     0.003 A 
HETATM   27  C19 UNK     1      20.317  -1.178  29.305  1.00  0.00     0.001 A 
HETATM   28  C14 UNK     1      20.004   0.182  29.216  1.00  0.00     0.014 A 
HETATM   29  C8  UNK     1      19.124   2.262  30.280  1.00  0.00     0.037 A 
ENDBRANCH   3  19
TORSDOF 4
ENDMDL
MODEL 8
REMARK VINA RESULT:      -9.8     13.524     15.754
REMARK  4 active torsions:
REMARK  status: ('A' for Active; 'I' for Inactive)
REMARK    1  A    between atoms: C1_9  and  N1_6 
REMARK       I    between atoms: C12_20  and  N2_7 
REMARK    2  A    between atoms: C3_11  and  N2_7 
REMARK    3  A    between atoms: C1_9  and  C2_10 
REMARK    4  A    between atoms: C12_20  and  C6_14 
ROOT
HETATM    1  O2  UNK     1      25.830  -8.757  39.426  1.00  0.00    -0.267 OA
HETATM    2  N2  UNK     1      26.220  -8.852  37.103  1.00  0.00    -0.320 N 
HETATM    3  C12 UNK     1      26.398  -8.387  38.398  1.00  0.00     0.262 C 
HETATM    4  H4  UNK     1      26.782  -8.459  36.352  1.00  0.00     0.169 HD
ENDROOT
BRANCH   2   5
HETATM    5  C3  UNK     1      25.340  -9.857  36.678  1.00  0.00     0.071 A 
HETATM    6  C4  UNK     1      24.010  -9.704  36.467  1.00  0.00     0.143 A 
HETATM    7  N1  UNK     1      23.575 -10.934  36.067  1.00  0.00    -0.275 N 
HETATM    8  N3  UNK     1      24.546 -11.861  36.011  1.00  0.00    -0.183 NA
HETATM    9  C7  UNK     1      25.634 -11.184  36.391  1.00  0.00     0.169 A 
BRANCH   7  10
HETATM   10  C1  UNK     1      22.221 -11.292  35.718  1.00  0.00     0.189 C 
BRANCH  10  11
HETATM   11  C2  UNK     1      21.243 -10.236  36.155  1.00  0.00    -0.037 A 
HETATM   12  C10 UNK     1      21.074  -9.097  35.379  1.00  0.00     0.034 A 
HETATM   13  C15 UNK     1      20.168  -8.118  35.785  1.00  0.00     0.056 A 
HETATM   14 Cl1  UNK     1      19.990  -6.718  34.786  1.00  0.00    -0.083 Cl
HETATM   15  C18 UNK     1      19.438  -8.287  36.962  1.00  0.00     0.055 A 
HETATM   16  C16 UNK     1      19.616  -9.435  37.733  1.00  0.00     0.026 A 
HETATM   17 Cl2  UNK     1      18.301  -7.110  37.518  1.00  0.00    -0.083 Cl
HETATM   18  C11 UNK     1      20.523 -10.414  37.328  1.00  0.00     0.011 A 
ENDBRANCH  10  11
ENDBRANCH   7  10
ENDBRANCH   2   5
BRANCH   3  19
HETATM   19  C6  UNK     1      27.407  -7.323  38.469  1.00  0.00     0.108 A 
HETATM   20  C13 UNK     1      27.038  -5.902  38.655  1.00  0.00     0.304 A 
HETATM   21  O1  UNK     1      28.085  -4.986  38.707  1.00  0.00    -0.274 OA
HETATM   22  O3  UNK     1      25.869  -5.544  38.759  1.00  0.00    -0.259 OA
HETATM   23  C9  UNK     1      29.430  -5.387  38.590  1.00  0.00     0.089 A 
HETATM   24  C17 UNK     1      30.408  -4.397  38.655  1.00  0.00     0.038 A 
HETATM   25  C5  UNK     1      29.755  -6.728  38.416  1.00  0.00    -0.001 A 
HETATM   26  C20 UNK     1      31.748  -4.762  38.542  1.00  0.00     0.003 A 
HETATM   27  C19 UNK     1      32.094  -6.104  38.366  1.00  0.00     0.001 A 
HETATM   28  C14 UNK     1      31.101  -7.087  38.303  1.00  0.00     0.014 A 
HETATM   29  C8  UNK     1      28.683  -7.711  38.357  1.00  0.00     0.037 A 
ENDBRANCH   3  19
TORSDOF 4
ENDMDL
MODEL 9
REMARK VINA RESULT:      -9.7      6.230      8.492
REMARK  4 active torsions:
REMARK  status: ('A' for Active; 'I' for Inactive)
REMARK    1  A    between atoms: C1_9  and  N1_6 
REMARK       I    between atoms: C12_20  and  N2_7 
REMARK    2  A    between atoms: C3_11  and  N2_7 
REMARK    3  A    between atoms: C1_9  and  C2_10 
REMARK    4  A    between atoms: C12_20  and  C6_14 
ROOT
HETATM    1  O2  UNK     1      17.395  -1.907  36.459  1.00  0.00    -0.267 OA
HETATM    2  N2  UNK     1      19.684  -1.899  35.900  1.00  0.00    -0.320 N 
HETATM    3  C12 UNK     1      18.408  -1.367  36.016  1.00  0.00     0.262 C 
HETATM    4  H4  UNK     1      20.434  -1.319  35.529  1.00  0.00     0.169 HD
ENDROOT
BRANCH   2   5
HETATM    5  C3  UNK     1      20.101  -3.186  36.268  1.00  0.00     0.071 A 
HETATM    6  C4  UNK     1      20.816  -3.497  37.378  1.00  0.00     0.143 A 
HETATM    7  N1  UNK     1      20.984  -4.850  37.316  1.00  0.00    -0.275 N 
HETATM    8  N3  UNK     1      20.422  -5.419  36.237  1.00  0.00    -0.183 NA
HETATM    9  C7  UNK     1      19.879  -4.381  35.595  1.00  0.00     0.169 A 
BRANCH   7  10
HETATM   10  C1  UNK     1      21.685  -5.669  38.276  1.00  0.00     0.189 C 
BRANCH  10  11
HETATM   11  C2  UNK     1      21.176  -7.084  38.266  1.00  0.00    -0.037 A 
HETATM   12  C10 UNK     1      21.796  -8.030  37.459  1.00  0.00     0.034 A 
HETATM   13  C15 UNK     1      21.323  -9.341  37.449  1.00  0.00     0.056 A 
HETATM   14 Cl1  UNK     1      22.129 -10.483  36.431  1.00  0.00    -0.083 Cl
HETATM   15  C18 UNK     1      20.235  -9.697  38.246  1.00  0.00     0.055 A 
HETATM   16  C16 UNK     1      19.619  -8.740  39.053  1.00  0.00     0.026 A 
HETATM   17 Cl2  UNK     1      19.603 -11.306  38.277  1.00  0.00    -0.083 Cl
HETATM   18  C11 UNK     1      20.091  -7.427  39.062  1.00  0.00     0.011 A 
ENDBRANCH  10  11
ENDBRANCH   7  10
ENDBRANCH   2   5
BRANCH   3  19
HETATM   19  C6  UNK     1      18.341   0.017  35.529  1.00  0.00     0.108 A 
HETATM   20  C13 UNK     1      18.240   1.169  36.453  1.00  0.00     0.304 A 
HETATM   21  O1  UNK     1      18.183   2.433  35.871  1.00  0.00    -0.274 OA
HETATM   22  O3  UNK     1      18.207   1.024  37.670  1.00  0.00    -0.259 OA
HETATM   23  C9  UNK     1      18.221   2.610  34.474  1.00  0.00     0.089 A 
HETATM   24  C17 UNK     1      18.159   3.914  33.985  1.00  0.00     0.038 A 
HETATM   25  C5  UNK     1      18.316   1.513  33.625  1.00  0.00    -0.001 A 
HETATM   26  C20 UNK     1      18.195   4.121  32.608  1.00  0.00     0.003 A 
HETATM   27  C19 UNK     1      18.290   3.032  31.739  1.00  0.00     0.001 A 
HETATM   28  C14 UNK     1      18.351   1.729  32.244  1.00  0.00     0.014 A 
HETATM   29  C8  UNK     1      18.377   0.179  34.202  1.00  0.00     0.037 A 
ENDBRANCH   3  19
TORSDOF 4
ENDMDL
MODEL 10
REMARK VINA RESULT:      -9.6     16.627     19.196
REMARK  4 active torsions:
REMARK  status: ('A' for Active; 'I' for Inactive)
REMARK    1  A    between atoms: C1_9  and  N1_6 
REMARK       I    between atoms: C12_20  and  N2_7 
REMARK    2  A    between atoms: C3_11  and  N2_7 
REMARK    3  A    between atoms: C1_9  and  C2_10 
REMARK    4  A    between atoms: C12_20  and  C6_14 
ROOT
HETATM    1  O2  UNK     1      17.975  -3.409  15.655  1.00  0.00    -0.267 OA
HETATM    2  N2  UNK     1      20.257  -3.230  15.093  1.00  0.00    -0.320 N 
HETATM    3  C12 UNK     1      19.024  -2.777  15.541  1.00  0.00     0.262 C 
HETATM    4  H4  UNK     1      21.046  -2.588  15.072  1.00  0.00     0.169 HD
ENDROOT
BRANCH   2   5
HETATM    5  C3  UNK     1      20.577  -4.526  14.665  1.00  0.00     0.071 A 
HETATM    6  C4  UNK     1      20.447  -4.994  13.399  1.00  0.00     0.143 A 
HETATM    7  N1  UNK     1      20.876  -6.288  13.459  1.00  0.00    -0.275 N 
HETATM    8  N3  UNK     1      21.270  -6.673  14.684  1.00  0.00    -0.183 NA
HETATM    9  C7  UNK     1      21.081  -5.575  15.423  1.00  0.00     0.169 A 
BRANCH   7  10
HETATM   10  C1  UNK     1      20.933  -7.222  12.360  1.00  0.00     0.189 C 
BRANCH  10  11
HETATM   11  C2  UNK     1      19.574  -7.449  11.759  1.00  0.00    -0.037 A 
HETATM   12  C10 UNK     1      18.588  -8.075  12.511  1.00  0.00     0.034 A 
HETATM   13  C15 UNK     1      17.328  -8.286  11.952  1.00  0.00     0.056 A 
HETATM   14 Cl1  UNK     1      16.133  -9.068  12.927  1.00  0.00    -0.083 Cl
HETATM   15  C18 UNK     1      17.064  -7.868  10.648  1.00  0.00     0.055 A 
HETATM   16  C16 UNK     1      18.061  -7.240   9.901  1.00  0.00     0.026 A 
HETATM   17 Cl2  UNK     1      15.522  -8.101   9.900  1.00  0.00    -0.083 Cl
HETATM   18  C11 UNK     1      19.322  -7.030  10.459  1.00  0.00     0.011 A 
ENDBRANCH  10  11
ENDBRANCH   7  10
ENDBRANCH   2   5
BRANCH   3  19
HETATM   19  C6  UNK     1      19.059  -1.355  15.907  1.00  0.00     0.108 A 
HETATM   20  C13 UNK     1      19.229  -0.288  14.895  1.00  0.00     0.304 A 
HETATM   21  O1  UNK     1      19.246   1.022  15.365  1.00  0.00    -0.274 OA
HETATM   22  O3  UNK     1      19.348  -0.540  13.700  1.00  0.00    -0.259 OA
HETATM   23  C9  UNK     1      19.108   1.322  16.734  1.00  0.00     0.089 A 
HETATM   24  C17 UNK     1      19.137   2.664  17.109  1.00  0.00     0.038 A 
HETATM   25  C5  UNK     1      18.950   0.304  17.668  1.00  0.00    -0.001 A 
HETATM   26  C20 UNK     1      19.003   2.993  18.456  1.00  0.00     0.003 A 
HETATM   27  C19 UNK     1      18.844   1.984  19.409  1.00  0.00     0.001 A 
HETATM   28  C14 UNK     1      18.817   0.642  19.018  1.00  0.00     0.014 A 
HETATM   29  C8  UNK     1      18.928  -1.076  17.209  1.00  0.00     0.037 A 
ENDBRANCH   3  19
TORSDOF 4
ENDMDL
