MODEL 1
REMARK VINA RESULT:      -7.2      0.000      0.000
REMARK  2 active torsions:
REMARK  status: ('A' for Active; 'I' for Inactive)
REMARK    1  A    between atoms: C1_3  and  C3_5 
REMARK    2  A    between atoms: C2_4  and  C4_6 
ROOT
HETATM    1  N1  UNK     1      19.812  -0.773  28.284  1.00  0.00    -0.191 NA
HETATM    2  C1  UNK     1      18.333   3.542  31.137  1.00  0.00    -0.036 A 
HETATM    3  C5  UNK     1      18.354   3.601  29.743  1.00  0.00     0.013 A 
HETATM    4  C7  UNK     1      18.695   2.364  31.790  1.00  0.00     0.013 A 
HETATM    5  C9  UNK     1      18.738   2.483  29.004  1.00  0.00     0.023 A 
HETATM    6  C11 UNK     1      19.079   1.246  31.051  1.00  0.00     0.023 A 
HETATM    7  C13 UNK     1      19.100   1.304  29.657  1.00  0.00     0.044 A 
HETATM    8  C15 UNK     1      19.493   0.158  28.899  1.00  0.00     0.099 C 
ENDROOT
BRANCH   2   9
HETATM    9  C3  UNK     1      17.933   4.709  31.908  1.00  0.00     0.012 C 
HETATM   10  C4  UNK     1      18.143   5.995  31.542  1.00  0.00     0.012 C 
BRANCH  10  11
HETATM   11  C2  UNK     1      17.720   7.177  32.314  1.00  0.00    -0.036 A 
HETATM   12  C6  UNK     1      18.604   7.753  33.212  1.00  0.00     0.013 A 
HETATM   13  C10 UNK     1      18.204   8.873  33.942  1.00  0.00     0.023 A 
HETATM   14  C14 UNK     1      16.925   9.400  33.764  1.00  0.00     0.044 A 
HETATM   15  C12 UNK     1      16.046   8.809  32.857  1.00  0.00     0.023 A 
HETATM   16  C16 UNK     1      16.514  10.547  34.512  1.00  0.00     0.099 C 
HETATM   17  C8  UNK     1      16.446   7.690  32.127  1.00  0.00     0.013 A 
HETATM   18  N2  UNK     1      16.182  11.479  35.120  1.00  0.00    -0.191 NA
ENDBRANCH  10  11
ENDBRANCH   2   9
TORSDOF 2
ENDMDL
MODEL 2
REMARK VINA RESULT:      -7.2      0.971      1.756
REMARK  2 active torsions:
REMARK  status: ('A' for Active; 'I' for Inactive)
REMARK    1  A    between atoms: C1_3  and  C3_5 
REMARK    2  A    between atoms: C2_4  and  C4_6 
ROOT
HETATM    1  N1  UNK     1      20.175  -0.918  28.484  1.00  0.00    -0.191 NA
HETATM    2  C1  UNK     1      18.325   3.153  31.475  1.00  0.00    -0.036 A 
HETATM    3  C5  UNK     1      18.676   1.946  32.081  1.00  0.00     0.013 A 
HETATM    4  C7  UNK     1      18.454   3.304  30.095  1.00  0.00     0.013 A 
HETATM    5  C9  UNK     1      19.155   0.891  31.305  1.00  0.00     0.023 A 
HETATM    6  C11 UNK     1      18.933   2.249  29.319  1.00  0.00     0.023 A 
HETATM    7  C13 UNK     1      19.285   1.042  29.924  1.00  0.00     0.044 A 
HETATM    8  C15 UNK     1      19.776  -0.039  29.130  1.00  0.00     0.099 C 
ENDROOT
BRANCH   2   9
HETATM    9  C3  UNK     1      17.825   4.254  32.284  1.00  0.00     0.012 C 
HETATM   10  C4  UNK     1      17.597   5.511  31.836  1.00  0.00     0.012 C 
BRANCH  10  11
HETATM   11  C2  UNK     1      17.071   6.620  32.651  1.00  0.00    -0.036 A 
HETATM   12  C6  UNK     1      16.431   7.678  32.025  1.00  0.00     0.013 A 
HETATM   13  C10 UNK     1      15.932   8.728  32.796  1.00  0.00     0.023 A 
HETATM   14  C14 UNK     1      16.079   8.706  34.184  1.00  0.00     0.044 A 
HETATM   15  C12 UNK     1      16.725   7.633  34.799  1.00  0.00     0.023 A 
HETATM   16  C16 UNK     1      15.569   9.781  34.974  1.00  0.00     0.099 C 
HETATM   17  C8  UNK     1      17.224   6.584  34.028  1.00  0.00     0.013 A 
HETATM   18  N2  UNK     1      15.153  10.655  35.616  1.00  0.00    -0.191 NA
ENDBRANCH  10  11
ENDBRANCH   2   9
TORSDOF 2
ENDMDL
MODEL 3
REMARK VINA RESULT:      -7.1      0.874      8.554
REMARK  2 active torsions:
REMARK  status: ('A' for Active; 'I' for Inactive)
REMARK    1  A    between atoms: C1_3  and  C3_5 
REMARK    2  A    between atoms: C2_4  and  C4_6 
ROOT
HETATM    1  N1  UNK     1      16.427  11.215  34.444  1.00  0.00    -0.191 NA
HETATM    2  C1  UNK     1      18.192   6.413  32.778  1.00  0.00    -0.036 A 
HETATM    3  C5  UNK     1      16.850   6.758  32.616  1.00  0.00     0.013 A 
HETATM    4  C7  UNK     1      19.075   7.314  33.373  1.00  0.00     0.013 A 
HETATM    5  C9  UNK     1      16.392   8.002  33.048  1.00  0.00     0.023 A 
HETATM    6  C11 UNK     1      18.618   8.558  33.805  1.00  0.00     0.023 A 
HETATM    7  C13 UNK     1      17.276   8.904  33.642  1.00  0.00     0.044 A 
HETATM    8  C15 UNK     1      16.808  10.179  34.084  1.00  0.00     0.099 C 
ENDROOT
BRANCH   2   9
HETATM    9  C3  UNK     1      18.669   5.115  32.328  1.00  0.00     0.012 C 
HETATM   10  C4  UNK     1      17.969   4.252  31.554  1.00  0.00     0.012 C 
BRANCH  10  11
HETATM   11  C2  UNK     1      18.461   2.946  31.081  1.00  0.00    -0.036 A 
HETATM   12  C6  UNK     1      18.625   2.734  29.721  1.00  0.00     0.013 A 
HETATM   13  C10 UNK     1      19.091   1.498  29.274  1.00  0.00     0.023 A 
HETATM   14  C14 UNK     1      19.387   0.490  30.192  1.00  0.00     0.044 A 
HETATM   15  C12 UNK     1      19.217   0.718  31.557  1.00  0.00     0.023 A 
HETATM   16  C16 UNK     1      19.864  -0.776  29.734  1.00  0.00     0.099 C 
HETATM   17  C8  UNK     1      18.751   1.955  32.005  1.00  0.00     0.013 A 
HETATM   18  N2  UNK     1      20.253  -1.806  29.360  1.00  0.00    -0.191 NA
ENDBRANCH  10  11
ENDBRANCH   2   9
TORSDOF 2
ENDMDL
MODEL 4
REMARK VINA RESULT:      -7.1      1.232      1.864
REMARK  2 active torsions:
REMARK  status: ('A' for Active; 'I' for Inactive)
REMARK    1  A    between atoms: C1_3  and  C3_5 
REMARK    2  A    between atoms: C2_4  and  C4_6 
ROOT
HETATM    1  N1  UNK     1      20.523  -2.400  29.695  1.00  0.00    -0.191 NA
HETATM    2  C1  UNK     1      18.636   2.467  30.998  1.00  0.00    -0.036 A 
HETATM    3  C5  UNK     1      18.946   2.171  29.670  1.00  0.00     0.013 A 
HETATM    4  C7  UNK     1      18.817   1.501  31.988  1.00  0.00     0.013 A 
HETATM    5  C9  UNK     1      19.435   0.910  29.333  1.00  0.00     0.023 A 
HETATM    6  C11 UNK     1      19.306   0.239  31.650  1.00  0.00     0.023 A 
HETATM    7  C13 UNK     1      19.615  -0.057  30.322  1.00  0.00     0.044 A 
HETATM    8  C15 UNK     1      20.116  -1.350  29.976  1.00  0.00     0.099 C 
ENDROOT
BRANCH   2   9
HETATM    9  C3  UNK     1      18.126   3.783  31.350  1.00  0.00     0.012 C 
HETATM   10  C4  UNK     1      18.256   4.371  32.563  1.00  0.00     0.012 C 
BRANCH  10  11
HETATM   11  C2  UNK     1      17.757   5.713  32.913  1.00  0.00    -0.036 A 
HETATM   12  C6  UNK     1      16.650   6.219  32.250  1.00  0.00     0.013 A 
HETATM   13  C10 UNK     1      16.177   7.489  32.582  1.00  0.00     0.023 A 
HETATM   14  C14 UNK     1      16.817   8.235  33.572  1.00  0.00     0.044 A 
HETATM   15  C12 UNK     1      17.930   7.712  34.230  1.00  0.00     0.023 A 
HETATM   16  C16 UNK     1      16.333   9.536  33.912  1.00  0.00     0.099 C 
HETATM   17  C8  UNK     1      18.403   6.442  33.898  1.00  0.00     0.013 A 
HETATM   18  N2  UNK     1      15.938  10.593  34.188  1.00  0.00    -0.191 NA
ENDBRANCH  10  11
ENDBRANCH   2   9
TORSDOF 2
ENDMDL
MODEL 5
REMARK VINA RESULT:      -7.0     13.146     16.831
REMARK  2 active torsions:
REMARK  status: ('A' for Active; 'I' for Inactive)
REMARK    1  A    between atoms: C1_3  and  C3_5 
REMARK    2  A    between atoms: C2_4  and  C4_6 
ROOT
HETATM    1  N1  UNK     1      18.718  -5.196  10.443  1.00  0.00    -0.191 NA
HETATM    2  C1  UNK     1      19.074  -2.568  15.124  1.00  0.00    -0.036 A 
HETATM    3  C5  UNK     1      18.401  -3.788  15.059  1.00  0.00     0.013 A 
HETATM    4  C7  UNK     1      19.654  -2.030  13.976  1.00  0.00     0.013 A 
HETATM    5  C9  UNK     1      18.308  -4.469  13.846  1.00  0.00     0.023 A 
HETATM    6  C11 UNK     1      19.562  -2.710  12.763  1.00  0.00     0.023 A 
HETATM    7  C13 UNK     1      18.890  -3.931  12.697  1.00  0.00     0.044 A 
HETATM    8  C15 UNK     1      18.795  -4.629  11.454  1.00  0.00     0.099 C 
ENDROOT
BRANCH   2   9
HETATM    9  C3  UNK     1      19.170  -1.857  16.390  1.00  0.00     0.012 C 
HETATM   10  C4  UNK     1      18.996  -0.524  16.552  1.00  0.00     0.012 C 
BRANCH  10  11
HETATM   11  C2  UNK     1      19.074   0.192  17.837  1.00  0.00    -0.036 A 
HETATM   12  C6  UNK     1      18.995   1.576  17.849  1.00  0.00     0.013 A 
HETATM   13  C10 UNK     1      19.067   2.254  19.066  1.00  0.00     0.023 A 
HETATM   14  C14 UNK     1      19.217   1.539  20.255  1.00  0.00     0.044 A 
HETATM   15  C12 UNK     1      19.293   0.147  20.227  1.00  0.00     0.023 A 
HETATM   16  C16 UNK     1      19.291   2.233  21.501  1.00  0.00     0.099 C 
HETATM   17  C8  UNK     1      19.222  -0.532  19.010  1.00  0.00     0.013 A 
HETATM   18  N2  UNK     1      19.350   2.799  22.515  1.00  0.00    -0.191 NA
ENDBRANCH  10  11
ENDBRANCH   2   9
TORSDOF 2
ENDMDL
MODEL 6
REMARK VINA RESULT:      -6.9      9.045     11.303
REMARK  2 active torsions:
REMARK  status: ('A' for Active; 'I' for Inactive)
REMARK    1  A    between atoms: C1_3  and  C3_5 
REMARK    2  A    between atoms: C2_4  and  C4_6 
ROOT
HETATM    1  N1  UNK     1      22.917 -11.093  35.458  1.00  0.00    -0.191 NA
HETATM    2  C1  UNK     1      20.450  -6.404  36.393  1.00  0.00    -0.036 A 
HETATM    3  C5  UNK     1      21.279  -6.963  37.367  1.00  0.00     0.013 A 
HETATM    4  C7  UNK     1      20.262  -7.061  35.178  1.00  0.00     0.013 A 
HETATM    5  C9  UNK     1      21.918  -8.178  37.124  1.00  0.00     0.023 A 
HETATM    6  C11 UNK     1      20.901  -8.276  34.935  1.00  0.00     0.023 A 
HETATM    7  C13 UNK     1      21.730  -8.836  35.908  1.00  0.00     0.044 A 
HETATM    8  C15 UNK     1      22.385 -10.081  35.660  1.00  0.00     0.099 C 
ENDROOT
BRANCH   2   9
HETATM    9  C3  UNK     1      19.783  -5.136  36.646  1.00  0.00     0.012 C 
HETATM   10  C4  UNK     1      20.131  -3.948  36.098  1.00  0.00     0.012 C 
BRANCH  10  11
HETATM   11  C2  UNK     1      19.442  -2.668  36.339  1.00  0.00    -0.036 A 
HETATM   12  C6  UNK     1      19.418  -1.712  35.336  1.00  0.00     0.013 A 
HETATM   13  C10 UNK     1      18.765  -0.500  35.564  1.00  0.00     0.023 A 
HETATM   14  C14 UNK     1      18.146  -0.261  36.791  1.00  0.00     0.044 A 
HETATM   15  C12 UNK     1      18.179  -1.234  37.790  1.00  0.00     0.023 A 
HETATM   16  C16 UNK     1      17.477   0.980  37.024  1.00  0.00     0.099 C 
HETATM   17  C8  UNK     1      18.832  -2.446  37.562  1.00  0.00     0.013 A 
HETATM   18  N2  UNK     1      16.934   1.990  37.213  1.00  0.00    -0.191 NA
ENDBRANCH  10  11
ENDBRANCH   2   9
TORSDOF 2
ENDMDL
MODEL 7
REMARK VINA RESULT:      -6.9      9.004     13.881
REMARK  2 active torsions:
REMARK  status: ('A' for Active; 'I' for Inactive)
REMARK    1  A    between atoms: C1_3  and  C3_5 
REMARK    2  A    between atoms: C2_4  and  C4_6 
ROOT
HETATM    1  N1  UNK     1      16.947   2.018  37.184  1.00  0.00    -0.191 NA
HETATM    2  C1  UNK     1      19.441  -2.665  36.293  1.00  0.00    -0.036 A 
HETATM    3  C5  UNK     1      18.826  -2.425  37.522  1.00  0.00     0.013 A 
HETATM    4  C7  UNK     1      19.409  -1.691  35.296  1.00  0.00     0.013 A 
HETATM    5  C9  UNK     1      18.180  -1.212  37.753  1.00  0.00     0.023 A 
HETATM    6  C11 UNK     1      18.763  -0.477  35.527  1.00  0.00     0.023 A 
HETATM    7  C13 UNK     1      18.147  -0.237  36.755  1.00  0.00     0.044 A 
HETATM    8  C15 UNK     1      17.485   1.007  36.992  1.00  0.00     0.099 C 
ENDROOT
BRANCH   2   9
HETATM    9  C3  UNK     1      20.116  -3.931  36.052  1.00  0.00     0.012 C 
HETATM   10  C4  UNK     1      19.764  -5.119  36.599  1.00  0.00     0.012 C 
BRANCH  10  11
HETATM   11  C2  UNK     1      20.435  -6.405  36.339  1.00  0.00    -0.036 A 
HETATM   12  C6  UNK     1      21.256  -6.951  37.314  1.00  0.00     0.013 A 
HETATM   13  C10 UNK     1      21.890  -8.169  37.068  1.00  0.00     0.023 A 
HETATM   14  C14 UNK     1      21.697  -8.824  35.851  1.00  0.00     0.044 A 
HETATM   15  C12 UNK     1      20.868  -8.261  34.881  1.00  0.00     0.023 A 
HETATM   16  C16 UNK     1      22.346 -10.071  35.599  1.00  0.00     0.099 C 
HETATM   17  C8  UNK     1      20.233  -7.043  35.126  1.00  0.00     0.013 A 
HETATM   18  N2  UNK     1      22.875 -11.085  35.396  1.00  0.00    -0.191 NA
ENDBRANCH  10  11
ENDBRANCH   2   9
TORSDOF 2
ENDMDL
MODEL 8
REMARK VINA RESULT:      -6.9      1.613      2.876
REMARK  2 active torsions:
REMARK  status: ('A' for Active; 'I' for Inactive)
REMARK    1  A    between atoms: C1_3  and  C3_5 
REMARK    2  A    between atoms: C2_4  and  C4_6 
ROOT
HETATM    1  N1  UNK     1      19.289   1.369  29.997  1.00  0.00    -0.191 NA
HETATM    2  C1  UNK     1      18.033   6.326  31.672  1.00  0.00    -0.036 A 
HETATM    3  C5  UNK     1      18.771   6.151  30.500  1.00  0.00     0.013 A 
HETATM    4  C7  UNK     1      17.622   5.215  32.408  1.00  0.00     0.013 A 
HETATM    5  C9  UNK     1      19.096   4.866  30.066  1.00  0.00     0.023 A 
HETATM    6  C11 UNK     1      17.947   3.931  31.974  1.00  0.00     0.023 A 
HETATM    7  C13 UNK     1      18.684   3.755  30.803  1.00  0.00     0.044 A 
HETATM    8  C15 UNK     1      19.018   2.439  30.358  1.00  0.00     0.099 C 
ENDROOT
BRANCH   2   9
HETATM    9  C3  UNK     1      17.694   7.666  32.124  1.00  0.00     0.012 C 
HETATM   10  C4  UNK     1      18.036   8.195  33.323  1.00  0.00     0.012 C 
BRANCH  10  11
HETATM   11  C2  UNK     1      17.710   9.559  33.773  1.00  0.00    -0.036 A 
HETATM   12  C6  UNK     1      18.725  10.496  33.889  1.00  0.00     0.013 A 
HETATM   13  C10 UNK     1      18.416  11.789  34.314  1.00  0.00     0.023 A 
HETATM   14  C14 UNK     1      17.097  12.127  34.617  1.00  0.00     0.044 A 
HETATM   15  C12 UNK     1      16.087  11.173  34.495  1.00  0.00     0.023 A 
HETATM   16  C16 UNK     1      16.781  13.450  35.052  1.00  0.00     0.099 C 
HETATM   17  C8  UNK     1      16.395   9.880  34.070  1.00  0.00     0.013 A 
HETATM   18  N2  UNK     1      16.524  14.527  35.406  1.00  0.00    -0.191 NA
ENDBRANCH  10  11
ENDBRANCH   2   9
TORSDOF 2
ENDMDL
MODEL 9
REMARK VINA RESULT:      -6.9      1.436      8.911
REMARK  2 active torsions:
REMARK  status: ('A' for Active; 'I' for Inactive)
REMARK    1  A    between atoms: C1_3  and  C3_5 
REMARK    2  A    between atoms: C2_4  and  C4_6 
ROOT
HETATM    1  N1  UNK     1      16.020  13.887  36.225  1.00  0.00    -0.191 NA
HETATM    2  C1  UNK     1      16.776   9.309  33.500  1.00  0.00    -0.036 A 
HETATM    3  C5  UNK     1      17.851  10.167  33.735  1.00  0.00     0.013 A 
HETATM    4  C7  UNK     1      15.505   9.640  33.971  1.00  0.00     0.013 A 
HETATM    5  C9  UNK     1      17.655  11.353  34.442  1.00  0.00     0.023 A 
HETATM    6  C11 UNK     1      15.309  10.826  34.677  1.00  0.00     0.023 A 
HETATM    7  C13 UNK     1      16.384  11.683  34.913  1.00  0.00     0.044 A 
HETATM    8  C15 UNK     1      16.183  12.899  35.637  1.00  0.00     0.099 C 
ENDROOT
BRANCH   2   9
HETATM    9  C3  UNK     1      16.980   8.072  32.763  1.00  0.00     0.012 C 
HETATM   10  C4  UNK     1      18.145   7.386  32.699  1.00  0.00     0.012 C 
BRANCH  10  11
HETATM   11  C2  UNK     1      18.346   6.122  31.969  1.00  0.00    -0.036 A 
HETATM   12  C6  UNK     1      17.939   4.931  32.550  1.00  0.00     0.013 A 
HETATM   13  C10 UNK     1      18.128   3.734  31.858  1.00  0.00     0.023 A 
HETATM   14  C14 UNK     1      18.723   3.744  30.596  1.00  0.00     0.044 A 
HETATM   15  C12 UNK     1      19.127   4.950  30.025  1.00  0.00     0.023 A 
HETATM   16  C16 UNK     1      18.917   2.518  29.888  1.00  0.00     0.099 C 
HETATM   17  C8  UNK     1      18.938   6.147  30.716  1.00  0.00     0.013 A 
HETATM   18  N2  UNK     1      19.074   1.521  29.313  1.00  0.00    -0.191 NA
ENDBRANCH  10  11
ENDBRANCH   2   9
TORSDOF 2
ENDMDL
MODEL 10
REMARK VINA RESULT:      -6.7      8.020     10.197
REMARK  2 active torsions:
REMARK  status: ('A' for Active; 'I' for Inactive)
REMARK    1  A    between atoms: C1_3  and  C3_5 
REMARK    2  A    between atoms: C2_4  and  C4_6 
ROOT
HETATM    1  N1  UNK     1      20.845  -9.170  39.466  1.00  0.00    -0.191 NA
HETATM    2  C1  UNK     1      20.042  -4.547  36.832  1.00  0.00    -0.036 A 
HETATM    3  C5  UNK     1      21.183  -4.713  37.619  1.00  0.00     0.013 A 
HETATM    4  C7  UNK     1      19.110  -5.580  36.729  1.00  0.00     0.013 A 
HETATM    5  C9  UNK     1      21.390  -5.911  38.301  1.00  0.00     0.023 A 
HETATM    6  C11 UNK     1      19.318  -6.778  37.411  1.00  0.00     0.023 A 
HETATM    7  C13 UNK     1      20.459  -6.945  38.198  1.00  0.00     0.044 A 
HETATM    8  C15 UNK     1      20.672  -8.172  38.897  1.00  0.00     0.099 C 
ENDROOT
BRANCH   2   9
HETATM    9  C3  UNK     1      19.825  -3.298  36.120  1.00  0.00     0.012 C 
HETATM   10  C4  UNK     1      18.908  -2.359  36.452  1.00  0.00     0.012 C 
BRANCH  10  11
HETATM   11  C2  UNK     1      18.702  -1.084  35.743  1.00  0.00    -0.036 A 
HETATM   12  C6  UNK     1      18.529   0.079  36.475  1.00  0.00     0.013 A 
HETATM   13  C10 UNK     1      18.335   1.287  35.804  1.00  0.00     0.023 A 
HETATM   14  C14 UNK     1      18.318   1.315  34.409  1.00  0.00     0.044 A 
HETATM   15  C12 UNK     1      18.495   0.135  33.686  1.00  0.00     0.023 A 
HETATM   16  C16 UNK     1      18.120   2.551  33.721  1.00  0.00     0.099 C 
HETATM   17  C8  UNK     1      18.688  -1.073  34.357  1.00  0.00     0.013 A 
HETATM   18  N2  UNK     1      17.960   3.557  33.163  1.00  0.00    -0.191 NA
ENDBRANCH  10  11
ENDBRANCH   2   9
TORSDOF 2
ENDMDL
